#	Name:			01
#	Creating user name:	jeff
#	Creation time:		Fri Dec 13 10:06:43 2002

#	Modifying user name:	jeff
#	Modification time:	Fri Dec 13 10:06:48 2002

@<TRIPOS>MOLECULE
01
   75    78     4     1     1
SMALL
USER_CHARGES


@<TRIPOS>ATOM
      1 C1          4.673304   -7.816247   13.791532 C.ar      1 TOS1       -0.334200 
      2 C2          6.233555   -5.781200   14.871952 C.ar      1 TOS1        0.333700 
      3 ****        9.935247   -8.000472   13.335616 H         1 TOS1        0.210800 
      4 ****        8.573520   -9.867829   12.479024 H         1 TOS1        0.162300 
      5 ****        4.061575   -6.726380   14.412159 C.ar      1 TOS1       -0.062900 
      6 ****        4.841982   -5.703472   14.952081 C.ar      1 TOS1       -0.237300 
      7 ****        4.029245   -8.578495   13.377669 H         1 TOS1        0.198400 
      8 ****        6.805281   -9.244053   10.271241 H         2 APM2        0.062400 
      9 ****        5.302246  -10.432655    8.548245 H         2 APM2        0.181300 
     10 ****        6.168983   -9.023025    7.913658 H         2 APM2        0.118200 
     11 ****        2.870954  -10.466015    8.297091 H         2 APM2        0.220100 
     12 ****        4.995572   -6.800901    7.685097 H         2 APM2        0.181800 
     13 ****        2.859447   -5.606102    7.347340 H         2 APM2        0.204900 
     14 ****        0.715100   -6.768685    7.767489 H         2 APM2        0.163400 
     15 ****        3.997309   -9.802935   10.918993 H         2 APM2        0.417400 
     16 ****       -1.656292   -9.433451    7.436358 H         2 APM2        0.572800 
     17 ****       -0.690363   -8.026367    6.964944 H         2 APM2        0.552600 
     18 ****        1.057598  -11.097951    8.997944 H         2 APM2        0.553700 
     19 ****       -0.650786  -11.200124    8.543315 H         2 APM2        0.575300 
     20 ****        7.511624   -6.160539    8.258323 H         3 PIP3        0.140600 
     21 ****        7.835583   -7.744070    8.971940 H         3 PIP3        0.117500 
     22 ****        9.682790   -6.111929    9.418496 H         3 PIP3        0.144600 
     23 ****        8.943527   -6.711544   10.927874 H         3 PIP3        0.027600 
     24 ****       10.794805   -3.718793   11.192100 C.3       4 SULFONYL   -0.699900 
     25 S1          9.461187   -3.411342   10.026062 S.o2      4 SULFONYL    2.248900 
     26 ****        7.004773   -3.456419   11.380387 H         3 PIP3        0.098400 
     27 ****        7.228349   -5.054357   12.135970 H         3 PIP3       -0.015100 
     28 ****        5.067181   -4.968448   10.879031 H         3 PIP3        0.141600 
     29 ****        5.931671   -4.507608    9.396907 H         3 PIP3        0.107200 
     30 S           5.774002  -10.433135   12.483029 S.o2      1 TOS1        2.304000 
     31 O1          6.703953  -11.441084   12.016975 O.2       1 TOS1       -0.931300 
     32 O2          4.772245  -10.826891   13.454493 O.2       1 TOS1       -0.931400 
     33 C1          6.688520   -9.023811   13.104382 C.ar      1 TOS1       -0.775500 
     34 C2          6.069649   -7.912945   13.701195 C.ar      1 TOS1        0.301300 
     35 C3          6.847441   -6.866381   14.224349 C.ar      1 TOS1       -0.190700 
     36 C4          8.240975   -6.902843   14.091626 C.ar      1 TOS1        0.201300 
     37 C5          8.855690   -7.981021   13.454042 C.ar      1 TOS1       -0.422300 
     38 C6          8.078821   -9.036200   12.966807 C.ar      1 TOS1        0.217700 
     39 ****        6.970311   -4.792403   15.432574 N.pl3     1 TOS1       -0.484800 
     40 C           5.537520   -7.484843   10.367962 C.2       2 APM2        0.504100 
     41 CA          5.763500   -8.954928   10.085454 C.3       2 APM2        0.423000 
     42 CB          5.385033   -9.337634    8.622430 C.3       2 APM2       -0.468900 
     43 CG          4.059243   -8.681311    8.196093 C.ar      2 APM2        0.214700 
     44 CD1         2.850521   -9.389246    8.172310 C.ar      2 APM2       -0.179800 
     45 CD2         4.057333   -7.332809    7.820168 C.ar      2 APM2       -0.045000 
     46 CE1         1.626367   -8.727839    7.981522 C.ar      2 APM2       -0.356800 
     47 CE2         2.849316   -6.659327    7.622069 C.ar      2 APM2       -0.186600 
     48 CZ          1.638707   -7.339939    7.786628 C.ar      2 APM2       -0.056300 
     49 CF          0.311414   -9.485977    7.985834 C.cat     2 APM2        1.118400 
     50 O           4.513768   -7.248869   10.991720 O.2       2 APM2       -0.593700 
     51 N           4.985943   -9.720871   11.054894 N.am      2 APM2       -1.066800 
     52 NG1        -0.748088   -8.945879    7.429245 N.pl3     2 APM2       -1.039900 
     53 NG2         0.235471  -10.672256    8.541965 N.pl3     2 APM2       -1.019900 
     54 N1          6.362615   -6.471800    9.975699 N.am      3 PIP3       -0.383400 
     55 C2          7.594671   -6.703674    9.214455 C.3       3 PIP3       -0.091200 
     56 C3          8.766347   -6.103782   10.026516 C.3       3 PIP3        0.110200 
     57 N4          8.400755   -4.751949   10.429658 N.am      3 PIP3       -0.912700 
     58 C5          7.173720   -4.522228   11.177184 C.3       3 PIP3        0.293600 
     59 C6          6.015159   -5.090833   10.329213 C.3       3 PIP3       -0.111500 
     60 O           8.826324   -2.156721   10.374452 O.2       4 SULFONYL   -0.907500 
     61 O           9.963897   -3.596983    8.680664 O.2       4 SULFONYL   -0.906000 
     62 ****       10.400005   -3.690023   12.217380 H         4 SULFONYL    0.178200 
     63 ****       11.563217   -2.941904   11.074056 H         4 SULFONYL    0.234900 
     64 ****       11.244233   -4.703647   11.004652 H         4 SULFONYL    0.184600 
     65 ****        2.978434   -6.672041   14.478325 H         1 TOS1        0.176600 
     66 ****        4.365289   -4.851623   15.431183 H         1 TOS1        0.180700 
     67 ****        8.865212   -6.098019   14.471314 H         1 TOS1        0.108000 
     68 C68         7.207702   -3.560576   14.686453 C.3       1 TOS1       -0.142000 
     69 C69         7.429020   -4.921943   16.813995 C.3       1 TOS1       -0.008800 
     70 ****        7.405828   -2.716280   15.368738 H         1 TOS1        0.121300 
     71 ****        6.329363   -3.308503   14.067168 H         1 TOS1        0.096700 
     72 ****        8.082485   -3.703588   14.036977 H         1 TOS1        0.078300 
     73 ****        7.122139   -5.887497   17.248770 H         1 TOS1        0.050300 
     74 ****        7.006134   -4.112377   17.428688 H         1 TOS1        0.053300 
     75 ****        8.526871   -4.855700   16.838308 H         1 TOS1        0.097400 
@<TRIPOS>BOND
     1   34    1 ar   
     2   35    2 ar   
     3   37    3 1    
     4   38    4 1    
     5    1    5 ar   
     6    2    6 ar   
     7    6    5 ar   
     8   41    8 1    
     9   42    9 1    
    10   42   10 1    
    11   44   11 1    
    12   45   12 1    
    13   47   13 1    
    14   48   14 1    
    15   51   15 1    
    16   52   16 1    
    17   52   17 1    
    18   53   18 1    
    19   53   19 1    
    20   55   20 1    
    21   55   21 1    
    22   56   22 1    
    23   56   23 1    
    24   57   25 1    
    25   25   60 2    
    26   58   26 1    
    27   58   27 1    
    28   59   28 1    
    29   59   29 1    
    30   33   30 1    
    31   30   32 2    
    32   30   31 2    
    33   33   38 ar   
    34   34   33 ar   
    35   35   34 ar   
    36   36   35 ar   
    37    1    7 1    
    38   36   37 ar   
    39   37   38 ar   
    40   40   50 2    
    41   41   40 1    
    42   41   51 1    
    43   42   41 1    
    44   43   42 1    
    45   43   45 ar   
    46   44   43 ar   
    47   46   44 ar   
    48   49   46 1    
    49   46   48 ar   
    50   48   47 ar   
    51   47   45 ar   
    52   49   53 ar   
    53   49   52 ar   
    54   54   59 1    
    55   55   54 1    
    56   56   55 1    
    57   57   56 1    
    58   57   58 1    
    59   58   59 1    
    60   40   54 am   
    61   51   30 1    
    62   25   61 2    
    63   25   24 1    
    64   24   62 1    
    65   24   63 1    
    66   24   64 1    
    67    2   39 1    
    68    5   65 1    
    69    6   66 1    
    70   36   67 1    
    71   39   68 1    
    72   39   69 1    
    73   68   70 1    
    74   68   71 1    
    75   68   72 1    
    76   69   73 1    
    77   69   74 1    
    78   69   75 1    
@<TRIPOS>SUBSTRUCTURE
     1 TOS1       30 GROUP             0 I     ****    1  
     2 APM2       40 GROUP             0 I     ****    2 ROOT 
     3 PIP3       54 GROUP             0 I     ****    2  
     4 SULFONYL    25 PERM              0 ****  ****    1  
@<TRIPOS>SET
UNK_ATOMS       STATIC     ATOMS    AMSOM    **** 
30 30 31 32 33 34 35 36 37 38 0 40 41 42 43 44 45 46 47 48 \
 49 50 51 52 53 54 55 56 57 58 59
@<TRIPOS>NORMAL
@<TRIPOS>FF_PBC
FORCE_FIELD_SETUP_FEATURE Force Field Setup information
v1.0  0 0.000000 0.000000 0.000000 0.000000 0.000000 0.000000 NONE 0 0 0 0 0 0 0 0 0 0 0 0 0
