#	Name:			02
#	Creating user name:	jeff
#	Creation time:		Fri Dec 13 10:06:48 2002

#	Modifying user name:	jeff
#	Modification time:	Fri Dec 13 10:06:52 2002

@<TRIPOS>MOLECULE
02
   73    75     4     1     1
SMALL
USER_CHARGES


@<TRIPOS>ATOM
      1 ****        3.896732   -8.783229   14.011085 H         1 TOS1        0.179000 
      2 ****        4.011451   -6.671497   15.207879 H         1 TOS1        0.186600 
      3 ****        8.235978   -6.468287   14.385058 H         1 TOS1        0.177200 
      4 ****        8.091504   -8.621756   13.215754 H         1 TOS1        0.168200 
      5 C5          4.867410   -4.427099   16.124247 C.3       1 TOS1       -0.348300 
      6 C6          6.734783   -3.852493   14.585494 C.3       1 TOS1       -0.327500 
      7 C7          7.229225   -5.014056   16.783237 C.3       1 TOS1       -0.402000 
      8 ****        6.779698   -9.273781   10.421486 H         2 APM2        0.147600 
      9 ****        5.236407  -10.446414    8.671923 H         2 APM2        0.179100 
     10 ****        6.168105   -9.060844    8.099916 H         2 APM2        0.144400 
     11 ****        2.786891  -10.307919    8.567921 H         2 APM2        0.209200 
     12 ****        5.111003   -6.811970    7.751271 H         2 APM2        0.188800 
     13 ****        3.104190   -5.686156    6.888624 H         2 APM2        0.203900 
     14 ****        0.903044   -6.752138    7.036318 H         2 APM2        0.167000 
     15 ****        4.034500  -10.056766   11.044905 H         2 APM2        0.350400 
     16 ****       -1.604894   -9.438189    7.027223 H         2 APM2        0.570100 
     17 ****       -0.595822   -8.145458    6.396087 H         2 APM2        0.553800 
     18 ****        0.806531  -10.799969    9.140893 H         2 APM2        0.535100 
     19 ****       -0.810220  -10.943169    8.458308 H         2 APM2        0.570600 
     20 ****        7.620326   -6.269104    8.434100 H         3 PIP3        0.165000 
     21 ****        7.875171   -7.840362    9.205260 H         3 PIP3        0.092100 
     22 ****        9.707117   -6.209539    9.719142 H         3 PIP3        0.113400 
     23 ****        8.878604   -6.754330   11.204782 H         3 PIP3        0.108700 
     24 ****       10.890016   -3.787684   10.976441 C.3       4 SULFONYL   -0.750700 
     25 S1          9.324634   -3.529710   10.118157 S.o2      4 SULFONYL    2.309400 
     26 ****        6.903971   -3.540176   11.489492 H         3 PIP3        0.131300 
     27 ****        7.056666   -5.192773   12.169226 H         3 PIP3        0.104100 
     28 ****        4.986771   -5.008543   10.831952 H         3 PIP3        0.131400 
     29 ****        5.935267   -4.571377    9.391075 H         3 PIP3        0.135200 
     30 S           5.780867  -10.391707   12.647679 S.o2      1 TOS1        2.180000 
     31 O1          7.092623  -10.938964   12.321036 O.2       1 TOS1       -0.912800 
     32 O2          4.856339  -11.226273   13.408319 O.2       1 TOS1       -0.942300 
     33 C1          5.978484   -8.850484   13.523891 C.ar      1 TOS1       -0.447100 
     34 C2          4.848929   -8.271108   14.095843 C.ar      1 TOS1       -0.027500 
     35 C3          4.927515   -7.048213   14.768429 C.ar      1 TOS1       -0.228600 
     36 C4          6.135007   -6.339873   14.875298 C.ar      1 TOS1        0.073100 
     37 C5          7.268770   -6.949205   14.311508 C.ar      1 TOS1       -0.166700 
     38 C6          7.200039   -8.182105   13.643084 C.ar      1 TOS1       -0.093000 
     39 C7          6.237754   -4.943516   15.581258 C.3       1 TOS1        0.437000 
     40 C           5.497993   -7.540704   10.502484 C.2       2 APM2        0.658800 
     41 CA          5.727492   -9.018999   10.239869 C.3       2 APM2        0.202700 
     42 CB          5.341215   -9.355671    8.762639 C.3       2 APM2       -0.482300 
     43 CG          4.065837   -8.640450    8.252059 C.ar      2 APM2        0.216700 
     44 CD1         2.817190   -9.280398    8.231758 C.ar      2 APM2       -0.165500 
     45 CD2         4.160764   -7.331325    7.769679 C.ar      2 APM2       -0.062300 
     46 CE1         1.644015   -8.649849    7.784015 C.ar      2 APM2       -0.336800 
     47 CE2         3.012607   -6.687808    7.296226 C.ar      2 APM2       -0.170000 
     48 CZ          1.768528   -7.325861    7.347669 C.ar      2 APM2       -0.073400 
     49 CF          0.300596   -9.373604    7.766718 C.cat     2 APM2        1.087400 
     50 O           4.477076   -7.292721   11.128736 O.2       2 APM2       -0.625400 
     51 N           5.005572   -9.844362   11.215875 N.am      2 APM2       -0.868300 
     52 NG1        -0.691807   -8.956840    7.015844 N.pl3     2 APM2       -1.039600 
     53 NG2         0.090017  -10.438444    8.501768 N.pl3     2 APM2       -0.988300 
     54 N1          6.336341   -6.536094   10.074678 N.am      3 PIP3       -0.496200 
     55 C2          7.625149   -6.791758    9.405829 C.3       3 PIP3       -0.046400 
     56 C3          8.759726   -6.175587   10.271783 C.3       3 PIP3        0.103300 
     57 N4          8.370646   -4.806537   10.594087 N.am      3 PIP3       -1.068800 
     58 C5          7.081912   -4.593399   11.245735 C.3       3 PIP3        0.199500 
     59 C6          5.961199   -5.144996   10.335758 C.3       3 PIP3       -0.097900 
     60 O           8.768196   -2.285907   10.614443 O.2       4 SULFONYL   -0.925300 
     61 O           9.557612   -3.654331    8.692475 O.2       4 SULFONYL   -0.971500 
     62 ****       10.735728   -3.744985   12.062872 H         4 SULFONYL    0.243500 
     63 ****       11.569930   -2.977421   10.679656 H         4 SULFONYL    0.249700 
     64 ****       11.348909   -4.747758   10.710675 H         4 SULFONYL    0.239400 
     65 ****        4.984172   -3.429477   16.579712 H         1 TOS1        0.104300 
     66 ****        4.464441   -5.096205   16.896118 H         1 TOS1        0.081000 
     67 ****        4.131401   -4.329284   15.313903 H         1 TOS1        0.080300 
     68 ****        7.728875   -4.081357   14.178422 H         1 TOS1        0.064200 
     69 ****        6.804834   -2.867476   15.068475 H         1 TOS1        0.105900 
     70 ****        6.014566   -3.761266   13.761321 H         1 TOS1        0.043100 
     71 ****        6.894756   -5.772578   17.505417 H         1 TOS1        0.090900 
     72 ****        7.280392   -4.045260   17.302780 H         1 TOS1        0.123400 
     73 ****        8.249402   -5.268316   16.462978 H         1 TOS1        0.080900 
@<TRIPOS>BOND
     1   34    1 1    
     2   35    2 1    
     3   37    3 1    
     4   38    4 1    
     5   39    5 1    
     6   39    6 1    
     7   39    7 1    
     8   41    8 1    
     9   42    9 1    
    10   42   10 1    
    11   44   11 1    
    12   45   12 1    
    13   47   13 1    
    14   48   14 1    
    15   51   15 1    
    16   52   16 1    
    17   52   17 1    
    18   53   18 1    
    19   53   19 1    
    20   55   20 1    
    21   55   21 1    
    22   56   22 1    
    23   56   23 1    
    24   57   25 1    
    25   25   60 2    
    26   58   26 1    
    27   58   27 1    
    28   59   28 1    
    29   59   29 1    
    30   33   30 1    
    31   30   32 2    
    32   30   31 2    
    33   33   38 ar   
    34   34   33 ar   
    35   35   34 ar   
    36   36   35 ar   
    37   36   39 1    
    38   36   37 ar   
    39   37   38 ar   
    40   40   50 2    
    41   41   40 1    
    42   41   51 1    
    43   42   41 1    
    44   43   42 1    
    45   43   45 ar   
    46   44   43 ar   
    47   46   44 ar   
    48   49   46 1    
    49   46   48 ar   
    50   48   47 ar   
    51   47   45 ar   
    52   49   53 ar   
    53   49   52 ar   
    54   54   59 1    
    55   55   54 1    
    56   56   55 1    
    57   57   56 1    
    58   57   58 1    
    59   58   59 1    
    60   40   54 am   
    61   51   30 1    
    62   25   61 2    
    63   25   24 1    
    64   24   62 1    
    65   24   63 1    
    66   24   64 1    
    67    5   65 1    
    68    5   66 1    
    69    5   67 1    
    70    6   68 1    
    71    6   69 1    
    72    6   70 1    
    73    7   71 1    
    74    7   72 1    
    75    7   73 1    
@<TRIPOS>SUBSTRUCTURE
     1 TOS1       30 GROUP             0 I     ****    1  
     2 APM2       40 GROUP             0 I     ****    2 ROOT 
     3 PIP3       54 GROUP             0 I     ****    2  
     4 SULFONYL    25 PERM              0 ****  ****    1  
@<TRIPOS>SET
UNK_ATOMS       STATIC     ATOMS    AMSOM    **** 
30 30 31 32 33 34 35 36 37 38 39 40 41 42 43 44 45 46 47 48 \
 49 50 51 52 53 54 55 56 57 58 59
@<TRIPOS>NORMAL
@<TRIPOS>FF_PBC
FORCE_FIELD_SETUP_FEATURE Force Field Setup information
v1.0  0 0.000000 0.000000 0.000000 0.000000 0.000000 0.000000 NONE 0 0 0 0 0 0 0 0 0 0 0 0 0
