#	Name:			03
#	Creating user name:	jeff
#	Creation time:		Fri Dec 13 10:06:52 2002

#	Modifying user name:	jeff
#	Modification time:	Fri Dec 13 10:06:56 2002

@<TRIPOS>MOLECULE
03
   71    73     3     1     1
SMALL
USER_CHARGES


@<TRIPOS>ATOM
      1 ****        3.884063   -8.767866   14.018669 H         1 TOS1        0.177900 
      2 ****        4.005465   -6.668571   15.204018 H         1 TOS1        0.190300 
      3 ****        8.236446   -6.459367   14.376786 H         1 TOS1        0.180100 
      4 ****        8.088414   -8.608957   13.214816 H         1 TOS1        0.174100 
      5 C5          4.864640   -4.436661   16.129986 C.3       1 TOS1       -0.327700 
      6 C6          6.734075   -3.858461   14.584734 C.3       1 TOS1       -0.287600 
      7 C7          7.225386   -5.025371   16.778481 C.3       1 TOS1       -0.404900 
      8 ****        6.766975   -9.294149   10.408482 H         2 APM2        0.156800 
      9 ****        5.220463  -10.463329    8.673804 H         2 APM2        0.174000 
     10 ****        6.140109   -9.086028    8.082998 H         2 APM2        0.140000 
     11 ****        2.792062  -10.327461    8.563348 H         2 APM2        0.208500 
     12 ****        5.100936   -6.827443    7.741910 H         2 APM2        0.181300 
     13 ****        3.086069   -5.683256    6.905136 H         2 APM2        0.202800 
     14 ****        0.896879   -6.751809    7.053933 H         2 APM2        0.168300 
     15 ****        4.035122  -10.053790   11.049068 H         2 APM2        0.346500 
     16 ****       -1.598793   -9.423174    7.014179 H         2 APM2        0.566300 
     17 ****       -0.564293   -8.135106    6.393499 H         2 APM2        0.554200 
     18 ****        0.821272  -10.798563    9.145506 H         2 APM2        0.535900 
     19 ****       -0.801241  -10.944736    8.480955 H         2 APM2        0.570300 
     20 ****        7.566748   -6.284481    8.413113 H         3 PIP3        0.116900 
     21 ****        7.833209   -7.850582    9.154530 H         3 PIP3        0.097600 
     22 ****        9.684381   -6.339082    9.739205 H         3 PIP3        0.098500 
     23 ****        8.762298   -6.798575   11.198502 H         3 PIP3        0.081300 
     24 ****        8.444653   -4.164918    9.611983 H         3 PIP3        0.069000 
     25 C25         9.555150   -4.143134   11.477332 C.3       3 PIP3       -0.516600 
     26 ****        6.841496   -3.533580   11.457613 H         3 PIP3        0.068800 
     27 ****        7.045524   -5.187262   12.149607 H         3 PIP3        0.061100 
     28 ****        4.959036   -5.033340   10.821844 H         3 PIP3        0.120800 
     29 ****        5.894573   -4.612147    9.370912 H         3 PIP3        0.091900 
     30 S           5.779508  -10.378139   12.658345 S.o2      1 TOS1        2.180100 
     31 O1          7.087508  -10.911854   12.327822 O.2       1 TOS1       -0.915800 
     32 O2          4.846975  -11.210101   13.397224 O.2       1 TOS1       -0.952400 
     33 C1          5.966117   -8.837132   13.528418 C.ar      1 TOS1       -0.444800 
     34 C2          4.836292   -8.256627   14.099946 C.ar      1 TOS1       -0.020200 
     35 C3          4.922604   -7.035416   14.769145 C.ar      1 TOS1       -0.248900 
     36 C4          6.132262   -6.333883   14.875759 C.ar      1 TOS1        0.119200 
     37 C5          7.265622   -6.938532   14.307772 C.ar      1 TOS1       -0.178000 
     38 C6          7.190428   -8.171005   13.642234 C.ar      1 TOS1       -0.101800 
     39 C7          6.234725   -4.947085   15.581200 C.3       1 TOS1        0.385900 
     40 C           5.482802   -7.559049   10.496406 C.2       2 APM2        0.748800 
     41 CA          5.721578   -9.026680   10.229665 C.3       2 APM2        0.165200 
     42 CB          5.330034   -9.375143    8.761698 C.3       2 APM2       -0.457700 
     43 CG          4.064664   -8.655896    8.255848 C.ar      2 APM2        0.196800 
     44 CD1         2.819466   -9.298037    8.235753 C.ar      2 APM2       -0.162500 
     45 CD2         4.152395   -7.346750    7.770618 C.ar      2 APM2       -0.064600 
     46 CE1         1.652905   -8.656269    7.789651 C.ar      2 APM2       -0.322500 
     47 CE2         3.010339   -6.693401    7.303870 C.ar      2 APM2       -0.168300 
     48 CZ          1.766137   -7.328070    7.355110 C.ar      2 APM2       -0.081300 
     49 CF          0.306811   -9.374203    7.770211 C.cat     2 APM2        1.074900 
     50 O           4.469522   -7.320691   11.137731 O.2       2 APM2       -0.648900 
     51 N           5.006019   -9.843885   11.210012 N.am      2 APM2       -0.864400 
     52 NG1        -0.681131   -8.944165    7.017213 N.pl3     2 APM2       -1.035500 
     53 NG2         0.101167  -10.442230    8.506744 N.pl3     2 APM2       -0.977300 
     54 N1          6.307078   -6.560084   10.067009 N.am      3 PIP3       -0.549900 
     55 C2          7.574501   -6.810877    9.376055 C.3       3 PIP3       -0.035100 
     56 C3          8.713337   -6.232152   10.253070 C.3       3 PIP3       -0.180600 
     57 C4          8.449739   -4.733441   10.561721 C.3       3 PIP3        0.142000 
     58 C5          7.051878   -4.593325   11.223352 C.3       3 PIP3       -0.072700 
     59 C6          5.934298   -5.174038   10.322379 C.3       3 PIP3       -0.059800 
     60 ****       10.534891   -4.226955   10.987644 H         3 PIP3        0.136900 
     61 ****        9.594617   -4.679244   12.432804 H         3 PIP3        0.134900 
     62 ****        9.358433   -3.080215   11.677755 H         3 PIP3        0.132400 
     63 ****        4.971492   -3.440394   16.595936 H         1 TOS1        0.100800 
     64 ****        4.468980   -5.115514   16.901672 H         1 TOS1        0.076600 
     65 ****        4.127814   -4.334492   15.316886 H         1 TOS1        0.074600 
     66 ****        7.727716   -4.099566   14.181347 H         1 TOS1        0.056200 
     67 ****        6.811032   -2.874856   15.073617 H         1 TOS1        0.095600 
     68 ****        6.012448   -3.765210   13.760186 H         1 TOS1        0.046200 
     69 ****        6.889266   -5.788292   17.497316 H         1 TOS1        0.091900 
     70 ****        7.279631   -4.057058   17.301632 H         1 TOS1        0.125300 
     71 ****        8.244171   -5.280850   16.451765 H         1 TOS1        0.084200 
@<TRIPOS>BOND
     1   34    1 1    
     2   35    2 1    
     3   37    3 1    
     4   38    4 1    
     5   39    5 1    
     6   39    6 1    
     7   39    7 1    
     8   41    8 1    
     9   42    9 1    
    10   42   10 1    
    11   44   11 1    
    12   45   12 1    
    13   47   13 1    
    14   48   14 1    
    15   51   15 1    
    16   52   16 1    
    17   52   17 1    
    18   53   18 1    
    19   53   19 1    
    20   55   20 1    
    21   55   21 1    
    22   56   22 1    
    23   56   23 1    
    24   57   24 1    
    25   57   25 1    
    26   58   26 1    
    27   58   27 1    
    28   59   28 1    
    29   59   29 1    
    30   33   30 1    
    31   30   32 2    
    32   30   31 2    
    33   33   38 ar   
    34   34   33 ar   
    35   35   34 ar   
    36   36   35 ar   
    37   36   39 1    
    38   36   37 ar   
    39   37   38 ar   
    40   40   50 2    
    41   41   40 1    
    42   41   51 1    
    43   42   41 1    
    44   43   42 1    
    45   43   45 ar   
    46   44   43 ar   
    47   46   44 ar   
    48   49   46 1    
    49   46   48 ar   
    50   48   47 ar   
    51   47   45 ar   
    52   49   53 ar   
    53   49   52 ar   
    54   54   59 1    
    55   55   54 1    
    56   56   55 1    
    57   57   56 1    
    58   57   58 1    
    59   58   59 1    
    60   40   54 am   
    61   51   30 1    
    62   25   60 1    
    63   25   61 1    
    64   25   62 1    
    65    5   63 1    
    66    5   64 1    
    67    5   65 1    
    68    6   66 1    
    69    6   67 1    
    70    6   68 1    
    71    7   69 1    
    72    7   70 1    
    73    7   71 1    
@<TRIPOS>SUBSTRUCTURE
     1 TOS1       30 GROUP             0 I     ****    1  
     2 APM2       40 GROUP             0 I     ****    2 ROOT 
     3 PIP3       54 GROUP             0 I     ****    1  
@<TRIPOS>SET
UNK_ATOMS       STATIC     ATOMS    AMSOM    **** 
30 30 31 32 33 34 35 36 37 38 39 40 41 42 43 44 45 46 47 48 \
 49 50 51 52 53 54 55 56 57 58 59
@<TRIPOS>NORMAL
@<TRIPOS>FF_PBC
FORCE_FIELD_SETUP_FEATURE Force Field Setup information
v1.0  0 0.000000 0.000000 0.000000 0.000000 0.000000 0.000000 NONE 0 0 0 0 0 0 0 0 0 0 0 0 0
