#	Name:			04
#	Creating user name:	jeff
#	Creation time:		Fri Dec 13 10:06:56 2002

#	Modifying user name:	jeff
#	Modification time:	Fri Dec 13 10:07:00 2002

@<TRIPOS>MOLECULE
04
   65    68     4     1     2
SMALL
USER_CHARGES


@<TRIPOS>ATOM
      1 C1          3.900464   -6.366576   15.306074 C.ar      4 NAPHTHALENE   -0.234700 
      2 C2          4.065056   -5.149469   15.972478 C.ar      4 NAPHTHALENE   -0.138000 
      3 C3          5.333517   -4.568097   16.056952 C.ar      4 NAPHTHALENE   -0.048600 
      4 C4          6.434107   -5.203438   15.474211 C.ar      4 NAPHTHALENE   -0.330000 
      5 ****        6.774935   -9.307479   10.393492 H         2 APM2        0.122400 
      6 ****        5.236784  -10.488485    8.666846 H         2 APM2        0.180800 
      7 ****        6.154779   -9.107991    8.056416 H         2 APM2        0.142900 
      8 ****        2.796676  -10.379456    8.518661 H         2 APM2        0.209900 
      9 ****        5.106924   -6.855908    7.747041 H         2 APM2        0.177100 
     10 ****        3.073290   -5.677636    6.996481 H         2 APM2        0.199100 
     11 ****        0.880101   -6.756939    7.167719 H         2 APM2        0.165600 
     12 ****        3.986802   -9.951036   11.008706 H         2 APM2        0.387600 
     13 ****       -1.583983   -9.372191    7.046402 H         2 APM2        0.572300 
     14 ****       -0.535566   -8.068818    6.480741 H         2 APM2        0.552800 
     15 ****        0.881381  -10.849806    9.092753 H         2 APM2        0.538100 
     16 ****       -0.768122  -10.971199    8.472971 H         2 APM2        0.573900 
     17 ****        7.553362   -6.223069    8.438679 H         3 PIP3        0.117100 
     18 ****        7.826644   -7.815149    9.144621 H         3 PIP3        0.102100 
     19 ****        9.671544   -6.313076    9.780406 H         3 PIP3        0.079200 
     20 ****        8.731898   -6.788690   11.227275 H         3 PIP3        0.050900 
     21 ****        8.426653   -4.143881    9.664407 H         3 PIP3        0.059600 
     22 C23         9.548177   -4.133036   11.516701 C.3       3 PIP3       -0.472000 
     23 ****        6.825052   -3.490525   11.475050 H         3 PIP3        0.067200 
     24 ****        7.038578   -5.083032   12.256942 H         3 PIP3        0.064800 
     25 ****        4.959058   -5.045153   10.899610 H         3 PIP3        0.131600 
     26 ****        5.871012   -4.605520    9.444728 H         3 PIP3        0.102500 
     27 S           5.706012  -10.419117   12.629956 S.o2      1 TOS1        2.265900 
     28 O1          6.996467  -11.000739   12.311196 O.2       1 TOS1       -0.928700 
     29 O2          4.739399  -11.217765   13.359444 O.2       1 TOS1       -0.954800 
     30 C5          7.370449   -7.062540   14.222887 C.ar      4 NAPHTHALENE   -0.279000 
     31 C6          7.203262   -8.278513   13.555250 C.ar      4 NAPHTHALENE   -0.097800 
     32 C7          5.941727   -8.875222   13.477884 C.ar      4 NAPHTHALENE   -0.458500 
     33 C8          4.844195   -8.228247   14.051847 C.ar      4 NAPHTHALENE   -0.189500 
     34 C9          5.001876   -7.009066   14.722382 C.ar      4 NAPHTHALENE    0.146500 
     35 C10         6.270555   -6.421765   14.806892 C.ar      4 NAPHTHALENE    0.232700 
     36 H1          2.909394   -6.806555   15.248583 H         4 NAPHTHALENE    0.188900 
     37 C           5.491898   -7.564231   10.503176 C.2       2 APM2        0.689500 
     38 CA          5.725982   -9.033107   10.211464 C.3       2 APM2        0.273200 
     39 CB          5.345559   -9.395350    8.744620 C.3       2 APM2       -0.479200 
     40 CG          4.070990   -8.685300    8.247755 C.ar      2 APM2        0.197700 
     41 CD1         2.832302   -9.337701    8.224713 C.ar      2 APM2       -0.158000 
     42 CD2         4.152264   -7.367086    7.787408 C.ar      2 APM2       -0.054700 
     43 CE1         1.663301   -8.674528    7.817017 C.ar      2 APM2       -0.348600 
     44 CE2         3.002285   -6.695369    7.368260 C.ar      2 APM2       -0.165400 
     45 CZ          1.761770   -7.332884    7.426901 C.ar      2 APM2       -0.063900 
     46 CF          0.319075   -9.384036    7.789576 C.cat     2 APM2        1.094300 
     47 O           4.477456   -7.335243   11.142578 O.2       2 APM2       -0.648400 
     48 N           4.966548   -9.830375   11.166247 N.am      2 APM2       -0.982100 
     49 NG1        -0.663138   -8.908357    7.061926 N.pl3     2 APM2       -1.040500 
     50 NG2         0.134677  -10.473539    8.493536 N.pl3     2 APM2       -0.995000 
     51 N1          6.309474   -6.547607   10.096215 N.am      3 PIP3       -0.482100 
     52 C2          7.574479   -6.777244    9.390841 C.3       3 PIP3       -0.093500 
     53 C3          8.699007   -6.207435   10.290654 C.3       3 PIP3       -0.099400 
     54 C4          8.428249   -4.711709   10.611591 C.3       3 PIP3        0.139000 
     55 C5          7.038894   -4.556690   11.289166 C.3       3 PIP3       -0.071100 
     56 C6          5.930923   -5.163020   10.393448 C.3       3 PIP3       -0.109300 
     57 ****       10.525957   -4.230536   11.019531 H         3 PIP3        0.125500 
     58 ****        9.585888   -4.668399   12.478305 H         3 PIP3        0.118700 
     59 ****        9.361913   -3.065812   11.713709 H         3 PIP3        0.120400 
     60 H2          3.211582   -4.655850   16.427187 H         4 NAPHTHALENE    0.168300 
     61 H3          5.464954   -3.622519   16.576416 H         4 NAPHTHALENE    0.163800 
     62 H4          7.413248   -4.740559   15.545647 H         4 NAPHTHALENE    0.200200 
     63 H5          8.360510   -6.619183   14.278531 H         4 NAPHTHALENE    0.208000 
     64 H6          8.061850   -8.755291   13.097908 H         4 NAPHTHALENE    0.191500 
     65 H8          3.862281   -8.683987   13.971655 H         4 NAPHTHALENE    0.223100 
@<TRIPOS>BOND
     1   27   32 1    
     2   30   31 ar   
     3   30   35 ar   
     4   30   63 1    
     5   35    4 ar   
     6   35   34 ar   
     7   34    1 ar   
     8   38    5 1    
     9   39    6 1    
    10   39    7 1    
    11   41    8 1    
    12   42    9 1    
    13   44   10 1    
    14   45   11 1    
    15   48   12 1    
    16   49   13 1    
    17   49   14 1    
    18   50   15 1    
    19   50   16 1    
    20   52   17 1    
    21   52   18 1    
    22   53   19 1    
    23   53   20 1    
    24   54   21 1    
    25   54   22 1    
    26   55   23 1    
    27   55   24 1    
    28   56   25 1    
    29   56   26 1    
    30   34   33 ar   
    31   27   29 2    
    32   27   28 2    
    33   33   32 ar   
    34   33   65 1    
    35   32   31 ar   
    36   31   64 1    
    37    1    2 ar   
    38    1   36 1    
    39   37   47 2    
    40   38   37 1    
    41   38   48 1    
    42   39   38 1    
    43   40   39 1    
    44   40   42 ar   
    45   41   40 ar   
    46   43   41 ar   
    47   46   43 1    
    48   43   45 ar   
    49   45   44 ar   
    50   44   42 ar   
    51   46   50 ar   
    52   46   49 ar   
    53   51   56 1    
    54   52   51 1    
    55   53   52 1    
    56   54   53 1    
    57   54   55 1    
    58   55   56 1    
    59   37   51 am   
    60   48   27 1    
    61   22   57 1    
    62   22   58 1    
    63   22   59 1    
    64    2    3 ar   
    65    2   60 1    
    66    3    4 ar   
    67    3   61 1    
    68    4   62 1    
@<TRIPOS>SUBSTRUCTURE
     1 TOS1       27 GROUP             0 I     ****    2  
     2 APM2       37 GROUP             0 I     ****    2 ROOT 
     3 PIP3       51 GROUP             0 I     ****    1  
     4 NAPHTHALENE    30 PERM              0 ****  ****    1  
@<TRIPOS>SET
UNK_ATOMS       STATIC     ATOMS    AMSOM    **** 
30 27 28 29 0 0 0 0 0 0 0 37 38 39 40 41 42 43 44 45 \
 46 47 48 49 50 51 52 53 54 55 56
LAB$B_TYPE      STATIC     BONDS    LABELGROUP SYSTEM 
0
@<TRIPOS>NORMAL
@<TRIPOS>FF_PBC
FORCE_FIELD_SETUP_FEATURE Force Field Setup information
v1.0  0 0.000000 0.000000 0.000000 0.000000 0.000000 0.000000 NONE 0 0 0 0 0 0 0 0 0 0 0 0 0
