#	Name:			05
#	Creating user name:	jeff
#	Creation time:		Fri Dec 13 10:07:00 2002

#	Modifying user name:	jeff
#	Modification time:	Fri Dec 13 10:07:04 2002

@<TRIPOS>MOLECULE
05
   75    78     5     1     2
SMALL
USER_CHARGES


@<TRIPOS>ATOM
      1 C1          3.939073   -6.480038   15.559804 C.3       4 NAPHTHALENE   -0.109200 
      2 C2          4.227138   -4.990009   15.864151 C.3       4 NAPHTHALENE   -0.267000 
      3 C3          5.680862   -4.792473   16.370775 C.3       4 NAPHTHALENE    0.615200 
      4 ****        6.787060   -9.303345   10.390124 H         2 APM2        0.109800 
      5 ****        5.258133  -10.484473    8.656937 H         2 APM2        0.205900 
      6 ****        6.174612   -9.101060    8.046860 H         2 APM2        0.171800 
      7 ****        2.840382  -10.377741    8.502375 H         2 APM2        0.208000 
      8 ****        5.112139   -6.853503    7.749332 H         2 APM2        0.190700 
      9 ****        3.069751   -5.667014    7.038495 H         2 APM2        0.206600 
     10 ****        0.904285   -6.732638    7.219172 H         2 APM2        0.162100 
     11 ****        3.976024   -9.914736   10.983830 H         2 APM2        0.402300 
     12 ****       -1.577098   -9.365233    7.065466 H         2 APM2        0.570100 
     13 ****       -0.557841   -8.082082    6.495294 H         2 APM2        0.554000 
     14 ****        0.864562  -10.879105    9.091898 H         2 APM2        0.541800 
     15 ****       -0.755022  -10.983096    8.468729 H         2 APM2        0.572100 
     16 ****        7.589942   -6.193951    8.465495 H         3 PIP3        0.156400 
     17 ****        7.864015   -7.790033    9.163562 H         3 PIP3        0.098100 
     18 ****        9.687296   -6.195553    9.757004 H         3 PIP3        0.126700 
     19 ****        8.834223   -6.756869   11.217556 H         3 PIP3        0.113700 
     20 S1          9.380611   -3.511213   10.236125 S.o2      5 SULFONYL    2.296700 
     21 O           8.799063   -2.259804   10.665678 O.2       5 SULFONYL   -0.923800 
     22 ****        6.860502   -3.473677   11.469919 H         3 PIP3        0.144100 
     23 ****        7.062628   -5.033834   12.296001 H         3 PIP3        0.102400 
     24 ****        4.987240   -5.038869   10.926209 H         3 PIP3        0.142700 
     25 ****        5.908946   -4.584562    9.481361 H         3 PIP3        0.119300 
     26 S           5.689166  -10.471535   12.593504 S.o2      1 TOS1        2.293300 
     27 O1          6.961946  -11.081182   12.257433 O.2       1 TOS1       -0.930000 
     28 O2          4.692939  -11.241140   13.313186 O.2       1 TOS1       -0.947700 
     29 O4          6.586230   -5.256913   15.359113 O.3       4 NAPHTHALENE   -0.521700 
     30 C5          7.429457   -7.125778   14.103758 C.ar      4 NAPHTHALENE   -0.378300 
     31 C6          7.233580   -8.336055   13.441021 C.ar      4 NAPHTHALENE    0.003500 
     32 C7          5.973139   -8.949250   13.462219 C.ar      4 NAPHTHALENE   -0.577000 
     33 C8          4.920531   -8.336194   14.140384 C.ar      4 NAPHTHALENE   -0.095700 
     34 C9          5.113409   -7.119614   14.803449 C.ar      4 NAPHTHALENE   -0.099700 
     35 C10         6.365864   -6.502650   14.767236 C.ar      4 NAPHTHALENE    0.491900 
     36 C           5.517197   -7.555654   10.498479 C.2       2 APM2        0.459900 
     37 CA          5.742743   -9.020483   10.196743 C.3       2 APM2        0.395800 
     38 CB          5.364365   -9.390577    8.732596 C.3       2 APM2       -0.602700 
     39 CG          4.082987   -8.685922    8.247114 C.ar      2 APM2        0.247400 
     40 CD1         2.846129   -9.339006    8.222211 C.ar      2 APM2       -0.155300 
     41 CD2         4.156896   -7.365222    7.794875 C.ar      2 APM2       -0.060500 
     42 CE1         1.672756   -8.677406    7.829154 C.ar      2 APM2       -0.374500 
     43 CE2         3.004204   -6.690271    7.394290 C.ar      2 APM2       -0.183000 
     44 CZ          1.767706   -7.330575    7.456165 C.ar      2 APM2       -0.048600 
     45 CF          0.329025   -9.387008    7.800572 C.cat     2 APM2        1.110300 
     46 O           4.494977   -7.328694   11.128116 O.2       2 APM2       -0.597100 
     47 N           4.959065   -9.817191   11.131900 N.am      2 APM2       -1.015000 
     48 NG1        -0.658965   -8.907381    7.081524 N.pl3     2 APM2       -1.038600 
     49 NG2         0.142819  -10.485865    8.491929 N.pl3     2 APM2       -1.002200 
     50 N1          6.342671   -6.531357   10.113625 N.am      3 PIP3       -0.329000 
     51 C2          7.612817   -6.752867    9.416690 C.3       3 PIP3       -0.090700 
     52 C3          8.732763   -6.157363   10.304483 C.3       3 PIP3        0.078300 
     53 N4          8.351896   -4.795180   10.663373 N.am      3 PIP3       -1.021400 
     54 C5          7.072321   -4.542303   11.316917 C.3       3 PIP3        0.153700 
     55 C6          5.963477   -5.151035   10.427373 C.3       3 PIP3       -0.113600 
     56 O           9.742948   -3.673905    8.847714 O.2       5 SULFONYL   -0.969500 
     57 C57        10.856426   -3.792349   11.236595 C.3       5 SULFONYL   -0.775500 
     58 ****       10.601722   -3.743581   12.307109 H         5 SULFONYL    0.251200 
     59 H5          8.402401   -6.654692   14.107533 H         4 NAPHTHALENE    0.238500 
     60 H6          8.057040   -8.800306   12.908649 H         4 NAPHTHALENE    0.192100 
     61 H8          3.944819   -8.813608   14.149108 H         4 NAPHTHALENE    0.209900 
     62 ****        3.788661   -7.045340   16.490038 H         4 NAPHTHALENE    0.077400 
     63 ****        3.020183   -6.559760   14.959501 H         4 NAPHTHALENE    0.089000 
     64 ****        4.107740   -4.414406   14.932901 H         4 NAPHTHALENE    0.081900 
     65 ****        3.502961   -4.616733   16.605116 H         4 NAPHTHALENE    0.110900 
     66 C18         5.980578   -3.279250   16.552633 C.3       4 NAPHTHALENE   -0.424200 
     67 C19         5.948017   -5.536098   17.708405 C.3       4 NAPHTHALENE   -0.368400 
     68 ****        5.316359   -2.834188   17.309608 H         4 NAPHTHALENE    0.119700 
     69 ****        5.834715   -2.751038   15.598570 H         4 NAPHTHALENE    0.087100 
     70 ****        7.024964   -3.136774   16.866823 H         4 NAPHTHALENE    0.135200 
     71 ****        5.245133   -5.191589   18.483898 H         4 NAPHTHALENE    0.111800 
     72 ****        6.974123   -5.333172   18.047747 H         4 NAPHTHALENE    0.104900 
     73 ****        5.846070   -6.622299   17.588860 H         4 NAPHTHALENE    0.087600 
     74 ****       11.581040   -2.998379   11.002597 H         5 SULFONYL    0.257200 
     75 ****       11.312793   -4.768619   11.010118 H         5 SULFONYL    0.242900 
@<TRIPOS>BOND
     1   26   32 1    
     2   30   31 ar   
     3   30   35 ar   
     4   30   59 1    
     5   35   29 1    
     6   35   34 ar   
     7   34    1 1    
     8   37    4 1    
     9   38    5 1    
    10   38    6 1    
    11   40    7 1    
    12   41    8 1    
    13   43    9 1    
    14   44   10 1    
    15   47   11 1    
    16   48   12 1    
    17   48   13 1    
    18   49   14 1    
    19   49   15 1    
    20   51   16 1    
    21   51   17 1    
    22   52   18 1    
    23   52   19 1    
    24   20   21 2    
    25   20   56 2    
    26   54   22 1    
    27   54   23 1    
    28   55   24 1    
    29   55   25 1    
    30   34   33 ar   
    31   26   28 2    
    32   26   27 2    
    33   33   61 1    
    34   33   32 ar   
    35   32   31 ar   
    36   31   60 1    
    37    1   63 1    
    38   36   46 2    
    39   37   36 1    
    40   37   47 1    
    41   38   37 1    
    42   39   38 1    
    43   39   41 ar   
    44   40   39 ar   
    45   42   40 ar   
    46   45   42 1    
    47   42   44 ar   
    48   44   43 ar   
    49   43   41 ar   
    50   45   49 ar   
    51   45   48 ar   
    52   50   55 1    
    53   51   50 1    
    54   52   51 1    
    55   53   52 1    
    56   53   54 1    
    57   54   55 1    
    58   36   50 am   
    59   47   26 1    
    60   53   20 1    
    61   20   57 1    
    62   57   58 1    
    63    1   62 1    
    64    1    2 1    
    65    2    3 1    
    66    2   65 1    
    67    2   64 1    
    68    3   67 1    
    69    3   66 1    
    70    3   29 1    
    71   66   70 1    
    72   66   69 1    
    73   66   68 1    
    74   67   73 1    
    75   67   72 1    
    76   67   71 1    
    77   57   74 1    
    78   57   75 1    
@<TRIPOS>SUBSTRUCTURE
     1 TOS1       26 GROUP             0 I     ****    2  
     2 APM2       36 GROUP             0 I     ****    2 ROOT 
     3 PIP3       50 GROUP             0 I     ****    2  
     4 NAPHTHALENE    30 PERM              0 ****  ****    1  
     5 SULFONYL    20 PERM              0 ****  ****    1  
@<TRIPOS>SET
UNK_ATOMS       STATIC     ATOMS    AMSOM    **** 
30 26 27 28 0 0 0 0 0 0 0 36 37 38 39 40 41 42 43 44 \
 45 46 47 48 49 50 51 52 53 54 55
LAB$B_TYPE      STATIC     BONDS    LABELGROUP SYSTEM 
0
@<TRIPOS>NORMAL
@<TRIPOS>FF_PBC
FORCE_FIELD_SETUP_FEATURE Force Field Setup information
v1.0  0 0.000000 0.000000 0.000000 0.000000 0.000000 0.000000 NONE 0 0 0 0 0 0 0 0 0 0 0 0 0
