#	Name:			06
#	Creating user name:	jeff
#	Creation time:		Fri Dec 13 10:07:04 2002

#	Modifying user name:	jeff
#	Modification time:	Fri Dec 13 10:07:08 2002

@<TRIPOS>MOLECULE
06
   71    74     5     1     2
SMALL
USER_CHARGES


@<TRIPOS>ATOM
      1 C1          3.994880   -6.233324   15.175159 C.ar      4 NAPHTHALENE   -0.237600 
      2 C2          4.256831   -5.005078   15.788330 C.ar      4 NAPHTHALENE   -0.132200 
      3 C3          5.553464   -4.485724   15.781497 C.ar      4 NAPHTHALENE   -0.043400 
      4 C4          6.586125   -5.196433   15.163206 C.ar      4 NAPHTHALENE   -0.336800 
      5 ****        6.780159   -9.368161   10.394790 H         2 APM2        0.125300 
      6 ****        5.436545  -10.400598    8.481170 H         2 APM2        0.189300 
      7 ****        6.294836   -8.933854    7.993418 H         2 APM2        0.125800 
      8 ****        3.018210  -10.419472    8.308081 H         2 APM2        0.202600 
      9 ****        5.122740   -6.740316    7.737887 H         2 APM2        0.185900 
     10 ****        2.997517   -5.621398    7.156638 H         2 APM2        0.202300 
     11 ****        0.868500   -6.771312    7.431634 H         2 APM2        0.164300 
     12 ****        3.903809   -9.855166   10.745186 H         2 APM2        0.387100 
     13 ****       -1.542405   -9.603688    7.337696 H         2 APM2        0.572000 
     14 ****       -0.611381   -8.262285    6.678254 H         2 APM2        0.556400 
     15 ****        1.061290  -10.942199    9.230228 H         2 APM2        0.541600 
     16 ****       -0.599054  -11.121901    8.671994 H         2 APM2        0.571100 
     17 ****        7.717569   -6.343653    8.450007 H         3 PIP3        0.079400 
     18 ****        7.992441   -7.885515    9.269877 H         3 PIP3        0.086300 
     19 ****        9.845410   -6.418721    9.933687 H         3 PIP3        0.106000 
     20 ****        8.798017   -6.739828   11.286125 H         3 PIP3        0.057800 
     21 C           9.476471   -3.820361   10.514589 C.2       5 CO          0.931200 
     22 O           9.333871   -2.856379   11.252004 O.2       5 CO         -0.668300 
     23 ****        7.018573   -3.420745   11.266382 H         3 PIP3        0.100800 
     24 ****        7.235048   -4.897919   12.242346 H         3 PIP3        0.007300 
     25 ****        5.158090   -5.029297   10.926917 H         3 PIP3        0.121000 
     26 ****        6.024231   -4.645425    9.426139 H         3 PIP3        0.071400 
     27 S           5.441336  -10.444682   12.539358 S.o2      1 TOS1        2.260800 
     28 O1          6.674796  -11.177212   12.326353 O.2       1 TOS1       -0.922200 
     29 O2          4.331354  -11.084926   13.218155 O.2       1 TOS1       -0.946900 
     30 C5          7.360168   -7.150339   13.939288 C.ar      4 NAPHTHALENE   -0.319700 
     31 C6          7.096369   -8.377488   13.325162 C.ar      4 NAPHTHALENE   -0.068500 
     32 C7          5.801441   -8.901321   13.338161 C.ar      4 NAPHTHALENE   -0.482700 
     33 C8          4.769646   -8.181187   13.945652 C.ar      4 NAPHTHALENE   -0.167400 
     34 C9          5.027009   -6.949667   14.557930 C.ar      4 NAPHTHALENE    0.137900 
     35 C10         6.329265   -6.430090   14.553701 C.ar      4 NAPHTHALENE    0.257500 
     36 H1          2.981607   -6.623571   15.184465 H         4 NAPHTHALENE    0.186400 
     37 C           5.583433   -7.552587   10.452906 C.2       2 APM2        0.612400 
     38 CA          5.771107   -9.022678   10.132861 C.3       2 APM2        0.285700 
     39 CB          5.481127   -9.310568    8.630142 C.3       2 APM2       -0.484800 
     40 CG          4.171346   -8.636765    8.178527 C.ar      2 APM2        0.212000 
     41 CD1         2.963840   -9.350519    8.143006 C.ar      2 APM2       -0.148500 
     42 CD2         4.188737   -7.293341    7.795180 C.ar      2 APM2       -0.070500 
     43 CE1         1.731530   -8.722375    7.891501 C.ar      2 APM2       -0.361400 
     44 CE2         2.986117   -6.659938    7.482338 C.ar      2 APM2       -0.170900 
     45 CZ          1.772598   -7.347695    7.587174 C.ar      2 APM2       -0.060400 
     46 CF          0.411984   -9.494224    7.944710 C.cat     2 APM2        1.113600 
     47 O           4.549516   -7.295572   11.048458 O.2       2 APM2       -0.633500 
     48 N           4.872587   -9.793021   10.985144 N.am      2 APM2       -0.977200 
     49 NG1        -0.645217   -9.092918    7.282042 N.pl3     2 APM2       -1.047700 
     50 NG2         0.286156  -10.588018    8.656495 N.pl3     2 APM2       -0.997400 
     51 N1          6.461745   -6.562839   10.110590 N.am      3 PIP3       -0.492800 
     52 C2          7.734310   -6.833230    9.434822 C.3       3 PIP3        0.077900 
     53 C3          8.841730   -6.213279   10.319497 C.3       3 PIP3        0.020800 
     54 N4          8.533375   -4.808100   10.597058 N.am      3 PIP3       -0.592500 
     55 C5          7.240979   -4.499957   11.216713 C.3       3 PIP3        0.194900 
     56 C6          6.112020   -5.167661   10.392724 C.3       3 PIP3       -0.025000 
     57 N57        10.565815   -3.793087    9.687878 N.am      5 CO         -0.450700 
     58 C58        10.616647   -4.555134    8.438413 C.3       5 CO         -0.103500 
     59 C59        11.617514   -2.816379    9.979950 C.3       5 CO         -0.186600 
     60 H2          3.453886   -4.455330   16.269894 H         4 NAPHTHALENE    0.165200 
     61 H3          5.758212   -3.531209   16.256439 H         4 NAPHTHALENE    0.163900 
     62 H4          7.588479   -4.778906   15.162149 H         4 NAPHTHALENE    0.206400 
     63 H5          8.374388   -6.762471   13.933363 H         4 NAPHTHALENE    0.220500 
     64 H6          7.899138   -8.920646   12.838591 H         4 NAPHTHALENE    0.178200 
     65 H8          3.764447   -8.588962   13.933924 H         4 NAPHTHALENE    0.216900 
     66 ****       10.976963   -3.893730    7.635618 H         5 CO          0.103000 
     67 ****        9.631376   -4.914142    8.112721 H         5 CO          0.088600 
     68 ****       11.329554   -5.390038    8.514660 H         5 CO          0.095500 
     69 ****       11.868435   -2.813723   11.052465 H         5 CO          0.141000 
     70 ****       11.282736   -1.809565    9.686457 H         5 CO          0.106300 
     71 ****       12.539129   -3.052241    9.425789 H         5 CO          0.120700 
@<TRIPOS>BOND
     1   27   32 1    
     2   30   31 ar   
     3   30   35 ar   
     4   30   63 1    
     5   35    4 ar   
     6   35   34 ar   
     7   34    1 ar   
     8   38    5 1    
     9   39    6 1    
    10   39    7 1    
    11   41    8 1    
    12   42    9 1    
    13   44   10 1    
    14   45   11 1    
    15   48   12 1    
    16   49   13 1    
    17   49   14 1    
    18   50   15 1    
    19   50   16 1    
    20   52   17 1    
    21   52   18 1    
    22   53   19 1    
    23   53   20 1    
    24   21   22 2    
    25   54   21 am   
    26   55   23 1    
    27   55   24 1    
    28   56   25 1    
    29   56   26 1    
    30   34   33 ar   
    31   27   29 2    
    32   27   28 2    
    33   33   32 ar   
    34   33   65 1    
    35   32   31 ar   
    36   31   64 1    
    37    1    2 ar   
    38    1   36 1    
    39   37   47 2    
    40   38   37 1    
    41   38   48 1    
    42   39   38 1    
    43   40   39 1    
    44   40   42 ar   
    45   41   40 ar   
    46   43   41 ar   
    47   46   43 1    
    48   43   45 ar   
    49   45   44 ar   
    50   44   42 ar   
    51   46   50 ar   
    52   46   49 ar   
    53   51   56 1    
    54   52   51 1    
    55   53   52 1    
    56   54   53 1    
    57   54   55 1    
    58   55   56 1    
    59   37   51 am   
    60   48   27 1    
    61   21   57 am   
    62   57   58 1    
    63   57   59 1    
    64    2    3 ar   
    65    2   60 1    
    66    3    4 ar   
    67    3   61 1    
    68    4   62 1    
    69   58   66 1    
    70   58   67 1    
    71   58   68 1    
    72   59   69 1    
    73   59   70 1    
    74   59   71 1    
@<TRIPOS>SUBSTRUCTURE
     1 TOS1       27 GROUP             0 I     ****    2  
     2 APM2       37 GROUP             0 I     ****    2 ROOT 
     3 PIP3       51 GROUP             0 I     ****    2  
     4 NAPHTHALENE    30 PERM              0 ****  ****    1  
     5 CO         21 PERM              0 ****  ****    1  
@<TRIPOS>SET
UNK_ATOMS       STATIC     ATOMS    AMSOM    **** 
30 27 28 29 0 0 0 0 0 0 0 37 38 39 40 41 42 43 44 45 \
 46 47 48 49 50 51 52 53 54 55 56
LAB$B_TYPE      STATIC     BONDS    LABELGROUP SYSTEM 
0
@<TRIPOS>NORMAL
@<TRIPOS>FF_PBC
FORCE_FIELD_SETUP_FEATURE Force Field Setup information
v1.0  0 0.000000 0.000000 0.000000 0.000000 0.000000 0.000000 NONE 0 0 0 0 0 0 0 0 0 0 0 0 0
