#	Name:			07
#	Creating user name:	jeff
#	Creation time:		Fri Dec 13 10:07:09 2002

#	Modifying user name:	jeff
#	Modification time:	Fri Dec 13 10:07:13 2002

@<TRIPOS>MOLECULE
07
   74    77     4     1     1
SMALL
USER_CHARGES


@<TRIPOS>ATOM
      1 C1          6.786476   -9.319396   14.923316 C.3       4 CYCLOHEXANE_BOAT    0.225400 
      2 C2          8.155656   -8.602880   15.110394 C.3       4 CYCLOHEXANE_BOAT   -0.130600 
      3 C3          8.428236   -8.725649   16.639963 C.3       4 CYCLOHEXANE_BOAT   -0.323000 
      4 C4          7.178026   -9.504759   17.148361 C.3       4 CYCLOHEXANE_BOAT    0.042100 
      5 C5          7.364963  -10.980659   16.710520 C.3       4 CYCLOHEXANE_BOAT   -0.549300 
      6 C6          7.095064  -10.769010   15.252598 C.2       4 CYCLOHEXANE_BOAT    0.657400 
      7 ****        6.773385   -9.314680   10.380045 H         2 APM2        0.101900 
      8 ****        5.267997  -10.466536    8.625817 H         2 APM2        0.217700 
      9 ****        6.185409   -9.078121    8.034166 H         2 APM2        0.159000 
     10 ****        2.844553  -10.360205    8.477106 H         2 APM2        0.226900 
     11 ****        5.133618   -6.813092    7.763433 H         2 APM2        0.170400 
     12 ****        3.091290   -5.650035    7.015365 H         2 APM2        0.203700 
     13 ****        0.905510   -6.717536    7.214602 H         2 APM2        0.168000 
     14 ****        3.957908   -9.942754   10.957482 H         2 APM2        0.433000 
     15 ****       -1.600709   -9.395644    7.090989 H         2 APM2        0.576400 
     16 ****       -0.592589   -8.089550    6.507658 H         2 APM2        0.553400 
     17 ****        0.850060  -10.885186    9.065777 H         2 APM2        0.554600 
     18 ****       -0.778362  -10.984507    8.433699 H         2 APM2        0.575700 
     19 ****        7.590131   -6.222362    8.468693 H         3 PIP3        0.099700 
     20 ****        7.845291   -7.822236    9.159502 H         3 PIP3        0.077100 
     21 ****        9.697347   -6.335670    9.815158 H         3 PIP3        0.078300 
     22 ****        8.759466   -6.838559   11.252667 H         3 PIP3        0.060000 
     23 ****        8.448246   -4.164261    9.741325 H         3 PIP3        0.036900 
     24 C25         9.577660   -4.184934   11.590094 C.3       3 PIP3       -0.515000 
     25 ****        6.856409   -3.550908   11.581646 H         3 PIP3        0.072800 
     26 ****        7.060395   -5.173401   12.308531 H         3 PIP3        0.072600 
     27 ****        4.985485   -5.067555   10.939045 H         3 PIP3        0.124900 
     28 ****        5.916053   -4.592883    9.505312 H         3 PIP3        0.086300 
     29 S           5.676022  -10.440904   12.558387 S.o2      1 TOS1        2.333300 
     30 O1          6.916918  -11.067029   12.147324 O.2       1 TOS1       -0.896900 
     31 O2          4.701096  -11.231862   13.277561 O.2       1 TOS1       -0.954600 
     32 C1          6.074147   -8.984470   13.569031 C.3       4 CYCLOHEXANE_BOAT   -0.917400 
     33 C8          5.722984   -7.453072   16.501528 C.3       4 CYCLOHEXANE_BOAT   -0.402700 
     34 H3          8.118100   -7.544647   14.807085 H         4 CYCLOHEXANE_BOAT    0.083500 
     35 H4          8.935695   -9.093535   14.506780 H         4 CYCLOHEXANE_BOAT    0.075000 
     36 H5          8.508863   -7.744335   17.137648 H         4 CYCLOHEXANE_BOAT    0.095200 
     37 H6          9.371073   -9.258726   16.850819 H         4 CYCLOHEXANE_BOAT    0.137900 
     38 C7          6.028400   -8.967590   16.238646 C.3       4 CYCLOHEXANE_BOAT    0.205500 
     39 C           5.501801   -7.568751   10.495635 C.2       2 APM2        0.665900 
     40 CA          5.728156   -9.029212   10.188155 C.3       2 APM2        0.449600 
     41 CB          5.369905   -9.373637    8.713021 C.3       2 APM2       -0.626200 
     42 CG          4.093057   -8.657318    8.229904 C.ar      2 APM2        0.292900 
     43 CD1         2.854385   -9.312073    8.200625 C.ar      2 APM2       -0.208700 
     44 CD2         4.178927   -7.332084    7.792919 C.ar      2 APM2       -0.071600 
     45 CE1         1.668682   -8.662429    7.817941 C.ar      2 APM2       -0.337100 
     46 CE2         3.020925   -6.670205    7.384712 C.ar      2 APM2       -0.170000 
     47 CZ          1.781283   -7.310971    7.452303 C.ar      2 APM2       -0.080400 
     48 CF          0.322497   -9.383378    7.792325 C.cat     2 APM2        1.122000 
     49 O           4.478484   -7.344906   11.124452 O.2       2 APM2       -0.653900 
     50 N           4.935488   -9.802841   11.138878 N.am      2 APM2       -1.148000 
     51 NG1        -0.686335   -8.923279    7.089107 N.pl3     2 APM2       -1.050200 
     52 NG2         0.122682  -10.488215    8.470538 N.pl3     2 APM2       -1.022600 
     53 N1          6.330727   -6.554920   10.113637 N.am      3 PIP3       -0.534500 
     54 C2          7.599826   -6.785576    9.416075 C.3       3 PIP3        0.002900 
     55 C3          8.726014   -6.238808   10.328216 C.3       3 PIP3       -0.151400 
     56 C4          8.456204   -4.749589   10.678299 C.3       3 PIP3        0.227000 
     57 C5          7.068209   -4.610307   11.360897 C.3       3 PIP3       -0.131400 
     58 C6          5.961763   -5.176893   10.439327 C.3       3 PIP3       -0.039700 
     59 ****       10.555263   -4.271702   11.090433 H         3 PIP3        0.130900 
     60 ****        9.617957   -4.737318   12.541741 H         3 PIP3        0.127300 
     61 ****        9.391657   -3.121228   11.807385 H         3 PIP3        0.131000 
     62 H8          7.012426   -9.405741   18.235350 H         4 CYCLOHEXANE_BOAT    0.090700 
     63 H9          6.622001  -11.654392   17.161997 H         4 CYCLOHEXANE_BOAT    0.176000 
     64 H10         8.371766  -11.390521   16.885668 H         4 CYCLOHEXANE_BOAT    0.199500 
     65 ****        7.106873  -11.708185   14.466124 O.2       4 CYCLOHEXANE_BOAT   -0.520300 
     66 C17         4.674781   -9.733282   16.403097 C.3       4 CYCLOHEXANE_BOAT   -0.304000 
     67 ****        6.706800   -8.333499   12.946975 H         4 CYCLOHEXANE_BOAT    0.187000 
     68 ****        5.130399   -8.449782   13.750724 H         4 CYCLOHEXANE_BOAT    0.281500 
     69 ****        5.363794   -7.343206   17.537010 H         4 CYCLOHEXANE_BOAT    0.117800 
     70 ****        4.932135   -7.085414   15.831115 H         4 CYCLOHEXANE_BOAT    0.086900 
     71 ****        6.571720   -6.770146   16.384287 H         4 CYCLOHEXANE_BOAT    0.107800 
     72 ****        4.700741  -10.781866   16.080362 H         4 CYCLOHEXANE_BOAT    0.089100 
     73 ****        3.881688   -9.249506   15.814373 H         4 CYCLOHEXANE_BOAT    0.088400 
     74 ****        4.374577   -9.712345   17.461487 H         4 CYCLOHEXANE_BOAT    0.083000 
@<TRIPOS>BOND
     1   29   32 1    
     2    1   38 1    
     3    1    2 1    
     4    1    6 1    
     5    1   32 1    
     6   32   68 1    
     7   32   67 1    
     8   40    7 1    
     9   41    8 1    
    10   41    9 1    
    11   43   10 1    
    12   44   11 1    
    13   46   12 1    
    14   47   13 1    
    15   50   14 1    
    16   51   15 1    
    17   51   16 1    
    18   52   17 1    
    19   52   18 1    
    20   54   19 1    
    21   54   20 1    
    22   55   21 1    
    23   55   22 1    
    24   56   23 1    
    25   56   24 1    
    26   57   25 1    
    27   57   26 1    
    28   58   27 1    
    29   58   28 1    
    30   29   31 2    
    31   29   30 2    
    32    6   65 2    
    33    6    5 1    
    34    5    4 1    
    35    5   63 1    
    36    5   64 1    
    37    4    3 1    
    38    4   38 1    
    39   39   49 2    
    40   40   39 1    
    41   40   50 1    
    42   41   40 1    
    43   42   41 1    
    44   42   44 ar   
    45   43   42 ar   
    46   45   43 ar   
    47   48   45 1    
    48   45   47 ar   
    49   47   46 ar   
    50   46   44 ar   
    51   48   52 ar   
    52   48   51 ar   
    53   53   58 1    
    54   54   53 1    
    55   55   54 1    
    56   56   55 1    
    57   56   57 1    
    58   57   58 1    
    59   39   53 am   
    60   50   29 1    
    61   24   59 1    
    62   24   60 1    
    63   24   61 1    
    64    4   62 1    
    65   38   66 1    
    66   38   33 1    
    67   33   71 1    
    68   33   70 1    
    69   33   69 1    
    70   66   74 1    
    71   66   73 1    
    72   66   72 1    
    73    3    2 1    
    74    3   36 1    
    75    3   37 1    
    76    2   34 1    
    77    2   35 1    
@<TRIPOS>SUBSTRUCTURE
     1 TOS1       29 GROUP             0 I     ****    2  
     2 APM2       39 GROUP             0 I     ****    2 ROOT 
     3 PIP3       53 GROUP             0 I     ****    1  
     4 CYCLOHEXANE_BOAT     1 PERM              0 ****  ****    1  
@<TRIPOS>SET
UNK_ATOMS       STATIC     ATOMS    AMSOM    **** 
30 29 30 31 0 0 0 0 0 0 0 39 40 41 42 43 44 45 46 47 \
 48 49 50 51 52 53 54 55 56 57 58
@<TRIPOS>NORMAL
@<TRIPOS>FF_PBC
FORCE_FIELD_SETUP_FEATURE Force Field Setup information
v1.0  0 0.000000 0.000000 0.000000 0.000000 0.000000 0.000000 NONE 0 0 0 0 0 0 0 0 0 0 0 0 0
