#	Name:			08
#	Creating user name:	jeff
#	Creation time:		Fri Dec 13 10:07:13 2002

#	Modifying user name:	jeff
#	Modification time:	Fri Dec 13 10:07:17 2002

@<TRIPOS>MOLECULE
08
   65    68     3     1     1
SMALL
USER_CHARGES


@<TRIPOS>ATOM
      1 C1          4.594126   -7.870828   13.858406 C.ar      1 TOS1       -0.277200 
      2 C2          6.125251   -5.818615   14.948473 C.ar      1 TOS1       -0.285200 
      3 ****        9.863464   -7.924238   13.376042 H         1 TOS1        0.189400 
      4 ****        8.543710   -9.808069   12.490441 H         1 TOS1        0.166200 
      5 ****        3.969158   -6.817711   14.532566 C.ar      1 TOS1       -0.048500 
      6 ****        4.735383   -5.791832   15.087340 C.ar      1 TOS1       -0.100400 
      7 ****        3.956698   -8.623824   13.414272 H         1 TOS1        0.176200 
      8 ****        6.809006   -9.228764   10.351502 H         2 APM2        0.112400 
      9 ****        5.291611  -10.412884    8.631065 H         2 APM2        0.191900 
     10 ****        6.143093   -8.997500    8.000943 H         2 APM2        0.146500 
     11 ****        2.822286  -10.365014    8.666685 H         2 APM2        0.213500 
     12 ****        5.004394   -6.771247    7.767094 H         2 APM2        0.182900 
     13 ****        2.896755   -5.631973    7.179130 H         2 APM2        0.201600 
     14 ****        0.748634   -6.848750    7.303757 H         2 APM2        0.154900 
     15 ****        3.994689   -9.798845   11.011164 H         2 APM2        0.464900 
     16 ****       -1.572767   -9.502350    7.231489 H         2 APM2        0.574200 
     17 ****       -0.557523   -8.162258    6.671263 H         2 APM2        0.558200 
     18 ****        1.005688  -10.891590    9.244495 H         2 APM2        0.573300 
     19 ****       -0.663822  -11.089573    8.682113 H         2 APM2        0.578300 
     20 ****        7.462790   -6.160258    8.333966 H         3 PIP3        0.124900 
     21 ****        7.805434   -7.729098    9.045682 H         3 PIP3        0.089000 
     22 ****        9.661233   -6.178255    9.463471 H         3 PIP3        0.098100 
     23 ****        8.903060   -6.704232   10.986584 H         3 PIP3        0.075000 
     24 ****        8.393965   -4.049584    9.518778 H         3 PIP3        0.063500 
     25 C25         9.640781   -4.086959   11.296985 C.3       3 PIP3       -0.531500 
     26 ****        6.943922   -3.412168   11.433083 H         3 PIP3        0.061500 
     27 ****        7.217263   -4.991461   12.202873 H         3 PIP3        0.064100 
     28 ****        5.064075   -4.990934   11.040154 H         3 PIP3        0.123200 
     29 ****        5.817715   -4.511460    9.515505 H         3 PIP3        0.099800 
     30 S           5.765323  -10.449313   12.513762 S.o2      1 TOS1        2.319000 
     31 O1          6.718817  -11.425086   12.023216 O.2       1 TOS1       -0.936700 
     32 O2          4.765371  -10.877793   13.472509 O.2       1 TOS1       -0.960100 
     33 C1          6.641312   -9.022545   13.147605 C.ar      1 TOS1       -0.695400 
     34 C2          5.989587   -7.936415   13.758201 C.ar      1 TOS1        0.181700 
     35 C3          6.750943   -6.880516   14.282239 C.ar      1 TOS1        0.170000 
     36 C4          8.142421   -6.876139   14.143334 C.ar      1 TOS1       -0.118600 
     37 C5          8.784590   -7.933221   13.493277 C.ar      1 TOS1       -0.248100 
     38 C6          8.032236   -8.997066   12.997186 C.ar      1 TOS1        0.122200 
     39 ****        6.709869   -5.004998   15.365148 H         1 TOS1        0.197600 
     40 C           5.518286   -7.479510   10.465685 C.2       2 APM2        0.775500 
     41 CA          5.760719   -8.944886   10.172221 C.3       2 APM2        0.311500 
     42 CB          5.368748   -9.316453    8.714396 C.3       2 APM2       -0.514700 
     43 CG          4.053092   -8.640242    8.294333 C.ar      2 APM2        0.226500 
     44 CD1         2.837758   -9.329598    8.340439 C.ar      2 APM2       -0.137600 
     45 CD2         4.069134   -7.313328    7.848063 C.ar      2 APM2       -0.059000 
     46 CE1         1.645835   -8.704845    7.956226 C.ar      2 APM2       -0.398600 
     47 CE2         2.880222   -6.669205    7.498376 C.ar      2 APM2       -0.178300 
     48 CZ          1.668344   -7.363132    7.560425 C.ar      2 APM2       -0.047900 
     49 CF          0.332997   -9.464637    7.958793 C.cat     2 APM2        1.161700 
     50 O           4.495900   -7.262425   11.088124 O.2       2 APM2       -0.643700 
     51 N           4.986836   -9.728222   11.130848 N.am      2 APM2       -1.161300 
     52 NG1        -0.666319   -9.011779    7.244657 N.pl3     2 APM2       -1.072900 
     53 NG2         0.218179  -10.555911    8.670865 N.pl3     2 APM2       -1.046100 
     54 N1          6.336952   -6.465568   10.075627 N.am      3 PIP3       -0.609100 
     55 C2          7.548022   -6.693298    9.291690 C.3       3 PIP3       -0.022400 
     56 C3          8.745187   -6.106173   10.077368 C.3       3 PIP3       -0.202400 
     57 C4          8.470158   -4.630649   10.447443 C.3       3 PIP3        0.172300 
     58 C5          7.146990   -4.478968   11.232895 C.3       3 PIP3       -0.075300 
     59 C6          5.974261   -5.094905   10.432747 C.3       3 PIP3       -0.047600 
     60 ****       10.596775   -4.228184   10.775768 H         3 PIP3        0.140500 
     61 ****        9.683668   -4.619433   12.254346 H         3 PIP3        0.128500 
     62 ****        9.502355   -3.016356   11.496409 H         3 PIP3        0.136900 
     63 ****        2.887806   -6.794490   14.624743 H         1 TOS1        0.159600 
     64 ****        4.255474   -4.978384   15.621456 H         1 TOS1        0.162600 
     65 ****        8.739026   -6.057687   14.533339 H         1 TOS1        0.191300 
@<TRIPOS>BOND
     1   34    1 ar   
     2   35    2 ar   
     3   37    3 1    
     4   38    4 1    
     5    1    5 ar   
     6    2    6 ar   
     7    6    5 ar   
     8   41    8 1    
     9   42    9 1    
    10   42   10 1    
    11   44   11 1    
    12   45   12 1    
    13   47   13 1    
    14   48   14 1    
    15   51   15 1    
    16   52   16 1    
    17   52   17 1    
    18   53   18 1    
    19   53   19 1    
    20   55   20 1    
    21   55   21 1    
    22   56   22 1    
    23   56   23 1    
    24   57   24 1    
    25   57   25 1    
    26   58   26 1    
    27   58   27 1    
    28   59   28 1    
    29   59   29 1    
    30   33   30 1    
    31   30   32 2    
    32   30   31 2    
    33   33   38 ar   
    34   34   33 ar   
    35   35   34 ar   
    36   36   35 ar   
    37    1    7 1    
    38   36   37 ar   
    39   37   38 ar   
    40   40   50 2    
    41   41   40 1    
    42   41   51 1    
    43   42   41 1    
    44   43   42 1    
    45   43   45 ar   
    46   44   43 ar   
    47   46   44 ar   
    48   49   46 1    
    49   46   48 ar   
    50   48   47 ar   
    51   47   45 ar   
    52   49   53 ar   
    53   49   52 ar   
    54   54   59 1    
    55   55   54 1    
    56   56   55 1    
    57   57   56 1    
    58   57   58 1    
    59   58   59 1    
    60   40   54 am   
    61   51   30 1    
    62   25   60 1    
    63   25   61 1    
    64   25   62 1    
    65    2   39 1    
    66    5   63 1    
    67    6   64 1    
    68   36   65 1    
@<TRIPOS>SUBSTRUCTURE
     1 TOS1       30 GROUP             0 I     ****    1  
     2 APM2       40 GROUP             0 I     ****    2 ROOT 
     3 PIP3       54 GROUP             0 I     ****    1  
@<TRIPOS>SET
UNK_ATOMS       STATIC     ATOMS    AMSOM    **** 
30 30 31 32 33 34 35 36 37 38 0 40 41 42 43 44 45 46 47 48 \
 49 50 51 52 53 54 55 56 57 58 59
@<TRIPOS>NORMAL
@<TRIPOS>FF_PBC
FORCE_FIELD_SETUP_FEATURE Force Field Setup information
v1.0  0 0.000000 0.000000 0.000000 0.000000 0.000000 0.000000 NONE 0 0 0 0 0 0 0 0 0 0 0 0 0
