#	Name:			09
#	Creating user name:	jeff
#	Creation time:		Fri Dec 13 10:07:17 2002

#	Modifying user name:	jeff
#	Modification time:	Fri Dec 13 10:07:21 2002

@<TRIPOS>MOLECULE
09
   68    71     5     1     2
SMALL
USER_CHARGES


@<TRIPOS>ATOM
      1 C1          3.901045   -6.366628   15.303968 C.ar      4 NAPHTHALENE   -0.239900 
      2 C2          4.066954   -5.150016   15.970929 C.ar      4 NAPHTHALENE   -0.137700 
      3 C3          5.334240   -4.568183   16.054613 C.ar      4 NAPHTHALENE   -0.044700 
      4 C4          6.434126   -5.204437   15.471525 C.ar      4 NAPHTHALENE   -0.342700 
      5 ****        6.775346   -9.307209   10.397532 H         2 APM2        0.145100 
      6 ****        5.240431  -10.490400    8.664121 H         2 APM2        0.188900 
      7 ****        6.158334   -9.113510    8.051868 H         2 APM2        0.145500 
      8 ****        2.796187  -10.380083    8.515383 H         2 APM2        0.206300 
      9 ****        5.108459   -6.855343    7.744906 H         2 APM2        0.171500 
     10 ****        3.074505   -5.674267    7.007061 H         2 APM2        0.200700 
     11 ****        0.877517   -6.757227    7.178926 H         2 APM2        0.167400 
     12 ****        3.981246   -9.950527   11.007866 H         2 APM2        0.386800 
     13 ****       -1.583885   -9.372427    7.052338 H         2 APM2        0.572300 
     14 ****       -0.534413   -8.070499    6.483830 H         2 APM2        0.559100 
     15 ****        0.880847  -10.853716    9.093263 H         2 APM2        0.544200 
     16 ****       -0.768197  -10.973641    8.470955 H         2 APM2        0.575200 
     17 ****        7.547598   -6.223340    8.422002 H         3 PIP3        0.110100 
     18 ****        7.810561   -7.816297    9.128239 H         3 PIP3        0.070700 
     19 ****        9.660796   -6.309653    9.775264 H         3 PIP3        0.042900 
     20 ****        8.719103   -6.818664   11.202255 H         3 PIP3       -0.043300 
     21 ****        8.446556   -4.136398    9.693411 H         3 PIP3        0.184400 
     22 C           9.487532   -4.223500   11.571075 C.2       5 CO2         0.863000 
     23 ****        6.820274   -3.495482   11.465807 H         3 PIP3        0.042800 
     24 ****        6.994703   -5.087318   12.248407 H         3 PIP3       -0.001700 
     25 ****        4.943855   -5.050918   10.883177 H         3 PIP3        0.137200 
     26 ****        5.859077   -4.600157    9.433686 H         3 PIP3        0.122400 
     27 S           5.701507  -10.415477   12.630278 S.o2      1 TOS1        2.281600 
     28 O1          6.994177  -10.992206   12.314423 O.2       1 TOS1       -0.932200 
     29 O2          4.730133  -11.205067   13.360621 O.2       1 TOS1       -0.952000 
     30 C5          7.370027   -7.069973   14.223009 C.ar      4 NAPHTHALENE   -0.346400 
     31 C6          7.201881   -8.282643   13.550684 C.ar      4 NAPHTHALENE   -0.028500 
     32 C7          5.938272   -8.872787   13.475711 C.ar      4 NAPHTHALENE   -0.523800 
     33 C8          4.840517   -8.227324   14.049564 C.ar      4 NAPHTHALENE   -0.155700 
     34 C9          5.001581   -7.007772   14.718131 C.ar      4 NAPHTHALENE    0.136300 
     35 C10         6.270941   -6.425228   14.805091 C.ar      4 NAPHTHALENE    0.272000 
     36 H1          2.911203   -6.807000   15.246039 H         4 NAPHTHALENE    0.188600 
     37 C           5.486955   -7.564708   10.495034 C.2       2 APM2        0.707700 
     38 CA          5.727664   -9.033436   10.205940 C.3       2 APM2        0.258600 
     39 CB          5.348849   -9.398101    8.739011 C.3       2 APM2       -0.497600 
     40 CG          4.074419   -8.686698    8.246522 C.ar      2 APM2        0.208600 
     41 CD1         2.834691   -9.337611    8.224262 C.ar      2 APM2       -0.155300 
     42 CD2         4.153954   -7.367268    7.788141 C.ar      2 APM2       -0.064800 
     43 CE1         1.665509   -8.674477    7.819365 C.ar      2 APM2       -0.367600 
     44 CE2         3.003403   -6.694236    7.373972 C.ar      2 APM2       -0.161700 
     45 CZ          1.761856   -7.331766    7.433107 C.ar      2 APM2       -0.068300 
     46 CF          0.320588   -9.385053    7.792446 C.cat     2 APM2        1.133300 
     47 O           4.476392   -7.341752   11.144824 O.2       2 APM2       -0.654500 
     48 N           4.963087   -9.827760   11.161326 N.am      2 APM2       -0.981500 
     49 NG1        -0.662438   -8.909038    7.066506 N.pl3     2 APM2       -1.052600 
     50 NG2         0.134939  -10.476053    8.493931 N.pl3     2 APM2       -1.014200 
     51 N1          6.299561   -6.545382   10.078992 N.am      3 PIP3       -0.432900 
     52 C2          7.565677   -6.777354    9.373986 C.3       3 PIP3       -0.061400 
     53 C3          8.687075   -6.216293   10.280364 C.3       3 PIP3        0.188900 
     54 C4          8.420620   -4.725971   10.626703 C.3       3 PIP3       -0.543800 
     55 C5          7.021763   -4.562139   11.281496 C.3       3 PIP3        0.213100 
     56 C6          5.917811   -5.162412   10.379506 C.3       3 PIP3       -0.196300 
     57 O          10.218018   -3.297336   11.251569 O.2       5 CO2        -0.603100 
     58 O           9.530904   -4.886491   12.744020 O.3       5 CO2        -0.373700 
     59 ****       10.527926   -4.450382   13.684624 C.3       5 CO2        -0.173300 
     60 H2          3.212835   -4.657385   16.425106 H         4 NAPHTHALENE    0.168300 
     61 H3          5.464816   -3.622779   16.574671 H         4 NAPHTHALENE    0.160700 
     62 H4          7.412249   -4.739671   15.542109 H         4 NAPHTHALENE    0.205400 
     63 H5          8.361282   -6.634982   14.290156 H         4 NAPHTHALENE    0.230600 
     64 H6          8.057909   -8.764669   13.089043 H         4 NAPHTHALENE    0.178600 
     65 H8          3.860356   -8.686320   13.970001 H         4 NAPHTHALENE    0.215900 
     66 ****       11.156327   -5.320979   13.912973 H         5 CO2         0.136600 
     67 ****       10.001102   -4.170006   14.605964 H         5 CO2         0.121800 
     68 ****       11.179826   -3.616330   13.386303 H         5 CO2         0.130000 
@<TRIPOS>BOND
     1   27   32 1    
     2   30   31 ar   
     3   30   35 ar   
     4   30   63 1    
     5   35    4 ar   
     6   35   34 ar   
     7   34    1 ar   
     8   38    5 1    
     9   39    6 1    
    10   39    7 1    
    11   41    8 1    
    12   42    9 1    
    13   44   10 1    
    14   45   11 1    
    15   48   12 1    
    16   49   13 1    
    17   49   14 1    
    18   50   15 1    
    19   50   16 1    
    20   52   17 1    
    21   52   18 1    
    22   53   19 1    
    23   53   20 1    
    24   54   21 1    
    25   22   57 2    
    26   55   23 1    
    27   55   24 1    
    28   56   25 1    
    29   56   26 1    
    30   34   33 ar   
    31   27   29 2    
    32   27   28 2    
    33   33   32 ar   
    34   33   65 1    
    35   32   31 ar   
    36   31   64 1    
    37    1    2 ar   
    38    1   36 1    
    39   37   47 2    
    40   38   37 1    
    41   38   48 1    
    42   39   38 1    
    43   40   39 1    
    44   40   42 ar   
    45   41   40 ar   
    46   43   41 ar   
    47   46   43 1    
    48   43   45 ar   
    49   45   44 ar   
    50   44   42 ar   
    51   46   50 ar   
    52   46   49 ar   
    53   51   56 1    
    54   52   51 1    
    55   53   52 1    
    56   54   53 1    
    57   54   55 1    
    58   55   56 1    
    59   37   51 am   
    60   48   27 1    
    61   22   58 1    
    62   54   22 1    
    63   58   59 1    
    64    2    3 ar   
    65    2   60 1    
    66    3    4 ar   
    67    3   61 1    
    68    4   62 1    
    69   59   66 1    
    70   59   67 1    
    71   59   68 1    
@<TRIPOS>SUBSTRUCTURE
     1 TOS1       27 GROUP             0 I     ****    2  
     2 APM2       37 GROUP             0 I     ****    2 ROOT 
     3 PIP3       51 GROUP             0 I     ****    2  
     4 NAPHTHALENE    30 PERM              0 ****  ****    1  
     5 CO2        22 PERM              0 ****  ****    1  
@<TRIPOS>SET
UNK_ATOMS       STATIC     ATOMS    AMSOM    **** 
30 27 28 29 0 0 0 0 0 0 0 37 38 39 40 41 42 43 44 45 \
 46 47 48 49 50 51 52 53 54 55 56
LAB$B_TYPE      STATIC     BONDS    LABELGROUP SYSTEM 
0
@<TRIPOS>NORMAL
@<TRIPOS>FF_PBC
FORCE_FIELD_SETUP_FEATURE Force Field Setup information
v1.0  0 0.000000 0.000000 0.000000 0.000000 0.000000 0.000000 NONE 0 0 0 0 0 0 0 0 0 0 0 0 0
