#	Name:			10
#	Creating user name:	jeff
#	Creation time:		Fri Dec 13 10:07:21 2002

#	Modifying user name:	jeff
#	Modification time:	Fri Dec 13 10:07:25 2002

@<TRIPOS>MOLECULE
10
   68    72     5     1     4
SMALL
USER_CHARGES


@<TRIPOS>ATOM
      1 C1          4.086657   -6.000980   14.952185 C.ar      4 NAPHTHALENE   -0.232000 
      2 C2          4.384462   -4.766905   15.525259 C.ar      4 NAPHTHALENE   -0.155800 
      3 C3          5.699897   -4.294797   15.529508 C.ar      4 NAPHTHALENE   -0.058200 
      4 C4          6.714381   -5.058802   14.939443 C.ar      4 NAPHTHALENE   -0.308100 
      5 H5          6.780471   -9.416476   10.356370 H         2 APM2        0.132100 
      6 H6          5.445882  -10.402553    8.417888 H         2 APM2        0.140500 
      7 H7          6.297860   -8.909061    7.985232 H         2 APM2        0.204500 
      8 H8          3.025916  -10.409703    8.406851 H         2 APM2        0.193500 
      9 H9          5.033857   -6.832874    7.636190 H         2 APM2        0.248100 
     10 H10         2.974235   -5.631566    7.089956 H         2 APM2        0.194000 
     11 H11         0.858134   -6.816028    7.250083 H         2 APM2        0.146500 
     12 H12         3.926882   -9.967943   10.708498 H         2 APM2        0.398100 
     13 H13        -1.506952   -9.549502    7.453765 H         2 APM2        0.559600 
     14 H14        -0.601318   -8.219566    6.783636 H         2 APM2        0.552000 
     15 H15         1.216121  -10.907971    9.261574 H         2 APM2        0.542000 
     16 H16        -0.450099  -11.117022    8.813804 H         2 APM2        0.560000 
     17 C1          6.091309   -5.248767   10.577309 C.3       3 TETRAHYDROISOQUINOLINE   -0.105800 
     18 N1          6.484560   -6.606335   10.189630 N.am      3 TETRAHYDROISOQUINOLINE   -0.507400 
     19 C2          7.740566   -6.828467    9.462688 C.3       3 TETRAHYDROISOQUINOLINE    0.340000 
     20 C3          8.866095   -6.053792   10.186768 C.3       3 TETRAHYDROISOQUINOLINE   -0.329900 
     21 C4          9.491268   -3.586230    9.986593 C.ar      3 TETRAHYDROISOQUINOLINE   -0.252100 
     22 C5          9.132869   -2.241979    9.876530 C.ar      3 TETRAHYDROISOQUINOLINE   -0.150400 
     23 C6          7.784597   -1.871956    9.928876 C.ar      3 TETRAHYDROISOQUINOLINE   -0.180900 
     24 C7          6.803294   -2.842871   10.135780 C.ar      3 TETRAHYDROISOQUINOLINE   -0.210000 
     25 C8          7.163472   -4.188278   10.287795 C.ar      3 TETRAHYDROISOQUINOLINE    0.055600 
     26 S           5.436128  -10.386864   12.551793 S.o2      1 TOS1        2.252700 
     27 O1          6.653429  -11.156642   12.382906 O.2       1 TOS1       -0.943400 
     28 O2          4.313965  -10.961816   13.267823 O.2       1 TOS1       -0.993800 
     29 C5          7.432342   -7.066496   13.769765 C.ar      4 NAPHTHALENE   -0.328900 
     30 C6          7.137402   -8.312368   13.218739 C.ar      4 NAPHTHALENE   -0.045100 
     31 C7          5.832551   -8.809131   13.261810 C.ar      4 NAPHTHALENE   -0.476600 
     32 C8          4.816420   -8.030926   13.831179 C.ar      4 NAPHTHALENE   -0.151200 
     33 C9          5.106383   -6.782518   14.379160 C.ar      4 NAPHTHALENE    0.136700 
     34 C10         6.419160   -6.295647   14.365273 C.ar      4 NAPHTHALENE    0.239800 
     35 H1          3.060941   -6.355745   14.952320 H         4 NAPHTHALENE    0.178400 
     36 C           5.587496   -7.601049   10.447612 C.2       2 APM2        0.679000 
     37 CA          5.769513   -9.064314   10.107555 C.3       2 APM2        0.283100 
     38 CB          5.483524   -9.317873    8.603124 C.3       2 APM2       -0.467200 
     39 CG          4.160125   -8.663532    8.174521 C.ar      2 APM2        0.211400 
     40 CD1         2.961244   -9.358446    8.183337 C.ar      2 APM2       -0.169800 
     41 CD2         4.121119   -7.342225    7.736041 C.ar      2 APM2        0.015300 
     42 CE1         1.748336   -8.713021    7.888941 C.ar      2 APM2       -0.405500 
     43 CE2         2.950750   -6.671197    7.405942 C.ar      2 APM2       -0.189900 
     44 CZ          1.752199   -7.368897    7.492684 C.ar      2 APM2       -0.084600 
     45 CF          0.451942   -9.481063    8.004134 C.cat     2 APM2        1.127600 
     46 O           4.525640   -7.333130   10.989541 O.2       2 APM2       -0.729600 
     47 N           4.882862   -9.837964   10.969449 N.am      2 APM2       -0.965100 
     48 NG1        -0.617635   -9.050161    7.379676 N.pl3     2 APM2       -1.062600 
     49 NG2         0.409613  -10.572343    8.730628 N.pl3     2 APM2       -1.007700 
     50 C9          8.504481   -4.563554   10.162929 C.ar      3 TETRAHYDROISOQUINOLINE    0.155200 
     51 H1          5.894956   -5.210008   11.657247 H         3 TETRAHYDROISOQUINOLINE    0.095600 
     52 H2          5.166552   -4.979193   10.038914 H         3 TETRAHYDROISOQUINOLINE    0.146400 
     53 C           7.634360   -6.076280    8.155481 C.2       5 CO2         0.736400 
     54 H6          9.823109   -6.228546    9.663997 H         3 TETRAHYDROISOQUINOLINE    0.166500 
     55 H7          8.960550   -6.392212   11.226361 H         3 TETRAHYDROISOQUINOLINE    0.030100 
     56 H8         10.536581   -3.871333    9.931795 H         3 TETRAHYDROISOQUINOLINE    0.183300 
     57 H2          3.593961   -4.168789   15.971088 H         4 NAPHTHALENE    0.155200 
     58 H3          5.934518   -3.340501   15.988257 H         4 NAPHTHALENE    0.147000 
     59 H4          7.729947   -4.673823   14.938341 H         4 NAPHTHALENE    0.190200 
     60 H5          8.451741   -6.696308   13.737713 H         4 NAPHTHALENE    0.225500 
     61 H6          7.926392   -8.896877   12.755221 H         4 NAPHTHALENE    0.178400 
     62 H8          3.801894   -8.416045   13.835903 H         4 NAPHTHALENE    0.209100 
     63 H9          9.899405   -1.483961    9.750555 H         3 TETRAHYDROISOQUINOLINE    0.146900 
     64 H10         7.503757   -0.829811    9.811779 H         3 TETRAHYDROISOQUINOLINE    0.148400 
     65 H11         5.759187   -2.548960   10.179475 H         3 TETRAHYDROISOQUINOLINE    0.159600 
     66 H66         8.060263   -7.877738    9.348739 H         3 TETRAHYDROISOQUINOLINE   -0.057400 
     67 O           6.603816   -5.400631    7.934479 O.co2     5 CO2        -0.982700 
     68 O           8.602817   -6.051589    7.358194 O.co2     5 CO2        -0.912600 
@<TRIPOS>BOND
     1   26   31 1    
     2   29   30 ar   
     3   29   34 ar   
     4   29   60 1    
     5   34    4 ar   
     6   34   33 ar   
     7   33    1 ar   
     8   37    5 1    
     9   38    6 1    
    10   38    7 1    
    11   40    8 1    
    12   41    9 1    
    13   43   10 1    
    14   44   11 1    
    15   47   12 1    
    16   48   13 1    
    17   48   14 1    
    18   49   15 1    
    19   49   16 1    
    20   36   18 am   
    21   21   22 ar   
    22   21   50 ar   
    23   21   56 1    
    24   50   20 1    
    25   50   25 ar   
    26   25   17 1    
    27   25   24 ar   
    28   24   23 ar   
    29   24   65 1    
    30   33   32 ar   
    31   26   28 2    
    32   26   27 2    
    33   32   31 ar   
    34   32   62 1    
    35   31   30 ar   
    36   30   61 1    
    37    1    2 ar   
    38    1   35 1    
    39   36   46 2    
    40   37   36 1    
    41   37   47 1    
    42   38   37 1    
    43   39   38 1    
    44   39   41 ar   
    45   40   39 ar   
    46   42   40 ar   
    47   45   42 1    
    48   42   44 ar   
    49   44   43 ar   
    50   43   41 ar   
    51   45   49 ar   
    52   45   48 ar   
    53   23   22 ar   
    54   23   64 1    
    55   22   63 1    
    56   17   18 1    
    57   17   51 1    
    58   17   52 1    
    59   18   19 1    
    60   47   26 1    
    61   19   20 1    
    62   53   67 ar   
    63    2    3 ar   
    64    2   57 1    
    65    3    4 ar   
    66    3   58 1    
    67    4   59 1    
    68   20   54 1    
    69   20   55 1    
    70   19   66 1    
    71   53   68 ar   
    72   19   53 1    
@<TRIPOS>SUBSTRUCTURE
     1 TOS1       26 GROUP             0 I     ****    2  
     2 APM2       36 GROUP             0 I     ****    2 ROOT 
     3 TETRAHYDROISOQUINOLINE    21 PERM              0 ****  ****    2  
     4 NAPHTHALENE    29 PERM              0 ****  ****    1  
     5 CO2        53 PERM              0 ****  ****    1  
@<TRIPOS>SET
UNK_ATOMS       STATIC     ATOMS    AMSOM    **** 
30 26 27 28 0 0 0 0 0 0 0 36 37 38 39 40 41 42 43 44 \
 45 46 47 48 49 0 0 0 0 0 0
LAB$B_TYPE      STATIC     BONDS    LABELGROUP SYSTEM 
0
ATOM$WHITE      STATIC     ATOMS    COLORGROUP SYSTEM 
0
ATOM$BY_TYPE    STATIC     ATOMS    COLORGROUP SYSTEM 
68 1 2 3 4 5 6 7 8 9 10 11 12 13 14 15 16 17 18 19 \
 20 21 22 23 24 25 26 27 28 29 30 31 32 33 34 35 36 37 \
 38 39 40 41 42 43 44 45 46 47 48 49 50 51 52 53 54 55 \
 56 57 58 59 60 61 62 63 64 65 66 67 68
@<TRIPOS>NORMAL
@<TRIPOS>FF_PBC
FORCE_FIELD_SETUP_FEATURE Force Field Setup information
v1.0  0 0.000000 0.000000 0.000000 0.000000 0.000000 0.000000 NONE 0 0 0 0 0 0 0 0 0 0 0 0 0
