#	Name:			11
#	Creating user name:	jeff
#	Creation time:		Fri Dec 13 10:07:25 2002

#	Modifying user name:	jeff
#	Modification time:	Fri Dec 13 10:07:28 2002

@<TRIPOS>MOLECULE
11
   67    70     5     1     2
SMALL
USER_CHARGES


@<TRIPOS>ATOM
      1 C1          3.899347   -6.363631   15.296264 C.ar      4 NAPHTHALENE   -0.243500 
      2 C2          4.068402   -5.148876   15.965182 C.ar      4 NAPHTHALENE   -0.128900 
      3 C3          5.337081   -4.569526   16.047003 C.ar      4 NAPHTHALENE   -0.053600 
      4 C4          6.433793   -5.205634   15.460127 C.ar      4 NAPHTHALENE   -0.317500 
      5 ****        6.768535   -9.313056   10.402183 H         2 APM2        0.120200 
      6 ****        5.253556  -10.495895    8.652128 H         2 APM2        0.159200 
      7 ****        6.169449   -9.112500    8.043351 H         2 APM2        0.101300 
      8 ****        2.802845  -10.391317    8.509289 H         2 APM2        0.198600 
      9 ****        5.113703   -6.859109    7.743989 H         2 APM2        0.173200 
     10 ****        3.067882   -5.662416    7.059215 H         2 APM2        0.204100 
     11 ****        0.871902   -6.760874    7.220924 H         2 APM2        0.161200 
     12 ****        3.958660   -9.926693   10.985221 H         2 APM2        0.384200 
     13 ****       -1.572503   -9.363819    7.067435 H         2 APM2        0.571500 
     14 ****       -0.519589   -8.053641    6.518950 H         2 APM2        0.554700 
     15 ****        0.909466  -10.869454    9.083175 H         2 APM2        0.538800 
     16 ****       -0.747027  -10.987609    8.475123 H         2 APM2        0.573300 
     17 ****        7.674809   -6.194330    8.510611 H         3 PIP3        0.090500 
     18 ****        7.835497   -7.830445    9.144547 H         3 PIP3        0.070500 
     19 ****        9.680055   -6.437357   10.061181 H         3 PIP3        0.093900 
     20 ****        8.539997   -6.866022   11.355586 H         3 PIP3        0.069800 
     21 C           9.191657   -3.843385   10.450618 C.2       5 CO          1.121000 
     22 O           8.978151   -2.719582   10.879585 O.2       5 CO         -0.694100 
     23 ****        6.812817   -3.486986   11.375126 H         3 PIP3        0.096500 
     24 ****        6.978150   -4.983714   12.329325 H         3 PIP3        0.031600 
     25 ****        4.961960   -5.053852   10.889580 H         3 PIP3        0.088600 
     26 ****        5.894509   -4.620206    9.445835 H         3 PIP3        0.074300 
     27 S           5.671672  -10.419377   12.626360 S.o2      1 TOS1        2.243600 
     28 O1          6.957772  -11.013811   12.315007 O.2       1 TOS1       -0.921200 
     29 O2          4.684192  -11.192444   13.353415 O.2       1 TOS1       -0.951600 
     30 C5          7.363745   -7.072481   14.203433 C.ar      4 NAPHTHALENE   -0.248300 
     31 C6          7.192578   -8.292207   13.543426 C.ar      4 NAPHTHALENE   -0.137900 
     32 C7          5.924955   -8.876249   13.469524 C.ar      4 NAPHTHALENE   -0.423700 
     33 C8          4.830264   -8.224519   14.040153 C.ar      4 NAPHTHALENE   -0.219100 
     34 C9          4.997357   -7.004848   14.708784 C.ar      4 NAPHTHALENE    0.181600 
     35 C10         6.268438   -6.426047   14.790967 C.ar      4 NAPHTHALENE    0.193200 
     36 H1          2.908411   -6.803147   15.239071 H         4 NAPHTHALENE    0.189700 
     37 C           5.484832   -7.568698   10.478829 C.2       2 APM2        0.531600 
     38 CA          5.725072   -9.035499   10.195974 C.3       2 APM2        0.251300 
     39 CB          5.359098   -9.402557    8.728426 C.3       2 APM2       -0.365700 
     40 CG          4.081426   -8.692674    8.244187 C.ar      2 APM2        0.140800 
     41 CD1         2.844431   -9.346214    8.225766 C.ar      2 APM2       -0.123500 
     42 CD2         4.157700   -7.368380    7.795464 C.ar      2 APM2       -0.017500 
     43 CE1         1.673471   -8.678271    7.834094 C.ar      2 APM2       -0.377500 
     44 CE2         3.002234   -6.689636    7.405773 C.ar      2 APM2       -0.195000 
     45 CZ          1.762707   -7.330537    7.463140 C.ar      2 APM2       -0.043100 
     46 CF          0.332222   -9.389473    7.805081 C.cat     2 APM2        1.119000 
     47 O           4.457960   -7.336748   11.098166 O.2       2 APM2       -0.604200 
     48 N           4.941077   -9.818764   11.142619 N.am      2 APM2       -0.945400 
     49 NG1        -0.650937   -8.901634    7.088025 N.pl3     2 APM2       -1.046500 
     50 NG2         0.155225  -10.488786    8.495329 N.pl3     2 APM2       -1.000300 
     51 N1          6.313823   -6.557569   10.086997 N.am      3 PIP3       -0.474700 
     52 C2          7.604873   -6.796495    9.429493 C.3       3 PIP3        0.075300 
     53 C3          8.658854   -6.272176   10.432478 C.3       3 PIP3        0.140700 
     54 N4          8.335953   -4.871773   10.728316 N.am      3 PIP3       -0.862500 
     55 C5          7.030396   -4.563676   11.312545 C.3       3 PIP3        0.245200 
     56 C6          5.940066   -5.176057   10.397114 C.3       3 PIP3        0.037000 
     57 ****       10.278227   -4.086074    9.690879 O.3       5 CO         -0.414500 
     58 ****       11.084021   -2.923887    9.344997 C.3       5 CO         -0.108800 
     59 ****       11.006210   -2.698470    8.269911 H         5 CO          0.108700 
     60 H2          3.215135   -4.655920   16.421104 H         4 NAPHTHALENE    0.166700 
     61 H3          5.469080   -3.625444   16.567123 H         4 NAPHTHALENE    0.165800 
     62 H4          7.413326   -4.742999   15.529865 H         4 NAPHTHALENE    0.201000 
     63 H5          8.354820   -6.632079   14.255250 H         4 NAPHTHALENE    0.206500 
     64 H6          8.046045   -8.784867   13.090305 H         4 NAPHTHALENE    0.198500 
     65 H8          3.848089   -8.677176   13.958572 H         4 NAPHTHALENE    0.226700 
     66 ****       12.121055   -3.222469    9.542408 H         5 CO          0.136400 
     67 ****       10.910887   -1.984894    9.897488 H         5 CO          0.104400 
@<TRIPOS>BOND
     1   27   32 1    
     2   30   31 ar   
     3   30   35 ar   
     4   30   63 1    
     5   35    4 ar   
     6   35   34 ar   
     7   34    1 ar   
     8   38    5 1    
     9   39    6 1    
    10   39    7 1    
    11   41    8 1    
    12   42    9 1    
    13   44   10 1    
    14   45   11 1    
    15   48   12 1    
    16   49   13 1    
    17   49   14 1    
    18   50   15 1    
    19   50   16 1    
    20   52   17 1    
    21   52   18 1    
    22   53   19 1    
    23   53   20 1    
    24   21   22 2    
    25   54   21 am   
    26   55   23 1    
    27   55   24 1    
    28   56   25 1    
    29   56   26 1    
    30   34   33 ar   
    31   27   29 2    
    32   27   28 2    
    33   33   32 ar   
    34   33   65 1    
    35   32   31 ar   
    36   31   64 1    
    37    1    2 ar   
    38    1   36 1    
    39   37   47 2    
    40   38   37 1    
    41   38   48 1    
    42   39   38 1    
    43   40   39 1    
    44   40   42 ar   
    45   41   40 ar   
    46   43   41 ar   
    47   46   43 1    
    48   43   45 ar   
    49   45   44 ar   
    50   44   42 ar   
    51   46   50 ar   
    52   46   49 ar   
    53   51   56 1    
    54   52   51 1    
    55   53   52 1    
    56   54   53 1    
    57   54   55 1    
    58   55   56 1    
    59   37   51 am   
    60   48   27 1    
    61   21   57 1    
    62   57   58 1    
    63   58   59 1    
    64    2    3 ar   
    65    2   60 1    
    66    3    4 ar   
    67    3   61 1    
    68    4   62 1    
    69   58   66 1    
    70   58   67 1    
@<TRIPOS>SUBSTRUCTURE
     1 TOS1       27 GROUP             0 I     ****    2  
     2 APM2       37 GROUP             0 I     ****    2 ROOT 
     3 PIP3       51 GROUP             0 I     ****    2  
     4 NAPHTHALENE    30 PERM              0 ****  ****    1  
     5 CO         21 PERM              0 ****  ****    1  
@<TRIPOS>SET
UNK_ATOMS       STATIC     ATOMS    AMSOM    **** 
30 27 28 29 0 0 0 0 0 0 0 37 38 39 40 41 42 43 44 45 \
 46 47 48 49 50 51 52 53 54 55 56
LAB$B_TYPE      STATIC     BONDS    LABELGROUP SYSTEM 
0
@<TRIPOS>NORMAL
@<TRIPOS>FF_PBC
FORCE_FIELD_SETUP_FEATURE Force Field Setup information
v1.0  0 0.000000 0.000000 0.000000 0.000000 0.000000 0.000000 NONE 0 0 0 0 0 0 0 0 0 0 0 0 0
