#	Name:			12
#	Creating user name:	jeff
#	Creation time:		Fri Dec 13 10:07:29 2002

#	Modifying user name:	jeff
#	Modification time:	Fri Dec 13 10:07:32 2002

@<TRIPOS>MOLECULE
12
   65    68     3     1     2
SMALL
USER_CHARGES


@<TRIPOS>ATOM
      1 C1          3.896250   -6.361162   15.292957 C.ar      3 NAPHTHALENE   -0.236500 
      2 C2          4.070615   -5.146367   15.961397 C.ar      3 NAPHTHALENE   -0.131300 
      3 C3          5.341329   -4.571863   16.040194 C.ar      3 NAPHTHALENE   -0.047600 
      4 C4          6.435134   -5.213901   15.452480 C.ar      3 NAPHTHALENE   -0.335400 
      5 ****        6.741806   -9.393835   10.373582 H         2 APM2        0.104100 
      6 ****        5.155493  -10.560172    8.673245 H         2 APM2        0.186600 
      7 ****        6.094790   -9.243932    7.996986 H         2 APM2        0.150900 
      8 ****        2.755592  -10.408679    8.500907 H         2 APM2        0.198700 
      9 ****        5.107455   -6.900670    7.753105 H         2 APM2        0.161100 
     10 ****        3.072242   -5.669444    7.089923 H         2 APM2        0.205200 
     11 ****        0.862623   -6.752984    7.233752 H         2 APM2        0.161400 
     12 ****        3.928453   -9.959667   10.997715 H         2 APM2        0.377300 
     13 ****       -1.588372   -9.362225    7.066823 H         2 APM2        0.572100 
     14 ****       -0.532402   -8.046415    6.532861 H         2 APM2        0.555800 
     15 ****        0.903394  -10.873153    9.081308 H         2 APM2        0.541500 
     16 ****       -0.752989  -11.001020    8.474311 H         2 APM2        0.570100 
     17 C2          9.297709   -5.146552   10.073915 C.3       2 APM2       -0.156600 
     18 C3          8.842651   -6.629757   10.149662 C.3       2 APM2        0.032300 
     19 C4          7.565768   -6.894638    9.309829 C.3       2 APM2        0.049400 
     20 N5          6.351601   -6.617833   10.079923 N.am      2 APM2       -0.548600 
     21 C6          6.015153   -5.229854   10.407890 C.3       2 APM2       -0.017700 
     22 C7          7.042371   -4.607230   11.391191 C.3       2 APM2        0.001400 
     23 C8          8.340002   -4.087855   10.708025 C.3       2 APM2       -0.043500 
     24 H3         10.285363   -5.079183   10.562452 H         2 APM2        0.059800 
     25 S           5.646775  -10.438734   12.646393 S.o2      1 TOS1        2.264400 
     26 O1          6.927711  -11.044760   12.337181 O.2       1 TOS1       -0.921300 
     27 O2          4.660417  -11.196691   13.390980 O.2       1 TOS1       -0.951200 
     28 C5          7.357240   -7.093297   14.207718 C.ar      3 NAPHTHALENE   -0.273300 
     29 C6          7.178165   -8.307949   13.539114 C.ar      3 NAPHTHALENE   -0.078900 
     30 C7          5.908995   -8.888138   13.472464 C.ar      3 NAPHTHALENE   -0.469400 
     31 C8          4.817272   -8.226778   14.039530 C.ar      3 NAPHTHALENE   -0.185200 
     32 C9          4.989843   -7.008684   14.706718 C.ar      3 NAPHTHALENE    0.141100 
     33 C10         6.266552   -6.436004   14.789471 C.ar      3 NAPHTHALENE    0.230500 
     34 H1          2.902743   -6.795542   15.236025 H         3 NAPHTHALENE    0.185100 
     35 C           5.513016   -7.618837   10.492636 C.2       2 APM2        0.658000 
     36 CA          5.701333   -9.091802   10.185907 C.3       2 APM2        0.333200 
     37 CB          5.305216   -9.470793    8.725724 C.3       2 APM2       -0.483100 
     38 CG          4.052322   -8.722249    8.246197 C.ar      2 APM2        0.155900 
     39 CD1         2.809378   -9.362154    8.225192 C.ar      2 APM2       -0.110100 
     40 CD2         4.145120   -7.396777    7.806072 C.ar      2 APM2       -0.017800 
     41 CE1         1.650256   -8.677755    7.838950 C.ar      2 APM2       -0.384100 
     42 CE2         2.996088   -6.700033    7.424761 C.ar      2 APM2       -0.191500 
     43 CZ          1.749979   -7.328514    7.475189 C.ar      2 APM2       -0.050500 
     44 CF          0.311916   -9.391983    7.810146 C.cat     2 APM2        1.119000 
     45 O           4.514177   -7.378766   11.153681 O.2       2 APM2       -0.640100 
     46 N           4.912773   -9.854763   11.148497 N.am      2 APM2       -0.979300 
     47 NG1        -0.667778   -8.899256    7.094380 N.pl3     2 APM2       -1.048600 
     48 NG2         0.144927  -10.495397    8.496027 N.pl3     2 APM2       -0.998800 
     49 H4          9.466199   -4.895915    9.011799 H         2 APM2        0.054500 
     50 H5          8.697547   -6.960261   11.189730 H         2 APM2       -0.002900 
     51 H6          9.668271   -7.235940    9.735710 H         2 APM2        0.037300 
     52 H7          7.629093   -7.917783    8.933832 H         2 APM2        0.029600 
     53 H8          7.567200   -6.255916    8.413360 H         2 APM2        0.124200 
     54 H11         5.015044   -5.140274   10.860276 H         2 APM2        0.094900 
     55 H12         5.977844   -4.640234    9.478810 H         2 APM2        0.080300 
     56 H13         7.272340   -5.321108   12.193690 H         2 APM2        0.042500 
     57 H14         6.564417   -3.732666   11.866706 H         2 APM2        0.033800 
     58 H2          3.219815   -4.650555   16.418850 H         3 NAPHTHALENE    0.164800 
     59 H3          5.477389   -3.627386   16.558573 H         3 NAPHTHALENE    0.162000 
     60 H4          7.415826   -4.752452   15.517776 H         3 NAPHTHALENE    0.203800 
     61 H5          8.353259   -6.664732   14.268101 H         3 NAPHTHALENE    0.207900 
     62 H6          8.026111   -8.799008   13.074359 H         3 NAPHTHALENE    0.179300 
     63 H8          3.831733   -8.672226   13.955545 H         3 NAPHTHALENE    0.220100 
     64 H15         8.046875   -3.350463    9.941237 H         2 APM2        0.045100 
     65 H16         8.904823   -3.530451   11.475709 H         2 APM2        0.030300 
@<TRIPOS>BOND
     1   25   30 1    
     2   28   29 ar   
     3   28   33 ar   
     4   28   61 1    
     5   33    4 ar   
     6   33   32 ar   
     7   32    1 ar   
     8   36    5 1    
     9   37    6 1    
    10   37    7 1    
    11   39    8 1    
    12   40    9 1    
    13   42   10 1    
    14   43   11 1    
    15   46   12 1    
    16   47   13 1    
    17   47   14 1    
    18   48   15 1    
    19   48   16 1    
    20   35   20 am   
    21   23   17 1    
    22   22   23 1    
    23   23   64 1    
    24   23   65 1    
    25   21   22 1    
    26   22   56 1    
    27   22   57 1    
    28   20   21 1    
    29   21   54 1    
    30   32   31 ar   
    31   25   27 2    
    32   25   26 2    
    33   31   30 ar   
    34   31   63 1    
    35   30   29 ar   
    36   29   62 1    
    37    1    2 ar   
    38    1   34 1    
    39   35   45 2    
    40   36   35 1    
    41   36   46 1    
    42   37   36 1    
    43   38   37 1    
    44   38   40 ar   
    45   39   38 ar   
    46   41   39 ar   
    47   44   41 1    
    48   41   43 ar   
    49   43   42 ar   
    50   42   40 ar   
    51   44   48 ar   
    52   44   47 ar   
    53   21   55 1    
    54   20   19 1    
    55   19   18 1    
    56   19   52 1    
    57   19   53 1    
    58   18   17 1    
    59   46   25 1    
    60   18   50 1    
    61   18   51 1    
    62   17   24 1    
    63    2    3 ar   
    64    2   58 1    
    65    3    4 ar   
    66    3   59 1    
    67    4   60 1    
    68   17   49 1    
@<TRIPOS>SUBSTRUCTURE
     1 TOS1       25 GROUP             0 I     ****    2  
     2 APM2       35 GROUP             0 I     ****    1 ROOT 
     3 NAPHTHALENE    28 PERM              0 ****  ****    1  
@<TRIPOS>SET
UNK_ATOMS       STATIC     ATOMS    AMSOM    **** 
30 25 26 27 0 0 0 0 0 0 0 35 36 37 38 39 40 41 42 43 \
 44 45 46 47 48 0 0 0 0 0 0
LAB$B_TYPE      STATIC     BONDS    LABELGROUP SYSTEM 
0
@<TRIPOS>NORMAL
@<TRIPOS>FF_PBC
FORCE_FIELD_SETUP_FEATURE Force Field Setup information
v1.0  0 0.000000 0.000000 0.000000 0.000000 0.000000 0.000000 NONE 0 0 0 0 0 0 0 0 0 0 0 0 0
