#	Name:			13
#	Creating user name:	jeff
#	Creation time:		Fri Dec 13 10:07:32 2002

#	Modifying user name:	jeff
#	Modification time:	Fri Dec 13 10:07:36 2002

@<TRIPOS>MOLECULE
13
   66    69     5     1     2
SMALL
USER_CHARGES


@<TRIPOS>ATOM
      1 C1          3.899612   -6.363921   15.296528 C.ar      4 NAPHTHALENE   -0.255000 
      2 C2          4.068287   -5.148984   15.965517 C.ar      4 NAPHTHALENE   -0.115200 
      3 C3          5.336720   -4.569418   16.047522 C.ar      4 NAPHTHALENE   -0.068000 
      4 C4          6.433732   -5.205549   15.460613 C.ar      4 NAPHTHALENE   -0.290700 
      5 ****        6.766094   -9.310813   10.402657 H         2 APM2        0.121200 
      6 ****        5.253441  -10.494195    8.653997 H         2 APM2        0.167800 
      7 ****        6.169098   -9.111962    8.043985 H         2 APM2        0.111900 
      8 ****        2.802788  -10.390843    8.509400 H         2 APM2        0.205000 
      9 ****        5.113842   -6.858717    7.744557 H         2 APM2        0.180000 
     10 ****        3.068140   -5.662964    7.056882 H         2 APM2        0.200300 
     11 ****        0.872229   -6.760700    7.219272 H         2 APM2        0.163900 
     12 ****        3.959885   -9.926605   10.985094 H         2 APM2        0.397900 
     13 ****       -1.572949   -9.364149    7.066532 H         2 APM2        0.572000 
     14 ****       -0.520046   -8.054400    6.517166 H         2 APM2        0.555600 
     15 ****        0.907990  -10.868777    9.083716 H         2 APM2        0.541600 
     16 ****       -0.748142  -10.986936    8.474825 H         2 APM2        0.574700 
     17 ****        7.692344   -6.189526    8.526815 H         3 PIP3        0.080400 
     18 ****        7.828955   -7.834462    9.147514 H         3 PIP3        0.065400 
     19 ****        9.666581   -6.591466   10.223618 H         3 PIP3        0.105500 
     20 ****        8.419029   -6.863676   11.424365 H         3 PIP3        0.079700 
     21 C           9.237023   -3.930126   10.326221 C.2       5 CO          0.894900 
     22 O           9.130078   -2.787157   10.744705 O.2       5 CO         -0.625500 
     23 ****        6.900674   -3.446054   11.350402 H         3 PIP3        0.121200 
     24 ****        7.005222   -4.940139   12.315880 H         3 PIP3        0.039300 
     25 ****        4.988788   -5.035997   10.904769 H         3 PIP3        0.079800 
     26 ****        5.904366   -4.611241    9.450582 H         3 PIP3        0.053300 
     27 S           5.673161  -10.418773   12.626254 S.o2      1 TOS1        2.249600 
     28 O1          6.959456  -11.012723   12.314536 O.2       1 TOS1       -0.921100 
     29 O2          4.686115  -11.192638   13.353180 O.2       1 TOS1       -0.951800 
     30 C5          7.363913   -7.071929   14.204564 C.ar      4 NAPHTHALENE   -0.250600 
     31 C6          7.193062   -8.292390   13.544869 C.ar      4 NAPHTHALENE   -0.129100 
     32 C7          5.925923   -8.876242   13.470209 C.ar      4 NAPHTHALENE   -0.427400 
     33 C8          4.830776   -8.224336   14.040936 C.ar      4 NAPHTHALENE   -0.212600 
     34 C9          4.997144   -7.005210   14.709119 C.ar      4 NAPHTHALENE    0.198100 
     35 C10         6.269158   -6.425481   14.791539 C.ar      4 NAPHTHALENE    0.169900 
     36 H1          2.908642   -6.803599   15.239326 H         4 NAPHTHALENE    0.190400 
     37 C           5.485412   -7.558671   10.481361 C.2       2 APM2        0.460500 
     38 CA          5.723755   -9.028067   10.196934 C.3       2 APM2        0.298100 
     39 CB          5.358797   -9.400538    8.729861 C.3       2 APM2       -0.417900 
     40 CG          4.081766   -8.691499    8.244361 C.ar      2 APM2        0.181900 
     41 CD1         2.842966   -9.345868    8.225412 C.ar      2 APM2       -0.147000 
     42 CD2         4.157523   -7.368372    7.795313 C.ar      2 APM2       -0.048100 
     43 CE1         1.674607   -8.677783    7.833529 C.ar      2 APM2       -0.366800 
     44 CE2         3.002681   -6.689603    7.404346 C.ar      2 APM2       -0.172000 
     45 CZ          1.762343   -7.331021    7.461928 C.ar      2 APM2       -0.058500 
     46 CF          0.330692   -9.389787    7.804440 C.cat     2 APM2        1.124700 
     47 O           4.457930   -7.326783   11.099187 O.2       2 APM2       -0.597600 
     48 N           4.941779   -9.814961   11.142692 N.am      2 APM2       -0.971400 
     49 NG1        -0.650958   -8.901959    7.087040 N.pl3     2 APM2       -1.048900 
     50 NG2         0.154430  -10.487929    8.495130 N.pl3     2 APM2       -1.006300 
     51 N1          6.318130   -6.548274   10.092045 N.am      3 PIP3       -0.428000 
     52 C2          7.605939   -6.802352    9.437996 C.3       3 PIP3        0.080400 
     53 C3          8.634279   -6.328250   10.486630 C.3       3 PIP3        0.063300 
     54 N4          8.365706   -4.907862   10.711866 N.am      3 PIP3       -0.715700 
     55 C5          7.074193   -4.533058   11.295599 C.3       3 PIP3        0.112500 
     56 C6          5.963005   -5.158958   10.405376 C.3       3 PIP3        0.099000 
     57 ****       10.380319   -4.131324    9.354266 C.3       5 CO         -0.437400 
     58 ****       10.384291   -5.075057    8.793026 H         5 CO          0.132400 
     59 ****       11.343757   -4.008211    9.870917 H         5 CO          0.127700 
     60 H2          3.214832   -4.656220   16.421246 H         4 NAPHTHALENE    0.164600 
     61 H3          5.468590   -3.625376   16.567617 H         4 NAPHTHALENE    0.167000 
     62 H4          7.413237   -4.742638   15.530737 H         4 NAPHTHALENE    0.193000 
     63 H5          8.355097   -6.631520   14.256404 H         4 NAPHTHALENE    0.206100 
     64 H6          8.046721   -8.785267   13.092288 H         4 NAPHTHALENE    0.192500 
     65 H8          3.848783   -8.677574   13.959176 H         4 NAPHTHALENE    0.223100 
     66 ****       10.289707   -3.334202    8.600289 H         5 CO          0.138500 
@<TRIPOS>BOND
     1   27   32 1    
     2   30   31 ar   
     3   30   35 ar   
     4   30   63 1    
     5   35    4 ar   
     6   35   34 ar   
     7   34    1 ar   
     8   38    5 1    
     9   39    6 1    
    10   39    7 1    
    11   41    8 1    
    12   42    9 1    
    13   44   10 1    
    14   45   11 1    
    15   48   12 1    
    16   49   13 1    
    17   49   14 1    
    18   50   15 1    
    19   50   16 1    
    20   52   17 1    
    21   52   18 1    
    22   53   19 1    
    23   53   20 1    
    24   21   22 2    
    25   54   21 am   
    26   55   23 1    
    27   55   24 1    
    28   56   25 1    
    29   56   26 1    
    30   34   33 ar   
    31   27   29 2    
    32   27   28 2    
    33   33   32 ar   
    34   33   65 1    
    35   32   31 ar   
    36   31   64 1    
    37    1    2 ar   
    38    1   36 1    
    39   37   47 2    
    40   38   37 1    
    41   38   48 1    
    42   39   38 1    
    43   40   39 1    
    44   40   42 ar   
    45   41   40 ar   
    46   43   41 ar   
    47   46   43 1    
    48   43   45 ar   
    49   45   44 ar   
    50   44   42 ar   
    51   46   50 ar   
    52   46   49 ar   
    53   51   56 1    
    54   52   51 1    
    55   53   52 1    
    56   54   53 1    
    57   54   55 1    
    58   55   56 1    
    59   37   51 am   
    60   48   27 1    
    61   21   57 1    
    62   57   58 1    
    63   57   59 1    
    64    2    3 ar   
    65    2   60 1    
    66    3    4 ar   
    67    3   61 1    
    68    4   62 1    
    69   57   66 1    
@<TRIPOS>SUBSTRUCTURE
     1 TOS1       27 GROUP             0 I     ****    2  
     2 APM2       37 GROUP             0 I     ****    2 ROOT 
     3 PIP3       51 GROUP             0 I     ****    2  
     4 NAPHTHALENE    30 PERM              0 ****  ****    1  
     5 CO         21 PERM              0 ****  ****    1  
@<TRIPOS>SET
UNK_ATOMS       STATIC     ATOMS    AMSOM    **** 
30 27 28 29 0 0 0 0 0 0 0 37 38 39 40 41 42 43 44 45 \
 46 47 48 49 50 51 52 53 54 55 56
LAB$B_TYPE      STATIC     BONDS    LABELGROUP SYSTEM 
0
@<TRIPOS>NORMAL
@<TRIPOS>FF_PBC
FORCE_FIELD_SETUP_FEATURE Force Field Setup information
v1.0  0 0.000000 0.000000 0.000000 0.000000 0.000000 0.000000 NONE 0 0 0 0 0 0 0 0 0 0 0 0 0
