#	Name:			14
#	Creating user name:	jeff
#	Creation time:		Fri Dec 13 10:07:36 2002

#	Modifying user name:	jeff
#	Modification time:	Fri Dec 13 10:07:40 2002

@<TRIPOS>MOLECULE
14
   71    75     4     1     1
SMALL
USER_CHARGES


@<TRIPOS>ATOM
      1 C1          4.881412   -6.006958   15.035960 C.2       4 NAPHTHALENE    0.556500 
      2 C2          5.284488   -4.660209   15.593750 C.ar      4 NAPHTHALENE   -0.170200 
      3 C3          6.606928   -4.222398   15.466335 C.ar      4 NAPHTHALENE   -0.125100 
      4 C4          7.626592   -5.105333   14.782432 C.2       4 NAPHTHALENE    0.515300 
      5 ****        6.792768   -9.171206   10.259286 H         2 APM2        0.108600 
      6 ****        5.257224  -10.513179    8.570147 H         2 APM2        0.200200 
      7 ****        6.153870   -9.124095    7.943860 H         2 APM2        0.148800 
      8 ****        2.793461  -10.455463    8.441757 H         2 APM2        0.200100 
      9 ****        5.046485   -6.956195    7.490707 H         2 APM2        0.183100 
     10 ****        2.970816   -5.690104    7.115511 H         2 APM2        0.205200 
     11 ****        0.788513   -6.761532    7.503284 H         2 APM2        0.161900 
     12 ****        4.103116  -10.135302   10.923825 H         2 APM2        0.408700 
     13 ****       -1.641166   -9.357136    7.156013 H         2 APM2        0.574800 
     14 ****       -0.595284   -8.018875    6.669517 H         2 APM2        0.560600 
     15 ****        0.880221  -11.002185    8.995336 H         2 APM2        0.555700 
     16 ****       -0.789823  -11.073547    8.421254 H         2 APM2        0.581000 
     17 ****        7.016103   -5.968178    8.289012 H         3 PIP3        0.124400 
     18 ****        7.557205   -7.505593    8.964576 H         3 PIP3        0.110300 
     19 ****        9.214375   -5.713882    9.393398 H         3 PIP3        0.086600 
     20 ****        8.519747   -6.300849   10.930932 H         3 PIP3        0.049500 
     21 ****        7.623971   -3.771808    9.399778 H         3 PIP3        0.062300 
     22 C23         8.938346   -3.541984   11.109153 C.3       3 PIP3       -0.450600 
     23 ****        6.161683   -3.346450   11.389765 H         3 PIP3        0.051600 
     24 ****        6.714572   -4.870145   12.130674 H         3 PIP3        0.009600 
     25 ****        4.526864   -5.192660   11.058265 H         3 PIP3        0.133800 
     26 ****        5.144628   -4.614229    9.499493 H         3 PIP3        0.089400 
     27 S           5.933063  -10.486090   12.474874 S.o2      1 TOS1        2.277400 
     28 O1          7.095093  -11.236004   12.038699 O.2       1 TOS1       -0.912500 
     29 O2          4.980389  -11.100671   13.378237 O.2       1 TOS1       -0.924500 
     30 C5          8.159319   -7.262819   13.571241 C.ar      4 NAPHTHALENE   -0.097100 
     31 C6          7.775805   -8.495299   13.035439 C.ar      4 NAPHTHALENE   -0.047500 
     32 C7          6.456139   -8.935160   13.167526 C.ar      4 NAPHTHALENE   -0.530200 
     33 C8          5.523450   -8.130044   13.825837 C.ar      4 NAPHTHALENE   -0.018400 
     34 C9          5.899249   -6.885567   14.344271 C.ar      4 NAPHTHALENE   -0.094600 
     35 C10         7.223046   -6.452007   14.219803 C.ar      4 NAPHTHALENE   -0.031100 
     36 O1          3.726416   -6.387011   15.143467 O.2       4 NAPHTHALENE   -0.482400 
     37 C           5.306787   -7.595375   10.437482 C.2       2 APM2        0.617300 
     38 CA          5.715901   -9.016648   10.094425 C.3       2 APM2        0.341100 
     39 CB          5.347653   -9.417737    8.634185 C.3       2 APM2       -0.529300 
     40 CG          4.046848   -8.743538    8.162737 C.ar      2 APM2        0.214800 
     41 CD1         2.812471   -9.403312    8.190213 C.ar      2 APM2       -0.136500 
     42 CD2         4.096597   -7.433271    7.679499 C.ar      2 APM2       -0.064600 
     43 CE1         1.624062   -8.724474    7.882087 C.ar      2 APM2       -0.403600 
     44 CE2         2.922562   -6.723701    7.431453 C.ar      2 APM2       -0.181800 
     45 CZ          1.690138   -7.355306    7.596681 C.ar      2 APM2       -0.044800 
     46 CF          0.281326   -9.434915    7.843438 C.cat     2 APM2        1.172700 
     47 O           4.297678   -7.527182   11.122347 O.2       2 APM2       -0.632100 
     48 N           5.069851   -9.909096   11.051669 N.am      2 APM2       -1.011600 
     49 NG1        -0.716703   -8.899339    7.185914 N.pl3     2 APM2       -1.064300 
     50 NG2         0.115244  -10.578279    8.456921 N.pl3     2 APM2       -1.041300 
     51 N1          5.962864   -6.465707   10.038016 N.am      3 PIP3       -0.433900 
     52 C2          7.188293   -6.508238    9.232492 C.3       3 PIP3       -0.134900 
     53 C3          8.296593   -5.752556   10.003524 C.3       3 PIP3       -0.084600 
     54 C4          7.827849   -4.311228   10.342564 C.3       3 PIP3        0.093600 
     55 C5          6.518267   -4.366954   11.174085 C.3       3 PIP3        0.024800 
     56 C6          5.422763   -5.156118   10.417258 C.3       3 PIP3       -0.121800 
     57 ****        9.848691   -3.472770   10.492427 H         3 PIP3        0.119800 
     58 ****        9.189678   -4.059477   12.047689 H         3 PIP3        0.128400 
     59 ****        8.603196   -2.520538   11.349464 H         3 PIP3        0.116100 
     60 C2          4.340353   -3.849933   16.236898 C.ar      4 NAPHTHALENE   -0.054800 
     61 C3          6.975517   -2.970643   15.973540 C.ar      4 NAPHTHALENE   -0.071700 
     62 O4          8.782908   -4.728387   14.679342 O.2       4 NAPHTHALENE   -0.463300 
     63 H5          9.191268   -6.939914   13.476602 H         4 NAPHTHALENE    0.189100 
     64 H6          8.505762   -9.108898   12.518812 H         4 NAPHTHALENE    0.197600 
     65 H8          4.503028   -8.480982   13.930891 H         4 NAPHTHALENE    0.195900 
     66 C66         6.032741   -2.163961   16.616240 C.ar      4 NAPHTHALENE   -0.127100 
     67 C67         4.713797   -2.603960   16.749371 C.ar      4 NAPHTHALENE   -0.128400 
     68 ****        3.313100   -4.181302   16.341978 H         4 NAPHTHALENE    0.162500 
     69 ****        7.996568   -2.616233   15.872157 H         4 NAPHTHALENE    0.169100 
     70 ****        6.323311   -1.194703   17.011330 H         4 NAPHTHALENE    0.170200 
     71 ****        3.979703   -1.980167   17.250244 H         4 NAPHTHALENE    0.168200 
@<TRIPOS>BOND
     1   27   32 1    
     2   30   31 ar   
     3   30   35 ar   
     4   30   63 1    
     5   35    4 1    
     6   35   34 ar   
     7   34    1 1    
     8   38    5 1    
     9   39    6 1    
    10   39    7 1    
    11   41    8 1    
    12   42    9 1    
    13   44   10 1    
    14   45   11 1    
    15   48   12 1    
    16   49   13 1    
    17   49   14 1    
    18   50   15 1    
    19   50   16 1    
    20   52   17 1    
    21   52   18 1    
    22   53   19 1    
    23   53   20 1    
    24   54   21 1    
    25   54   22 1    
    26   55   23 1    
    27   55   24 1    
    28   56   25 1    
    29   56   26 1    
    30   34   33 ar   
    31   27   29 2    
    32   27   28 2    
    33   33   32 ar   
    34   33   65 1    
    35   32   31 ar   
    36   31   64 1    
    37    1    2 1    
    38    1   36 2    
    39   37   47 2    
    40   38   37 1    
    41   38   48 1    
    42   39   38 1    
    43   40   39 1    
    44   40   42 ar   
    45   41   40 ar   
    46   43   41 ar   
    47   46   43 1    
    48   43   45 ar   
    49   45   44 ar   
    50   44   42 ar   
    51   46   50 ar   
    52   46   49 ar   
    53   51   56 1    
    54   52   51 1    
    55   53   52 1    
    56   54   53 1    
    57   54   55 1    
    58   55   56 1    
    59   37   51 am   
    60   48   27 1    
    61   22   57 1    
    62   22   58 1    
    63   22   59 1    
    64    2    3 ar   
    65    2   60 ar   
    66    3    4 1    
    67    3   61 ar   
    68    4   62 2    
    69   61   66 ar   
    70   60   67 ar   
    71   66   67 ar   
    72   60   68 1    
    73   61   69 1    
    74   66   70 1    
    75   67   71 1    
@<TRIPOS>SUBSTRUCTURE
     1 TOS1       27 GROUP             0 I     ****    2  
     2 APM2       37 GROUP             0 I     ****    2 ROOT 
     3 PIP3       51 GROUP             0 I     ****    1  
     4 NAPHTHALENE    30 PERM              0 ****  ****    1  
@<TRIPOS>SET
UNK_ATOMS       STATIC     ATOMS    AMSOM    **** 
30 27 28 29 0 0 0 0 0 0 0 37 38 39 40 41 42 43 44 45 \
 46 47 48 49 50 51 52 53 54 55 56
@<TRIPOS>NORMAL
@<TRIPOS>FF_PBC
FORCE_FIELD_SETUP_FEATURE Force Field Setup information
v1.0  0 0.000000 0.000000 0.000000 0.000000 0.000000 0.000000 NONE 0 0 0 0 0 0 0 0 0 0 0 0 0
