#	Name:			15
#	Creating user name:	jeff
#	Creation time:		Fri Dec 13 10:07:40 2002

#	Modifying user name:	jeff
#	Modification time:	Fri Dec 13 10:07:44 2002

@<TRIPOS>MOLECULE
15
   62    64     3     1     1
SMALL
USER_CHARGES


@<TRIPOS>ATOM
      1 ****        3.872631   -8.695493   14.067976 H         1 TOS1        0.188700 
      2 ****        4.070313   -6.536046   15.243080 H         1 TOS1        0.199400 
      3 ****        8.281254   -6.467779   14.397116 H         1 TOS1        0.204500 
      4 ****        8.078138   -8.630515   13.218871 H         1 TOS1        0.182100 
      5 ****        6.318119   -4.948255   15.542957 C.3       1 TOS1       -0.379300 
      6 ****        5.354985   -4.582487   15.926244 H         1 TOS1        0.118600 
      7 ****        6.696349   -4.218227   14.816807 H         1 TOS1        0.114800 
      8 ****        6.759117   -9.288345   10.433693 H         2 APM2        0.130200 
      9 ****        5.231980  -10.453977    8.668684 H         2 APM2        0.180600 
     10 ****        6.155589   -9.073698    8.099654 H         2 APM2        0.146800 
     11 ****        2.789176  -10.313017    8.569262 H         2 APM2        0.205300 
     12 ****        5.108830   -6.816470    7.748088 H         2 APM2        0.179500 
     13 ****        3.101320   -5.683862    6.888254 H         2 APM2        0.198600 
     14 ****        0.906127   -6.748213    7.035310 H         2 APM2        0.163900 
     15 ****        4.029159  -10.074498   11.054129 H         2 APM2        0.374300 
     16 ****       -1.563130   -9.520061    6.928989 H         2 APM2        0.565600 
     17 ****       -0.505754   -8.299417    6.225554 H         2 APM2        0.554500 
     18 ****        0.721118  -10.642390    9.309569 H         2 APM2        0.540200 
     19 ****       -0.856417  -10.864474    8.559060 H         2 APM2        0.572400 
     20 ****        7.564954   -6.271443    8.425260 H         3 PIP3        0.118100 
     21 ****        7.821822   -7.850260    9.185350 H         3 PIP3        0.104900 
     22 ****        9.668792   -6.326413    9.766334 H         3 PIP3        0.087800 
     23 ****        8.750142   -6.795569   11.221467 H         3 PIP3        0.050200 
     24 ****        8.430761   -4.156804    9.656120 H         3 PIP3        0.060500 
     25 C25         9.558578   -4.128446   11.500901 C.3       3 PIP3       -0.500500 
     26 ****        6.820513   -3.510860   11.472937 H         3 PIP3        0.067700 
     27 ****        7.015919   -5.115122   12.221996 H         3 PIP3        0.060300 
     28 ****        4.946801   -5.038866   10.851915 H         3 PIP3        0.128000 
     29 ****        5.882183   -4.595451    9.416532 H         3 PIP3        0.098800 
     30 S           5.752211  -10.345441   12.684180 S.o2      1 TOS1        2.244500 
     31 O1          7.062010  -10.885654   12.371020 O.2       1 TOS1       -0.926300 
     32 O2          4.827645  -11.168748   13.441945 O.2       1 TOS1       -0.958500 
     33 C1          5.953835   -8.802991   13.549273 C.ar      1 TOS1       -0.511500 
     34 C2          4.836721   -8.203269   14.131973 C.ar      1 TOS1       -0.046400 
     35 C3          4.951278   -6.975755   14.789940 C.ar      1 TOS1       -0.250200 
     36 C4          6.184453   -6.320862   14.866503 C.ar      1 TOS1        0.306700 
     37 C5          7.310345   -6.942465   14.313692 C.ar      1 TOS1       -0.277100 
     38 C6          7.197501   -8.170283   13.653139 C.ar      1 TOS1       -0.027500 
     39 ****        7.024414   -5.009446   16.385702 H         1 TOS1        0.122100 
     40 C           5.469543   -7.560100   10.517124 C.2       2 APM2        0.706000 
     41 CA          5.710850   -9.029428   10.247062 C.3       2 APM2        0.224300 
     42 CB          5.332664   -9.364669    8.765733 C.3       2 APM2       -0.487100 
     43 CG          4.063060   -8.643617    8.251225 C.ar      2 APM2        0.196000 
     44 CD1         2.815408   -9.285229    8.233036 C.ar      2 APM2       -0.140400 
     45 CD2         4.156326   -7.332609    7.767920 C.ar      2 APM2       -0.057400 
     46 CE1         1.642820   -8.650596    7.783491 C.ar      2 APM2       -0.368000 
     47 CE2         3.015016   -6.686826    7.296726 C.ar      2 APM2       -0.167000 
     48 CZ          1.767501   -7.323628    7.347897 C.ar      2 APM2       -0.062600 
     49 CF          0.298363   -9.374247    7.766168 C.cat     2 APM2        1.109800 
     50 O           4.453995   -7.325825   11.145322 O.2       2 APM2       -0.644700 
     51 N           4.990571   -9.836707   11.233032 N.am      2 APM2       -0.923100 
     52 NG1        -0.647824   -9.041968    6.920175 N.pl3     2 APM2       -1.039200 
     53 NG2         0.041168  -10.356807    8.597340 N.pl3     2 APM2       -0.993900 
     54 N1          6.295159   -6.548784   10.084769 N.am      3 PIP3       -0.497100 
     55 C2          7.568801   -6.797665    9.396387 C.3       3 PIP3       -0.078200 
     56 C3          8.701688   -6.216507   10.285657 C.3       3 PIP3       -0.127900 
     57 C4          8.430378   -4.722607   10.606642 C.3       3 PIP3        0.155000 
     58 C5          7.034449   -4.570233   11.269843 C.3       3 PIP3       -0.071800 
     59 C6          5.926474   -5.162663   10.364311 C.3       3 PIP3       -0.091400 
     60 ****       10.540574   -4.224331   11.003998 H         3 PIP3        0.130400 
     61 ****        9.608755   -4.650073   12.469432 H         3 PIP3        0.130200 
     62 ****        9.378007   -3.056423   11.691364 H         3 PIP3        0.127800 
@<TRIPOS>BOND
     1   34    1 1    
     2   35    2 1    
     3   37    3 1    
     4   38    4 1    
     5   36    5 1    
     6    5    6 1    
     7    5    7 1    
     8   41    8 1    
     9   42    9 1    
    10   42   10 1    
    11   44   11 1    
    12   45   12 1    
    13   47   13 1    
    14   48   14 1    
    15   51   15 1    
    16   52   16 1    
    17   52   17 1    
    18   53   18 1    
    19   53   19 1    
    20   55   20 1    
    21   55   21 1    
    22   56   22 1    
    23   56   23 1    
    24   57   24 1    
    25   57   25 1    
    26   58   26 1    
    27   58   27 1    
    28   59   28 1    
    29   59   29 1    
    30   33   30 1    
    31   30   32 2    
    32   30   31 2    
    33   33   38 ar   
    34   34   33 ar   
    35   35   34 ar   
    36   36   35 ar   
    37    5   39 1    
    38   36   37 ar   
    39   37   38 ar   
    40   40   50 2    
    41   41   40 1    
    42   41   51 1    
    43   42   41 1    
    44   43   42 1    
    45   43   45 ar   
    46   44   43 ar   
    47   46   44 ar   
    48   49   46 1    
    49   46   48 ar   
    50   48   47 ar   
    51   47   45 ar   
    52   49   53 ar   
    53   49   52 ar   
    54   54   59 1    
    55   55   54 1    
    56   56   55 1    
    57   57   56 1    
    58   57   58 1    
    59   58   59 1    
    60   40   54 am   
    61   51   30 1    
    62   25   60 1    
    63   25   61 1    
    64   25   62 1    
@<TRIPOS>SUBSTRUCTURE
     1 TOS1       30 GROUP             0 I     ****    1  
     2 APM2       40 GROUP             0 I     ****    2 ROOT 
     3 PIP3       54 GROUP             0 I     ****    1  
@<TRIPOS>SET
UNK_ATOMS       STATIC     ATOMS    AMSOM    **** 
30 30 31 32 33 34 35 36 37 38 0 40 41 42 43 44 45 46 47 48 \
 49 50 51 52 53 54 55 56 57 58 59
@<TRIPOS>NORMAL
@<TRIPOS>FF_PBC
FORCE_FIELD_SETUP_FEATURE Force Field Setup information
v1.0  0 0.000000 0.000000 0.000000 0.000000 0.000000 0.000000 NONE 0 0 0 0 0 0 0 0 0 0 0 0 0
