#	Name:			16
#	Creating user name:	jeff
#	Creation time:		Fri Dec 13 10:07:44 2002

#	Modifying user name:	jeff
#	Modification time:	Fri Dec 13 10:07:48 2002

@<TRIPOS>MOLECULE
16
   74    76     4     1     1
SMALL
USER_CHARGES


@<TRIPOS>ATOM
      1 C1          3.628811   -8.425739   13.628981 C.3       1 TOS1       -0.242900 
      2 ****        4.472967   -6.278369   14.606593 H         1 TOS1        0.238300 
      3 C3          9.153278   -6.594559   14.503604 C.3       1 TOS1       -0.235900 
      4 C4          8.771966   -9.338101   13.457518 C.3       1 TOS1       -0.235600 
      5 ****        6.842288   -5.053527   15.080539 O.3       1 TOS1       -0.327000 
      6 ****        5.762060   -4.152002   15.413531 C.3       1 TOS1       -0.086100 
      7 ****        6.206066   -3.211867   15.775604 H         1 TOS1        0.141800 
      8 ****        6.745621   -9.279220   10.431169 H         2 APM2        0.126900 
      9 ****        5.213384  -10.450740    8.685481 H         2 APM2        0.191900 
     10 ****        6.152067   -9.070439    8.106093 H         2 APM2        0.135100 
     11 ****        2.792440  -10.309976    8.582337 H         2 APM2        0.212000 
     12 ****        5.101277   -6.814038    7.751061 H         2 APM2        0.189800 
     13 ****        3.089975   -5.683741    6.884937 H         2 APM2        0.202200 
     14 ****        0.905567   -6.752834    7.018290 H         2 APM2        0.164700 
     15 ****        4.028739  -10.118250   10.976771 H         2 APM2        0.426500 
     16 ****       -1.594246   -9.434316    7.008904 H         2 APM2        0.574600 
     17 ****       -0.569342   -8.150951    6.378370 H         2 APM2        0.560700 
     18 ****        0.815674  -10.787101    9.156880 H         2 APM2        0.553000 
     19 ****       -0.800939  -10.939146    8.482220 H         2 APM2        0.579500 
     20 ****        7.559551   -6.298605    8.435607 H         3 PIP3        0.175600 
     21 ****        7.871123   -7.835355    9.238799 H         3 PIP3        0.110900 
     22 ****        9.665068   -6.167187    9.678245 H         3 PIP3        0.121700 
     23 ****        8.873657   -6.727224   11.180732 H         3 PIP3        0.119200 
     24 ****       10.886939   -3.764900   10.978420 C.3       4 SULFONYL   -0.773200 
     25 S1          9.321487   -3.483438   10.123286 S.o2      4 SULFONYL    2.297000 
     26 ****        6.871756   -3.481961   11.475635 H         3 PIP3        0.119000 
     27 ****        7.083372   -5.077920   12.238067 H         3 PIP3        0.081800 
     28 ****        4.985901   -4.995388   10.853494 H         3 PIP3        0.123200 
     29 ****        5.954186   -4.585376    9.421879 H         3 PIP3        0.116800 
     30 S           5.780293  -10.447474   12.609663 S.o2      1 TOS1        2.455700 
     31 O1          6.940674  -11.177538   12.148617 O.2       1 TOS1       -0.974500 
     32 O2          4.826829  -11.143310   13.456147 O.2       1 TOS1       -0.977000 
     33 C1          6.222753   -8.894301   13.405493 C.ar      1 TOS1       -0.847300 
     34 C2          5.130413   -8.092106   13.767574 C.ar      1 TOS1        0.313300 
     35 C3          5.354073   -6.840517   14.335688 C.ar      1 TOS1       -0.475800 
     36 C4          6.638178   -6.342393   14.551058 C.ar      1 TOS1        0.510500 
     37 C5          7.737273   -7.155339   14.232282 C.ar      1 TOS1       -0.289100 
     38 C6          7.532834   -8.442421   13.692543 C.ar      1 TOS1        0.332700 
     39 ****        5.093092   -4.510237   16.208477 H         1 TOS1        0.099300 
     40 C           5.474971   -7.530283   10.487658 C.2       2 APM2        0.500000 
     41 CA          5.698846   -9.007030   10.240823 C.3       2 APM2        0.366700 
     42 CB          5.326350   -9.358946    8.772152 C.3       2 APM2       -0.504600 
     43 CG          4.060812   -8.641090    8.258240 C.ar      2 APM2        0.238500 
     44 CD1         2.816983   -9.284596    8.241494 C.ar      2 APM2       -0.175300 
     45 CD2         4.150696   -7.334350    7.770323 C.ar      2 APM2       -0.066800 
     46 CE1         1.647713   -8.652498    7.785151 C.ar      2 APM2       -0.370500 
     47 CE2         3.008307   -6.687882    7.292044 C.ar      2 APM2       -0.165300 
     48 CZ          1.768528   -7.325353    7.336495 C.ar      2 APM2       -0.069200 
     49 CF          0.305609   -9.373125    7.768092 C.cat     2 APM2        1.154000 
     50 O           4.425197   -7.273479   11.052165 O.2       2 APM2       -0.588500 
     51 N           4.967802   -9.841638   11.191245 N.am      2 APM2       -1.085600 
     52 NG1        -0.680389   -8.955912    7.006228 N.pl3     2 APM2       -1.064900 
     53 NG2         0.097748  -10.434769    8.513695 N.pl3     2 APM2       -1.036000 
     54 N1          6.329561   -6.533135   10.106944 N.am      3 PIP3       -0.415100 
     55 C2          7.600086   -6.789852    9.420487 C.3       3 PIP3       -0.114900 
     56 C3          8.730168   -6.143103   10.258109 C.3       3 PIP3        0.096600 
     57 N4          8.346193   -4.779231   10.605188 N.am      3 PIP3       -1.030000 
     58 C5          7.074182   -4.545640   11.277565 C.3       3 PIP3        0.218300 
     59 C6          5.967689   -5.138105   10.375595 C.3       3 PIP3       -0.070800 
     60 O           8.771873   -2.241546   10.631962 O.2       4 SULFONYL   -0.926700 
     61 O           9.556693   -3.607016    8.698494 O.2       4 SULFONYL   -0.969100 
     62 ****       10.733401   -3.728539   12.066964 H         4 SULFONYL    0.248700 
     63 ****       11.583609   -2.965131   10.685762 H         4 SULFONYL    0.258000 
     64 ****       11.326991   -4.733958   10.704632 H         4 SULFONYL    0.241400 
     65 ****        5.149631   -3.942752   14.525614 H         1 TOS1        0.073200 
     66 ****        3.370146   -9.344269   13.102688 H         1 TOS1        0.057500 
     67 ****        3.112454   -7.605239   13.106490 H         1 TOS1        0.083900 
     68 ****        3.205277   -8.490028   14.642966 H         1 TOS1        0.136500 
     69 ****        9.154298   -5.578550   14.916432 H         1 TOS1        0.093600 
     70 ****        9.729357   -6.555464   13.565332 H         1 TOS1        0.075500 
     71 ****        9.678657   -7.219761   15.243742 H         1 TOS1        0.127200 
     72 ****        8.904409   -9.630449   12.408139 H         1 TOS1        0.078600 
     73 ****        8.687886  -10.233932   14.087229 H         1 TOS1        0.129000 
     74 ****        9.719596   -8.869039   13.736728 H         1 TOS1        0.088900 
@<TRIPOS>BOND
     1   34    1 1    
     2   35    2 1    
     3   37    3 1    
     4   38    4 1    
     5   36    5 1    
     6    5    6 1    
     7    6    7 1    
     8   41    8 1    
     9   42    9 1    
    10   42   10 1    
    11   44   11 1    
    12   45   12 1    
    13   47   13 1    
    14   48   14 1    
    15   51   15 1    
    16   52   16 1    
    17   52   17 1    
    18   53   18 1    
    19   53   19 1    
    20   55   20 1    
    21   55   21 1    
    22   56   22 1    
    23   56   23 1    
    24   57   25 1    
    25   25   60 2    
    26   58   26 1    
    27   58   27 1    
    28   59   28 1    
    29   59   29 1    
    30   33   30 1    
    31   30   32 2    
    32   30   31 2    
    33   33   38 ar   
    34   34   33 ar   
    35   35   34 ar   
    36   36   35 ar   
    37    6   39 1    
    38   36   37 ar   
    39   37   38 ar   
    40   40   50 2    
    41   41   40 1    
    42   41   51 1    
    43   42   41 1    
    44   43   42 1    
    45   43   45 ar   
    46   44   43 ar   
    47   46   44 ar   
    48   49   46 1    
    49   46   48 ar   
    50   48   47 ar   
    51   47   45 ar   
    52   49   53 ar   
    53   49   52 ar   
    54   54   59 1    
    55   55   54 1    
    56   56   55 1    
    57   57   56 1    
    58   57   58 1    
    59   58   59 1    
    60   40   54 am   
    61   51   30 1    
    62   25   61 2    
    63   25   24 1    
    64   24   62 1    
    65   24   63 1    
    66   24   64 1    
    67    6   65 1    
    68    1   66 1    
    69    1   67 1    
    70    1   68 1    
    71    3   69 1    
    72    3   70 1    
    73    3   71 1    
    74    4   72 1    
    75    4   73 1    
    76    4   74 1    
@<TRIPOS>SUBSTRUCTURE
     1 TOS1       30 GROUP             0 I     ****    1  
     2 APM2       40 GROUP             0 I     ****    2 ROOT 
     3 PIP3       54 GROUP             0 I     ****    2  
     4 SULFONYL    25 PERM              0 ****  ****    1  
@<TRIPOS>SET
UNK_ATOMS       STATIC     ATOMS    AMSOM    **** 
30 30 31 32 33 34 35 36 37 38 0 40 41 42 43 44 45 46 47 48 \
 49 50 51 52 53 54 55 56 57 58 59
@<TRIPOS>NORMAL
@<TRIPOS>FF_PBC
FORCE_FIELD_SETUP_FEATURE Force Field Setup information
v1.0  0 0.000000 0.000000 0.000000 0.000000 0.000000 0.000000 NONE 0 0 0 0 0 0 0 0 0 0 0 0 0
