#	Name:			17
#	Creating user name:	jeff
#	Creation time:		Fri Dec 13 10:07:48 2002

#	Modifying user name:	jeff
#	Modification time:	Fri Dec 13 10:07:52 2002

@<TRIPOS>MOLECULE
17
   73    76     4     1     2
SMALL
USER_CHARGES


@<TRIPOS>ATOM
      1 C1          3.933970   -6.486054   15.569392 C.3       4 NAPHTHALENE   -0.136400 
      2 C2          4.218565   -4.995969   15.880462 C.3       4 NAPHTHALENE   -0.230900 
      3 C3          5.677923   -4.802609   16.379284 C.3       4 NAPHTHALENE    0.628600 
      4 ****        6.774955   -9.309771   10.397542 H         2 APM2        0.131300 
      5 ****        5.241165  -10.489631    8.662294 H         2 APM2        0.179000 
      6 ****        6.159756   -9.111432    8.051477 H         2 APM2        0.149800 
      7 ****        2.796644  -10.379570    8.515490 H         2 APM2        0.203100 
      8 ****        5.108754   -6.854326    7.746294 H         2 APM2        0.188000 
      9 ****        3.074599   -5.674481    7.005825 H         2 APM2        0.199800 
     10 ****        0.877911   -6.757309    7.177859 H         2 APM2        0.164400 
     11 ****        3.978551   -9.946162   11.006853 H         2 APM2        0.377400 
     12 ****       -1.583821   -9.372856    7.051651 H         2 APM2        0.565000 
     13 ****       -0.534543   -8.071125    6.482755 H         2 APM2        0.549000 
     14 ****        0.880139  -10.853092    9.093775 H         2 APM2        0.534600 
     15 ****       -0.768606  -10.973114    8.471044 H         2 APM2        0.567400 
     16 ****        7.554121   -6.222976    8.432993 H         3 PIP3        0.105700 
     17 ****        7.816466   -7.816181    9.137067 H         3 PIP3        0.090000 
     18 ****        9.665446   -6.316400    9.776722 H         3 PIP3        0.095200 
     19 ****        8.726544   -6.805170   11.216311 H         3 PIP3        0.064300 
     20 ****        8.443277   -4.139595    9.690009 H         3 PIP3        0.067000 
     21 C21         9.534805   -4.178277   11.569985 C.3       3 PIP3       -0.508800 
     22 ****        6.818471   -3.493765   11.471955 H         3 PIP3        0.071400 
     23 ****        7.014550   -5.085958   12.255302 H         3 PIP3        0.075700 
     24 ****        4.951253   -5.050951   10.893473 H         3 PIP3        0.129500 
     25 ****        5.867336   -4.600058    9.444533 H         3 PIP3        0.092700 
     26 S           5.706362  -10.467947   12.610882 S.o2      1 TOS1        2.293300 
     27 O1          6.987091  -11.060898   12.275646 O.2       1 TOS1       -0.943300 
     28 O2          4.728503  -11.247058   13.344595 O.2       1 TOS1       -0.960800 
     29 O4          6.586984   -5.257614   15.365444 O.3       4 NAPHTHALENE   -0.527000 
     30 C5          7.434086   -7.123683   14.112536 C.ar      4 NAPHTHALENE   -0.390700 
     31 C6          7.238971   -8.333432   13.443532 C.ar      4 NAPHTHALENE    0.026400 
     32 C7          5.981945   -8.942047   13.469301 C.ar      4 NAPHTHALENE   -0.579700 
     33 C8          4.924110   -8.327533   14.144405 C.ar      4 NAPHTHALENE   -0.112100 
     34 C9          5.112165   -7.113881   14.813268 C.ar      4 NAPHTHALENE   -0.082200 
     35 C10         6.371482   -6.500770   14.773463 C.ar      4 NAPHTHALENE    0.496300 
     36 C           5.490096   -7.567019   10.500699 C.2       2 APM2        0.638100 
     37 CA          5.728185   -9.033852   10.206272 C.3       2 APM2        0.272600 
     38 CB          5.349987   -9.396605    8.739312 C.3       2 APM2       -0.496600 
     39 CG          4.074921   -8.685739    8.246584 C.ar      2 APM2        0.205300 
     40 CD1         2.834259   -9.337120    8.223963 C.ar      2 APM2       -0.137700 
     41 CD2         4.154040   -7.366371    7.788257 C.ar      2 APM2       -0.070800 
     42 CE1         1.666102   -8.674414    7.819081 C.ar      2 APM2       -0.343200 
     43 CE2         3.003716   -6.693931    7.373270 C.ar      2 APM2       -0.167900 
     44 CZ          1.761910   -7.331634    7.432188 C.ar      2 APM2       -0.065200 
     45 CF          0.320100   -9.385030    7.792113 C.cat     2 APM2        1.062200 
     46 O           4.478257   -7.344256   11.147353 O.2       2 APM2       -0.626000 
     47 N           4.961957   -9.835834   11.154179 N.am      2 APM2       -0.956200 
     48 NG1        -0.662208   -8.909406    7.065924 N.pl3     2 APM2       -1.019600 
     49 NG2         0.134708  -10.475496    8.493882 N.pl3     2 APM2       -0.973500 
     50 N1          6.302847   -6.548222   10.089133 N.am      3 PIP3       -0.483900 
     51 C2          7.567950   -6.778087    9.384189 C.3       3 PIP3       -0.034600 
     52 C3          8.692791   -6.214661   10.286935 C.3       3 PIP3       -0.156500 
     53 C4          8.426678   -4.722425   10.628167 C.3       3 PIP3        0.133800 
     54 C5          7.029418   -4.560533   11.288306 C.3       3 PIP3       -0.078000 
     55 C6          5.924222   -5.164793   10.388910 C.3       3 PIP3       -0.087700 
     56 ****       10.524617   -4.278060   11.098065 H         3 PIP3        0.132800 
     57 ****        9.540322   -4.739305   12.517145 H         3 PIP3        0.139500 
     58 ****        9.360544   -3.114456   11.793771 H         3 PIP3        0.130300 
     59 H5          8.416531   -6.662280   14.114470 H         4 NAPHTHALENE    0.241900 
     60 H6          8.061653   -8.794428   12.907391 H         4 NAPHTHALENE    0.190500 
     61 H8          3.947681   -8.798738   14.147366 H         4 NAPHTHALENE    0.212800 
     62 ****        3.769785   -7.060529   16.494699 H         4 NAPHTHALENE    0.078100 
     63 ****        3.014166   -6.562589   14.966003 H         4 NAPHTHALENE    0.095600 
     64 ****        4.084042   -4.422440   14.948730 H         4 NAPHTHALENE    0.068800 
     65 ****        3.496080   -4.616297   16.621862 H         4 NAPHTHALENE    0.100900 
     66 C18         5.988874   -3.288747   16.530846 C.3       4 NAPHTHALENE   -0.447400 
     67 C19         5.941186   -5.543587   17.723431 C.3       4 NAPHTHALENE   -0.359900 
     68 ****        5.331800   -2.825058   17.281225 H         4 NAPHTHALENE    0.121400 
     69 ****        5.840799   -2.776869   15.566516 H         4 NAPHTHALENE    0.097700 
     70 ****        7.037097   -3.140710   16.833702 H         4 NAPHTHALENE    0.138400 
     71 ****        5.242905   -5.184880   18.495340 H         4 NAPHTHALENE    0.107400 
     72 ****        6.968103   -5.350265   18.068830 H         4 NAPHTHALENE    0.103800 
     73 ****        5.826237   -6.633108   17.628380 H         4 NAPHTHALENE    0.081700 
@<TRIPOS>BOND
     1   26   32 1    
     2   30   31 ar   
     3   30   35 ar   
     4   30   59 1    
     5   35   29 1    
     6   35   34 ar   
     7   34    1 1    
     8   37    4 1    
     9   38    5 1    
    10   38    6 1    
    11   40    7 1    
    12   41    8 1    
    13   43    9 1    
    14   44   10 1    
    15   47   11 1    
    16   48   12 1    
    17   48   13 1    
    18   49   14 1    
    19   49   15 1    
    20   51   16 1    
    21   51   17 1    
    22   52   18 1    
    23   52   19 1    
    24   53   20 1    
    25   53   21 1    
    26   54   22 1    
    27   54   23 1    
    28   55   24 1    
    29   55   25 1    
    30   34   33 ar   
    31   26   28 2    
    32   26   27 2    
    33   33   61 1    
    34   33   32 ar   
    35   32   31 ar   
    36   31   60 1    
    37    1   63 1    
    38   36   46 2    
    39   37   36 1    
    40   37   47 1    
    41   38   37 1    
    42   39   38 1    
    43   39   41 ar   
    44   40   39 ar   
    45   42   40 ar   
    46   45   42 1    
    47   42   44 ar   
    48   44   43 ar   
    49   43   41 ar   
    50   45   49 ar   
    51   45   48 ar   
    52   50   55 1    
    53   51   50 1    
    54   52   51 1    
    55   53   52 1    
    56   53   54 1    
    57   54   55 1    
    58   36   50 am   
    59   47   26 1    
    60   21   56 1    
    61   21   57 1    
    62   21   58 1    
    63    1   62 1    
    64    1    2 1    
    65    2    3 1    
    66    2   65 1    
    67    2   64 1    
    68    3   67 1    
    69    3   66 1    
    70    3   29 1    
    71   66   70 1    
    72   66   69 1    
    73   66   68 1    
    74   67   73 1    
    75   67   72 1    
    76   67   71 1    
@<TRIPOS>SUBSTRUCTURE
     1 TOS1       26 GROUP             0 I     ****    2  
     2 APM2       36 GROUP             0 I     ****    2 ROOT 
     3 PIP3       50 GROUP             0 I     ****    1  
     4 NAPHTHALENE    30 PERM              0 ****  ****    1  
@<TRIPOS>SET
UNK_ATOMS       STATIC     ATOMS    AMSOM    **** 
30 26 27 28 0 0 0 0 0 0 0 36 37 38 39 40 41 42 43 44 \
 45 46 47 48 49 50 51 52 53 54 55
LAB$B_TYPE      STATIC     BONDS    LABELGROUP SYSTEM 
0
@<TRIPOS>NORMAL
@<TRIPOS>FF_PBC
FORCE_FIELD_SETUP_FEATURE Force Field Setup information
v1.0  0 0.000000 0.000000 0.000000 0.000000 0.000000 0.000000 NONE 0 0 0 0 0 0 0 0 0 0 0 0 0
