#	Name:			18
#	Creating user name:	jeff
#	Creation time:		Fri Dec 13 10:07:52 2002

#	Modifying user name:	jeff
#	Modification time:	Fri Dec 13 10:07:56 2002

@<TRIPOS>MOLECULE
18
   66    70     4     1     2
SMALL
USER_CHARGES


@<TRIPOS>ATOM
      1 C1          4.088614   -6.004769   14.949910 C.ar      4 NAPHTHALENE   -0.246400 
      2 C2          4.384840   -4.764486   15.526280 C.ar      4 NAPHTHALENE   -0.129000 
      3 C3          5.700580   -4.295978   15.528334 C.ar      4 NAPHTHALENE   -0.046600 
      4 C4          6.713694   -5.055611   14.940884 C.ar      4 NAPHTHALENE   -0.310500 
      5 H5          6.781657   -9.415625   10.355476 H         2 APM2        0.110300 
      6 H6          5.447986  -10.403184    8.418363 H         2 APM2        0.151000 
      7 H7          6.297514   -8.909402    7.985042 H         2 APM2        0.086900 
      8 H8          3.035068  -10.411855    8.396832 H         2 APM2        0.214100 
      9 H9          5.061855   -6.810645    7.636674 H         2 APM2        0.180900 
     10 H10         2.974193   -5.632542    7.090049 H         2 APM2        0.197400 
     11 H11         0.863267   -6.805828    7.258128 H         2 APM2        0.167600 
     12 H12         3.927012   -9.967514   10.707853 H         2 APM2        0.403300 
     13 H13        -1.516075   -9.554447    7.467336 H         2 APM2        0.570700 
     14 H14        -0.615530   -8.219612    6.791145 H         2 APM2        0.555800 
     15 H15         1.207343  -10.920525    9.257822 H         2 APM2        0.547300 
     16 H16        -0.462935  -11.123395    8.801087 H         2 APM2        0.576500 
     17 C1          6.092136   -5.248153   10.576876 C.3       3 TETRAHYDROISOQUINOLINE   -0.075700 
     18 N1          6.483013   -6.603902   10.186647 N.am      3 TETRAHYDROISOQUINOLINE   -0.365300 
     19 C2          7.737469   -6.831085    9.463207 C.3       3 TETRAHYDROISOQUINOLINE    0.067300 
     20 C3          8.864566   -6.052587   10.184002 C.3       3 TETRAHYDROISOQUINOLINE   -0.242500 
     21 C4          9.490756   -3.587789    9.987470 C.ar      3 TETRAHYDROISOQUINOLINE   -0.209400 
     22 C5          9.132256   -2.241003    9.877512 C.ar      3 TETRAHYDROISOQUINOLINE   -0.130800 
     23 C6          7.786093   -1.871599    9.930048 C.ar      3 TETRAHYDROISOQUINOLINE   -0.127900 
     24 C7          6.803531   -2.844516   10.137298 C.ar      3 TETRAHYDROISOQUINOLINE   -0.233300 
     25 C8          7.162589   -4.188875   10.285294 C.ar      3 TETRAHYDROISOQUINOLINE    0.068500 
     26 S           5.436323  -10.387314   12.552068 S.o2      1 TOS1        2.256100 
     27 O1          6.653430  -11.157047   12.383222 O.2       1 TOS1       -0.922300 
     28 O2          4.313796  -10.961967   13.267810 O.2       1 TOS1       -0.956300 
     29 C5          7.430538   -7.063510   13.771730 C.ar      4 NAPHTHALENE   -0.271400 
     30 C6          7.137533   -8.314122   13.217763 C.ar      4 NAPHTHALENE   -0.105600 
     31 C7          5.831068   -8.807990   13.262754 C.ar      4 NAPHTHALENE   -0.452800 
     32 C8          4.817299   -8.034587   13.829181 C.ar      4 NAPHTHALENE   -0.190700 
     33 C9          5.104041   -6.777918   14.381802 C.ar      4 NAPHTHALENE    0.174300 
     34 C10         6.421221   -6.299572   14.362799 C.ar      4 NAPHTHALENE    0.200300 
     35 H1          3.060827   -6.355555   14.952545 H         4 NAPHTHALENE    0.189200 
     36 C           5.588060   -7.599924   10.447585 C.2       2 APM2        0.500400 
     37 CA          5.770277   -9.063649   10.107684 C.3       2 APM2        0.276800 
     38 CB          5.483854   -9.318316    8.603222 C.3       2 APM2       -0.344200 
     39 CG          4.164110   -8.658854    8.169785 C.ar      2 APM2        0.168200 
     40 CD1         2.960911   -9.358467    8.177191 C.ar      2 APM2       -0.170100 
     41 CD2         4.135396   -7.336442    7.733677 C.ar      2 APM2       -0.041800 
     42 CE1         1.748578   -8.715520    7.889695 C.ar      2 APM2       -0.359500 
     43 CE2         2.955051   -6.672332    7.407123 C.ar      2 APM2       -0.166700 
     44 CZ          1.754447   -7.367818    7.497490 C.ar      2 APM2       -0.074800 
     45 CF          0.446485   -9.484283    8.004946 C.cat     2 APM2        1.133500 
     46 O           4.526836   -7.333684   10.991221 O.2       2 APM2       -0.610900 
     47 N           4.883121   -9.837878   10.968712 N.am      2 APM2       -0.983200 
     48 NG1        -0.625990   -9.053574    7.386052 N.pl3     2 APM2       -1.049400 
     49 NG2         0.400686  -10.578975    8.726591 N.pl3     2 APM2       -1.016300 
     50 C9          8.504641   -4.564842   10.158917 C.ar      3 TETRAHYDROISOQUINOLINE    0.019900 
     51 H1          5.894812   -5.210357   11.659269 H         3 TETRAHYDROISOQUINOLINE    0.119200 
     52 H2          5.168332   -4.978975   10.038952 H         3 TETRAHYDROISOQUINOLINE    0.086800 
     53 ****        7.614484   -6.415137    8.450431 H         3 TETRAHYDROISOQUINOLINE    0.087900 
     54 H6          9.822047   -6.227830    9.665186 H         3 TETRAHYDROISOQUINOLINE    0.130100 
     55 H7          8.960084   -6.392292   11.226862 H         3 TETRAHYDROISOQUINOLINE    0.096000 
     56 H8         10.537079   -3.870628    9.932714 H         3 TETRAHYDROISOQUINOLINE    0.183200 
     57 H2          3.594173   -4.168952   15.970972 H         4 NAPHTHALENE    0.165600 
     58 H3          5.934478   -3.339918   15.987817 H         4 NAPHTHALENE    0.157800 
     59 H4          7.729897   -4.673846   14.937917 H         4 NAPHTHALENE    0.196800 
     60 H5          8.451885   -6.696664   13.737898 H         4 NAPHTHALENE    0.208400 
     61 H6          7.926057   -8.896672   12.755038 H         4 NAPHTHALENE    0.194600 
     62 H8          3.801858   -8.415764   13.835880 H         4 NAPHTHALENE    0.220000 
     63 H9          9.899451   -1.483635    9.749756 H         3 TETRAHYDROISOQUINOLINE    0.168800 
     64 H10         7.503626   -0.829865    9.811857 H         3 TETRAHYDROISOQUINOLINE    0.167000 
     65 H11         5.759720   -2.549056   10.181012 H         3 TETRAHYDROISOQUINOLINE    0.183400 
     66 H66         8.058219   -7.875519    9.354074 H         3 TETRAHYDROISOQUINOLINE    0.073500 
@<TRIPOS>BOND
     1   26   31 1    
     2   29   30 ar   
     3   29   34 ar   
     4   29   60 1    
     5   34    4 ar   
     6   34   33 ar   
     7   33    1 ar   
     8   37    5 1    
     9   38    6 1    
    10   38    7 1    
    11   40    8 1    
    12   41    9 1    
    13   43   10 1    
    14   44   11 1    
    15   47   12 1    
    16   48   13 1    
    17   48   14 1    
    18   49   15 1    
    19   49   16 1    
    20   36   18 am   
    21   21   22 ar   
    22   21   50 ar   
    23   21   56 1    
    24   50   20 1    
    25   50   25 ar   
    26   25   17 1    
    27   25   24 ar   
    28   24   23 ar   
    29   24   65 1    
    30   33   32 ar   
    31   26   28 2    
    32   26   27 2    
    33   32   31 ar   
    34   32   62 1    
    35   31   30 ar   
    36   30   61 1    
    37    1    2 ar   
    38    1   35 1    
    39   36   46 2    
    40   37   36 1    
    41   37   47 1    
    42   38   37 1    
    43   39   38 1    
    44   39   41 ar   
    45   40   39 ar   
    46   42   40 ar   
    47   45   42 1    
    48   42   44 ar   
    49   44   43 ar   
    50   43   41 ar   
    51   45   49 ar   
    52   45   48 ar   
    53   23   22 ar   
    54   23   64 1    
    55   22   63 1    
    56   17   18 1    
    57   17   51 1    
    58   17   52 1    
    59   18   19 1    
    60   47   26 1    
    61   19   20 1    
    62   19   53 1    
    63    2    3 ar   
    64    2   57 1    
    65    3    4 ar   
    66    3   58 1    
    67    4   59 1    
    68   20   54 1    
    69   20   55 1    
    70   19   66 1    
@<TRIPOS>SUBSTRUCTURE
     1 TOS1       26 GROUP             0 I     ****    2  
     2 APM2       36 GROUP             0 I     ****    2 ROOT 
     3 TETRAHYDROISOQUINOLINE    21 PERM              0 ****  ****    1  
     4 NAPHTHALENE    29 PERM              0 ****  ****    1  
@<TRIPOS>SET
UNK_ATOMS       STATIC     ATOMS    AMSOM    **** 
30 26 27 28 0 0 0 0 0 0 0 36 37 38 39 40 41 42 43 44 \
 45 46 47 48 49 0 0 0 0 0 0
LAB$B_TYPE      STATIC     BONDS    LABELGROUP SYSTEM 
0
@<TRIPOS>NORMAL
@<TRIPOS>FF_PBC
FORCE_FIELD_SETUP_FEATURE Force Field Setup information
v1.0  0 0.000000 0.000000 0.000000 0.000000 0.000000 0.000000 NONE 0 0 0 0 0 0 0 0 0 0 0 0 0
