#	Name:			19
#	Creating user name:	jeff
#	Creation time:		Fri Dec 13 10:07:56 2002

#	Modifying user name:	jeff
#	Modification time:	Fri Dec 13 10:08:00 2002

@<TRIPOS>MOLECULE
19
   63    66     5     1     2
SMALL
USER_CHARGES


@<TRIPOS>ATOM
      1 C1          3.897897   -6.361810   15.293099 C.ar      4 NAPHTHALENE   -0.249800 
      2 C2          4.069447   -5.146781   15.962744 C.ar      4 NAPHTHALENE   -0.129700 
      3 C3          5.338936   -4.569854   16.042789 C.ar      4 NAPHTHALENE   -0.047800 
      4 C4          6.434029   -5.207949   15.454423 C.ar      4 NAPHTHALENE   -0.308400 
      5 ****        6.763478   -9.309564   10.404117 H         2 APM2        0.135100 
      6 ****        5.256866  -10.494929    8.651654 H         2 APM2        0.176600 
      7 ****        6.172098   -9.112793    8.040775 H         2 APM2        0.119700 
      8 ****        2.804723  -10.394102    8.508566 H         2 APM2        0.204600 
      9 ****        5.115064   -6.860229    7.743131 H         2 APM2        0.172800 
     10 ****        3.065282   -5.658394    7.076397 H         2 APM2        0.203900 
     11 ****        0.869886   -6.762172    7.233201 H         2 APM2        0.164200 
     12 ****        3.952202   -9.920159   10.974542 H         2 APM2        0.388600 
     13 ****       -1.568822   -9.362890    7.072395 H         2 APM2        0.571400 
     14 ****       -0.515286   -8.049857    6.529950 H         2 APM2        0.556600 
     15 ****        0.918977  -10.873630    9.081847 H         2 APM2        0.540100 
     16 ****       -0.739554  -10.992792    8.477832 H         2 APM2        0.572100 
     17 ****        7.685111   -6.175193    8.538893 H         3 PIP3        0.063400 
     18 ****        7.826730   -7.827497    9.144603 H         3 PIP3        0.063800 
     19 ****        9.666611   -6.467313   10.095349 H         3 PIP3        0.128900 
     20 ****        8.533311   -6.900145   11.398189 H         3 PIP3        0.051800 
     21 C           9.232923   -3.964715   10.354937 C.2       5 CO          0.534900 
     22 O           9.087810   -2.767487   10.537862 O.2       5 CO         -0.564900 
     23 ****        6.897068   -3.448134   11.390781 H         3 PIP3        0.066400 
     24 ****        6.980630   -4.956996   12.330813 H         3 PIP3       -0.056500 
     25 ****        4.968259   -5.030337   10.901201 H         3 PIP3        0.093000 
     26 ****        5.920276   -4.596578    9.467683 H         3 PIP3        0.059600 
     27 S           5.661557  -10.422231   12.626627 S.o2      1 TOS1        2.254700 
     28 O1          6.945965  -11.021470   12.317708 O.2       1 TOS1       -0.923000 
     29 O2          4.668181  -11.190962   13.350146 O.2       1 TOS1       -0.947900 
     30 C5          7.359513   -7.077165   14.200152 C.ar      4 NAPHTHALENE   -0.281400 
     31 C6          7.186472   -8.299562   13.543399 C.ar      4 NAPHTHALENE   -0.097000 
     32 C7          5.917644   -8.879335   13.468492 C.ar      4 NAPHTHALENE   -0.449500 
     33 C8          4.823711   -8.223445   14.036754 C.ar      4 NAPHTHALENE   -0.207200 
     34 C9          4.992412   -7.004902   14.705224 C.ar      4 NAPHTHALENE    0.181800 
     35 C10         6.267496   -6.428049   14.786455 C.ar      4 NAPHTHALENE    0.204800 
     36 H1          2.905527   -6.798923   15.236843 H         4 NAPHTHALENE    0.190600 
     37 C           5.478049   -7.558550   10.481918 C.2       2 APM2        0.546700 
     38 CA          5.721788   -9.026675   10.194534 C.3       2 APM2        0.245800 
     39 CB          5.361895   -9.401158    8.726868 C.3       2 APM2       -0.427400 
     40 CG          4.083895   -8.693016    8.243942 C.ar      2 APM2        0.172000 
     41 CD1         2.846062   -9.348400    8.226720 C.ar      2 APM2       -0.142800 
     42 CD2         4.158555   -7.368920    7.797853 C.ar      2 APM2       -0.036800 
     43 CE1         1.676922   -8.679192    7.839224 C.ar      2 APM2       -0.363200 
     44 CE2         3.001351   -6.687858    7.415860 C.ar      2 APM2       -0.179000 
     45 CZ          1.762477   -7.330299    7.472419 C.ar      2 APM2       -0.057300 
     46 CF          0.335022   -9.391680    7.809742 C.cat     2 APM2        1.113200 
     47 O           4.445595   -7.327712   11.091896 O.2       2 APM2       -0.605800 
     48 N           4.933993   -9.812983   11.134971 N.am      2 APM2       -0.961900 
     49 NG1        -0.647138   -8.900626    7.095154 N.pl3     2 APM2       -1.045900 
     50 NG2         0.162231  -10.492692    8.497090 N.pl3     2 APM2       -0.998800 
     51 N1          6.311564   -6.546453   10.101411 N.am      3 PIP3       -0.460900 
     52 C2          7.598669   -6.797741    9.443826 C.3       3 PIP3        0.125600 
     53 C3          8.643345   -6.316636   10.471372 C.3       3 PIP3       -0.031400 
     54 N4          8.336281   -4.912996   10.727777 N.am      3 PIP3       -0.495900 
     55 C5          7.049699   -4.537444   11.315011 C.3       3 PIP3        0.342600 
     56 C6          5.949222   -5.157709   10.415175 C.3       3 PIP3       -0.001900 
     57 ****       10.162074   -4.236729    9.852665 H         5 CO          0.099900 
     58 H2          3.217519   -4.652987   16.419802 H         4 NAPHTHALENE    0.167300 
     59 H3          5.473259   -3.625968   16.562658 H         4 NAPHTHALENE    0.163000 
     60 H4          7.414388   -4.746297   15.522400 H         4 NAPHTHALENE    0.195300 
     61 H5          8.351813   -6.638595   14.249391 H         4 NAPHTHALENE    0.211700 
     62 H6          8.039400   -8.796387   13.094333 H         4 NAPHTHALENE    0.188300 
     63 H8          3.840042   -8.673014   13.953246 H         4 NAPHTHALENE    0.223300 
@<TRIPOS>BOND
     1   27   32 1    
     2   30   31 ar   
     3   30   35 ar   
     4   30   61 1    
     5   35    4 ar   
     6   35   34 ar   
     7   34    1 ar   
     8   38    5 1    
     9   39    6 1    
    10   39    7 1    
    11   41    8 1    
    12   42    9 1    
    13   44   10 1    
    14   45   11 1    
    15   48   12 1    
    16   49   13 1    
    17   49   14 1    
    18   50   15 1    
    19   50   16 1    
    20   52   17 1    
    21   52   18 1    
    22   53   19 1    
    23   53   20 1    
    24   21   22 2    
    25   54   21 am   
    26   55   23 1    
    27   55   24 1    
    28   56   25 1    
    29   56   26 1    
    30   34   33 ar   
    31   27   29 2    
    32   27   28 2    
    33   33   32 ar   
    34   33   63 1    
    35   32   31 ar   
    36   31   62 1    
    37    1    2 ar   
    38    1   36 1    
    39   37   47 2    
    40   38   37 1    
    41   38   48 1    
    42   39   38 1    
    43   40   39 1    
    44   40   42 ar   
    45   41   40 ar   
    46   43   41 ar   
    47   46   43 1    
    48   43   45 ar   
    49   45   44 ar   
    50   44   42 ar   
    51   46   50 ar   
    52   46   49 ar   
    53   51   56 1    
    54   52   51 1    
    55   53   52 1    
    56   54   53 1    
    57   54   55 1    
    58   55   56 1    
    59   37   51 am   
    60   48   27 1    
    61   21   57 1    
    62    2    3 ar   
    63    2   58 1    
    64    3    4 ar   
    65    3   59 1    
    66    4   60 1    
@<TRIPOS>SUBSTRUCTURE
     1 TOS1       27 GROUP             0 I     ****    2  
     2 APM2       37 GROUP             0 I     ****    2 ROOT 
     3 PIP3       51 GROUP             0 I     ****    2  
     4 NAPHTHALENE    30 PERM              0 ****  ****    1  
     5 CO         21 PERM              0 ****  ****    1  
@<TRIPOS>SET
UNK_ATOMS       STATIC     ATOMS    AMSOM    **** 
30 27 28 29 0 0 0 0 0 0 0 37 38 39 40 41 42 43 44 45 \
 46 47 48 49 50 51 52 53 54 55 56
LAB$B_TYPE      STATIC     BONDS    LABELGROUP SYSTEM 
0
@<TRIPOS>NORMAL
@<TRIPOS>FF_PBC
FORCE_FIELD_SETUP_FEATURE Force Field Setup information
v1.0  0 0.000000 0.000000 0.000000 0.000000 0.000000 0.000000 NONE 0 0 0 0 0 0 0 0 0 0 0 0 0
