#	Name:			20
#	Creating user name:	jeff
#	Creation time:		Fri Dec 13 10:08:00 2002

#	Modifying user name:	jeff
#	Modification time:	Fri Dec 13 10:08:03 2002

@<TRIPOS>MOLECULE
20
   61    64     4     1     2
SMALL
USER_CHARGES


@<TRIPOS>ATOM
      1 C1          3.898043   -6.362051   15.292847 C.ar      4 NAPHTHALENE   -0.241300 
      2 C2          4.069442   -5.146536   15.962845 C.ar      4 NAPHTHALENE   -0.132600 
      3 C3          5.338903   -4.569852   16.042698 C.ar      4 NAPHTHALENE   -0.043900 
      4 C4          6.433856   -5.207566   15.454331 C.ar      4 NAPHTHALENE   -0.316100 
      5 ****        6.781422   -9.289743   10.388260 H         2 APM2        0.110700 
      6 ****        5.257774  -10.495001    8.650117 H         2 APM2        0.163600 
      7 ****        6.179240   -9.107128    8.045738 H         2 APM2        0.127500 
      8 ****        2.804756  -10.394118    8.508619 H         2 APM2        0.238500 
      9 ****        5.116317   -6.859978    7.745758 H         2 APM2        0.217900 
     10 ****        3.065267   -5.658358    7.076561 H         2 APM2        0.192300 
     11 ****        0.869906   -6.762190    7.233321 H         2 APM2        0.171800 
     12 ****        3.953841   -9.919642   10.974115 H         2 APM2        0.394000 
     13 ****       -1.568807   -9.362822    7.072479 H         2 APM2        0.570100 
     14 ****       -0.515291   -8.049692    6.530205 H         2 APM2        0.551800 
     15 ****        0.919092  -10.873799    9.081661 H         2 APM2        0.553300 
     16 ****       -0.739468  -10.992914    8.477700 H         2 APM2        0.577700 
     17 ****        6.375554   -6.649991   10.266484 O.3       2 APM2       -0.526100 
     18 C1          5.874084   -5.343924   10.625280 C.3       3 BENZYL      0.028400 
     19 C2          6.919386   -4.263503   10.367526 C.ar      3 BENZYL      0.140900 
     20 C3          6.947338   -3.112112   11.161194 C.ar      3 BENZYL     -0.271200 
     21 C4          7.908642   -2.126003   10.925617 C.ar      3 BENZYL     -0.113100 
     22 C5          8.840339   -2.291131    9.896919 C.ar      3 BENZYL     -0.119200 
     23 C6          8.811703   -3.441483    9.103562 C.ar      3 BENZYL     -0.116300 
     24 C7          7.850576   -4.427684    9.338099 C.ar      3 BENZYL     -0.248500 
     25 ****        4.977348   -5.106855   10.025481 H         3 BENZYL      0.091000 
     26 ****        5.608130   -5.337904   11.697289 H         3 BENZYL      0.077200 
     27 S           5.661857  -10.422314   12.626586 S.o2      1 TOS1        2.265500 
     28 O1          6.945963  -11.021595   12.317784 O.2       1 TOS1       -0.913000 
     29 O2          4.667979  -11.190832   13.349882 O.2       1 TOS1       -0.952900 
     30 C5          7.359001   -7.076052   14.199355 C.ar      4 NAPHTHALENE   -0.295000 
     31 C6          7.186395   -8.299034   13.542259 C.ar      4 NAPHTHALENE   -0.096200 
     32 C7          5.917618   -8.879023   13.468194 C.ar      4 NAPHTHALENE   -0.446100 
     33 C8          4.823658   -8.223462   14.036351 C.ar      4 NAPHTHALENE   -0.221900 
     34 C9          4.991883   -7.004531   14.705120 C.ar      4 NAPHTHALENE    0.159500 
     35 C10         6.267647   -6.427746   14.785575 C.ar      4 NAPHTHALENE    0.228500 
     36 H1          2.905458   -6.798886   15.236873 H         4 NAPHTHALENE    0.187500 
     37 C           5.445470   -7.590300   10.494544 C.2       2 APM2        0.896000 
     38 CA          5.728943   -9.036761   10.191088 C.3       2 APM2        0.186400 
     39 CB          5.363860   -9.401364    8.724292 C.3       2 APM2       -0.367900 
     40 CG          4.084371   -8.693245    8.243062 C.ar      2 APM2        0.218300 
     41 CD1         2.846067   -9.348434    8.226533 C.ar      2 APM2       -0.237000 
     42 CD2         4.158966   -7.368756    7.798114 C.ar      2 APM2       -0.136600 
     43 CE1         1.677123   -8.679248    7.839323 C.ar      2 APM2       -0.283700 
     44 CE2         3.001531   -6.687878    7.415950 C.ar      2 APM2       -0.133600 
     45 CZ          1.762575   -7.330242    7.472484 C.ar      2 APM2       -0.106000 
     46 CF          0.334987   -9.391700    7.809792 C.cat     2 APM2        1.090100 
     47 O           4.345673   -7.318375   10.948137 O.2       2 APM2       -0.647900 
     48 N           4.936928   -9.815328   11.133824 N.am      2 APM2       -1.017100 
     49 NG1        -0.647094   -8.900554    7.095308 N.pl3     2 APM2       -1.034100 
     50 NG2         0.162327  -10.492790    8.496992 N.pl3     2 APM2       -1.012800 
     51 ****        6.223892   -2.981785   11.960513 H         3 BENZYL      0.184400 
     52 ****        7.930497   -1.232988   11.541729 H         3 BENZYL      0.158800 
     53 ****        9.586732   -1.525251    9.713702 H         3 BENZYL      0.156200 
     54 ****        9.534820   -3.570328    8.304898 H         3 BENZYL      0.152200 
     55 ****        7.829878   -5.318954    8.719171 H         3 BENZYL      0.187500 
     56 H2          3.217530   -4.652959   16.419790 H         4 NAPHTHALENE    0.167100 
     57 H3          5.473275   -3.625909   16.562660 H         4 NAPHTHALENE    0.160200 
     58 H4          7.414355   -4.746259   15.522521 H         4 NAPHTHALENE    0.198900 
     59 H5          8.351671   -6.638300   14.249021 H         4 NAPHTHALENE    0.216900 
     60 H6          8.039666   -8.794745   13.092788 H         4 NAPHTHALENE    0.201600 
     61 H8          3.839920   -8.672935   13.953098 H         4 NAPHTHALENE    0.230200 
@<TRIPOS>BOND
     1   27   32 1    
     2   30   31 ar   
     3   30   35 ar   
     4   30   59 1    
     5   35    4 ar   
     6   35   34 ar   
     7   34    1 ar   
     8   38    5 1    
     9   39    6 1    
    10   39    7 1    
    11   41    8 1    
    12   42    9 1    
    13   44   10 1    
    14   45   11 1    
    15   48   12 1    
    16   49   13 1    
    17   49   14 1    
    18   50   15 1    
    19   50   16 1    
    20   37   17 1    
    21   18   19 1    
    22   19   20 ar   
    23   19   24 ar   
    24   24   23 ar   
    25   23   22 ar   
    26   22   21 ar   
    27   21   20 ar   
    28   17   18 1    
    29   18   25 1    
    30   34   33 ar   
    31   27   29 2    
    32   27   28 2    
    33   33   32 ar   
    34   33   61 1    
    35   32   31 ar   
    36   31   60 1    
    37    1    2 ar   
    38    1   36 1    
    39   37   47 2    
    40   38   37 1    
    41   38   48 1    
    42   39   38 1    
    43   40   39 1    
    44   40   42 ar   
    45   41   40 ar   
    46   43   41 ar   
    47   46   43 1    
    48   43   45 ar   
    49   45   44 ar   
    50   44   42 ar   
    51   46   50 ar   
    52   46   49 ar   
    53   18   26 1    
    54   20   51 1    
    55   21   52 1    
    56   22   53 1    
    57   23   54 1    
    58   24   55 1    
    59   48   27 1    
    60    2    3 ar   
    61    2   56 1    
    62    3    4 ar   
    63    3   57 1    
    64    4   58 1    
@<TRIPOS>SUBSTRUCTURE
     1 TOS1       27 GROUP             0 I     ****    2  
     2 APM2       37 GROUP             0 I     ****    2 ROOT 
     3 BENZYL     18 PERM              0 ****  ****    1  
     4 NAPHTHALENE    30 PERM              0 ****  ****    1  
@<TRIPOS>SET
UNK_ATOMS       STATIC     ATOMS    AMSOM    **** 
30 27 28 29 0 0 0 0 0 0 0 37 38 39 40 41 42 43 44 45 \
 46 47 48 49 50 0 0 0 0 0 0
LAB$B_TYPE      STATIC     BONDS    LABELGROUP SYSTEM 
0
@<TRIPOS>NORMAL
@<TRIPOS>FF_PBC
FORCE_FIELD_SETUP_FEATURE Force Field Setup information
v1.0  0 0.000000 0.000000 0.000000 0.000000 0.000000 0.000000 NONE 0 0 0 0 0 0 0 0 0 0 0 0 0
