#	Name:			21
#	Creating user name:	jeff
#	Creation time:		Fri Dec 13 10:08:03 2002

#	Modifying user name:	jeff
#	Modification time:	Fri Dec 13 10:08:07 2002

@<TRIPOS>MOLECULE
21
   60    63     4     1     2
SMALL
USER_CHARGES


@<TRIPOS>ATOM
      1 C1          3.887100   -6.349342   15.278495 C.ar      4 NAPHTHALENE   -0.244800 
      2 C2          4.073961   -5.136814   15.946849 C.ar      4 NAPHTHALENE   -0.125500 
      3 C3          5.349252   -4.571647   16.020601 C.ar      4 NAPHTHALENE   -0.063700 
      4 C4          6.436058   -5.222444   15.429702 C.ar      4 NAPHTHALENE   -0.303800 
      5 ****        6.747780   -9.312881   10.423718 H         2 APM2        0.145600 
      6 ****        5.281931  -10.491418    8.633791 H         2 APM2        0.164100 
      7 ****        6.194084   -9.091772    8.049456 H         2 APM2        0.113500 
      8 ****        2.816600  -10.402715    8.510311 H         2 APM2        0.202300 
      9 ****        5.115483   -6.860509    7.729508 H         2 APM2        0.174200 
     10 ****        3.050964   -5.644408    7.136762 H         2 APM2        0.204600 
     11 ****        0.859504   -6.771482    7.277034 H         2 APM2        0.162500 
     12 ****        3.919552   -9.909828   10.940693 H         2 APM2        0.387700 
     13 ****       -1.554283   -9.366049    7.098492 H         2 APM2        0.572900 
     14 ****       -0.501803   -8.041731    6.575074 H         2 APM2        0.556100 
     15 ****        0.959776  -10.889310    9.081622 H         2 APM2        0.539400 
     16 ****       -0.707204  -11.014269    8.496243 H         2 APM2        0.571100 
     17 ****        7.661814   -6.213670    8.533810 H         3 PIP3        0.107700 
     18 ****        7.869848   -7.824381    9.226833 H         3 PIP3        0.061300 
     19 ****        9.665946   -6.280779   10.025500 H         3 PIP3        0.125300 
     20 ****        8.648221   -6.798711   11.396164 H         3 PIP3        0.046400 
     21 ****        6.945213   -3.533086   11.474461 H         3 PIP3        0.079400 
     22 ****        7.027698   -5.107073   12.305563 H         3 PIP3        0.009700 
     23 ****        4.979316   -5.026984   10.894636 H         3 PIP3        0.072200 
     24 ****        5.942634   -4.589810    9.466077 H         3 PIP3        0.068100 
     25 S           5.603093  -10.437319   12.625020 S.o2      1 TOS1        2.241100 
     26 O1          6.878943  -11.061189   12.330215 O.2       1 TOS1       -0.918100 
     27 O2          4.586946  -11.183562   13.340546 O.2       1 TOS1       -0.946500 
     28 C5          7.341168   -7.110022   14.187970 C.ar      4 NAPHTHALENE   -0.269700 
     29 C6          7.153530   -8.329862   13.532567 C.ar      4 NAPHTHALENE   -0.121300 
     30 C7          5.877609   -8.894423   13.458997 C.ar      4 NAPHTHALENE   -0.422900 
     31 C8          4.790205   -8.221752   14.021165 C.ar      4 NAPHTHALENE   -0.206500 
     32 C9          4.974227   -7.005964   14.688913 C.ar      4 NAPHTHALENE    0.178100 
     33 C10         6.255199   -6.443749   14.769430 C.ar      4 NAPHTHALENE    0.191300 
     34 H1          2.890058   -6.775625   15.223796 H         4 NAPHTHALENE    0.189600 
     35 C           5.468170   -7.557728   10.466713 C.2       2 APM2        0.571000 
     36 CA          5.711621   -9.027929   10.192946 C.3       2 APM2        0.228600 
     37 CB          5.376615   -9.397348    8.719630 C.3       2 APM2       -0.383300 
     38 CG          4.093721   -8.694861    8.242906 C.ar      2 APM2        0.148300 
     39 CD1         2.859020   -9.355315    8.233341 C.ar      2 APM2       -0.130200 
     40 CD2         4.159661   -7.368261    7.801943 C.ar      2 APM2       -0.029100 
     41 CE1         1.687299   -8.683961    7.859717 C.ar      2 APM2       -0.365000 
     42 CE2         2.995366   -6.682255    7.450866 C.ar      2 APM2       -0.183700 
     43 CZ          1.760121   -7.331650    7.506214 C.ar      2 APM2       -0.051700 
     44 CF          0.350133   -9.401541    7.831408 C.cat     2 APM2        1.105500 
     45 O           4.418350   -7.320527   11.043944 O.2       2 APM2       -0.609700 
     46 N           4.899568   -9.810427   11.116173 N.am      2 APM2       -0.962700 
     47 NG1        -0.633862   -8.902014    7.126675 N.pl3     2 APM2       -1.045700 
     48 NG2         0.191909  -10.509464    8.509714 N.pl3     2 APM2       -0.995800 
     49 N1          6.315853   -6.549556   10.106556 N.am      3 PIP3       -0.505900 
     50 C2          7.612962   -6.787750    9.472639 C.3       3 PIP3        0.042100 
     51 C3          8.656330   -6.215229   10.461482 C.3       3 PIP3        0.091300 
     52 O4          8.375970   -4.826060   10.728358 O.3       3 PIP3       -0.495900 
     53 C5          7.078821   -4.615775   11.322133 C.3       3 PIP3        0.232900 
     54 C6          5.957644   -5.163441   10.406646 C.3       3 PIP3        0.061900 
     55 H2          3.229209   -4.634698   16.408592 H         4 NAPHTHALENE    0.166100 
     56 H3          5.494906   -3.627899   16.537180 H         4 NAPHTHALENE    0.166200 
     57 H4          7.420510   -4.768579   15.490363 H         4 NAPHTHALENE    0.197900 
     58 H5          8.338942   -6.684792   14.240145 H         4 NAPHTHALENE    0.215300 
     59 H6          8.000467   -8.836791   13.082847 H         4 NAPHTHALENE    0.190100 
     60 H8          3.800393   -8.656836   13.932702 H         4 NAPHTHALENE    0.222300 
@<TRIPOS>BOND
     1   25   30 1    
     2   28   29 ar   
     3   28   33 ar   
     4   28   58 1    
     5   33    4 ar   
     6   33   32 ar   
     7   32    1 ar   
     8   36    5 1    
     9   37    6 1    
    10   37    7 1    
    11   39    8 1    
    12   40    9 1    
    13   42   10 1    
    14   43   11 1    
    15   46   12 1    
    16   47   13 1    
    17   47   14 1    
    18   48   15 1    
    19   48   16 1    
    20   50   17 1    
    21   50   18 1    
    22   51   19 1    
    23   51   20 1    
    24   53   21 1    
    25   53   22 1    
    26   54   23 1    
    27   54   24 1    
    28   32   31 ar   
    29   25   27 2    
    30   25   26 2    
    31   31   30 ar   
    32   31   60 1    
    33   30   29 ar   
    34   29   59 1    
    35    1    2 ar   
    36    1   34 1    
    37   35   45 2    
    38   36   35 1    
    39   36   46 1    
    40   37   36 1    
    41   38   37 1    
    42   38   40 ar   
    43   39   38 ar   
    44   41   39 ar   
    45   44   41 1    
    46   41   43 ar   
    47   43   42 ar   
    48   42   40 ar   
    49   44   48 ar   
    50   44   47 ar   
    51   49   54 1    
    52   50   49 1    
    53   51   50 1    
    54   52   51 1    
    55   52   53 1    
    56   53   54 1    
    57   35   49 am   
    58   46   25 1    
    59    2    3 ar   
    60    2   55 1    
    61    3    4 ar   
    62    3   56 1    
    63    4   57 1    
@<TRIPOS>SUBSTRUCTURE
     1 TOS1       25 GROUP             0 I     ****    2  
     2 APM2       35 GROUP             0 I     ****    2 ROOT 
     3 PIP3       49 GROUP             0 I     ****    1  
     4 NAPHTHALENE    28 PERM              0 ****  ****    1  
@<TRIPOS>SET
UNK_ATOMS       STATIC     ATOMS    AMSOM    **** 
30 25 26 27 0 0 0 0 0 0 0 35 36 37 38 39 40 41 42 43 \
 44 45 46 47 48 49 50 51 52 53 54
LAB$B_TYPE      STATIC     BONDS    LABELGROUP SYSTEM 
0
@<TRIPOS>NORMAL
@<TRIPOS>FF_PBC
FORCE_FIELD_SETUP_FEATURE Force Field Setup information
v1.0  0 0.000000 0.000000 0.000000 0.000000 0.000000 0.000000 NONE 0 0 0 0 0 0 0 0 0 0 0 0 0
