#	Name:			22
#	Creating user name:	jeff
#	Creation time:		Fri Dec 13 10:08:07 2002

#	Modifying user name:	jeff
#	Modification time:	Fri Dec 13 10:08:11 2002

@<TRIPOS>MOLECULE
22
   67    70     5     1     2
SMALL
USER_CHARGES


@<TRIPOS>ATOM
      1 C1          3.897821   -6.361737   15.292786 C.ar      4 NAPHTHALENE   -0.265300 
      2 C2          4.069574   -5.146523   15.962584 C.ar      4 NAPHTHALENE   -0.108300 
      3 C3          5.339097   -4.569878   16.042418 C.ar      4 NAPHTHALENE   -0.074300 
      4 C4          6.434049   -5.207871   15.454056 C.ar      4 NAPHTHALENE   -0.291000 
      5 ****        6.762728   -9.309035   10.404509 H         2 APM2        0.135300 
      6 ****        5.257085  -10.494696    8.652012 H         2 APM2        0.188800 
      7 ****        6.172019   -9.112775    8.040523 H         2 APM2        0.128800 
      8 ****        2.804935  -10.394233    8.508522 H         2 APM2        0.200900 
      9 ****        5.115332   -6.860187    7.743128 H         2 APM2        0.172200 
     10 ****        3.065180   -5.658099    7.077410 H         2 APM2        0.203700 
     11 ****        0.869829   -6.762262    7.233931 H         2 APM2        0.159900 
     12 ****        3.952133   -9.919741   10.974303 H         2 APM2        0.394700 
     13 ****       -1.568542   -9.362868    7.072688 H         2 APM2        0.572600 
     14 ****       -0.514994   -8.049656    6.530584 H         2 APM2        0.555100 
     15 ****        0.919570  -10.873856    9.081815 H         2 APM2        0.541400 
     16 ****       -0.739073  -10.993069    8.478018 H         2 APM2        0.569600 
     17 ****        7.710217   -6.177722    8.553797 H         3 PIP3        0.091500 
     18 ****        7.830253   -7.833074    9.144422 H         3 PIP3        0.070900 
     19 ****        9.689449   -6.588951   10.280650 H         3 PIP3        0.188800 
     20 ****        8.406665   -6.877477   11.443169 H         3 PIP3        0.086500 
     21 C           9.209965   -3.941533   10.274659 C.2       5 CO          0.638300 
     22 O           9.037010   -2.788761   10.637984 O.2       5 CO         -0.583700 
     23 ****        6.905216   -3.461103   11.384949 H         3 PIP3        0.075400 
     24 ****        7.015445   -4.965983   12.321887 H         3 PIP3       -0.008700 
     25 ****        4.992670   -5.027548   10.909018 H         3 PIP3        0.066400 
     26 ****        5.930207   -4.597323    9.466600 H         3 PIP3        0.060100 
     27 S           5.660536  -10.421928   12.625852 S.o2      1 TOS1        2.251700 
     28 O1          6.944914  -11.021540   12.317326 O.2       1 TOS1       -0.918900 
     29 O2          4.666994  -11.190589   13.349321 O.2       1 TOS1       -0.945000 
     30 C5          7.359186   -7.077802   14.200693 C.ar      4 NAPHTHALENE   -0.277500 
     31 C6          7.186004   -8.300872   13.544558 C.ar      4 NAPHTHALENE   -0.108400 
     32 C7          5.916964   -8.879649   13.468641 C.ar      4 NAPHTHALENE   -0.442100 
     33 C8          4.823174   -8.223499   14.036455 C.ar      4 NAPHTHALENE   -0.201100 
     34 C9          4.992107   -7.004673   14.705064 C.ar      4 NAPHTHALENE    0.197900 
     35 C10         6.267347   -6.428410   14.786183 C.ar      4 NAPHTHALENE    0.183300 
     36 H1          2.905365   -6.798623   15.236690 H         4 NAPHTHALENE    0.192600 
     37 C           5.483011   -7.555850   10.478961 C.2       2 APM2        0.447000 
     38 CA          5.721686   -9.025285   10.194293 C.3       2 APM2        0.293400 
     39 CB          5.362007   -9.400884    8.726891 C.3       2 APM2       -0.472000 
     40 CG          4.084045   -8.692964    8.243982 C.ar      2 APM2        0.188600 
     41 CD1         2.846217   -9.348456    8.226781 C.ar      2 APM2       -0.128900 
     42 CD2         4.158674   -7.368763    7.797968 C.ar      2 APM2       -0.040300 
     43 CE1         1.677192   -8.679253    7.839538 C.ar      2 APM2       -0.375600 
     44 CE2         3.001425   -6.687728    7.416464 C.ar      2 APM2       -0.181000 
     45 CZ          1.762519   -7.330249    7.472954 C.ar      2 APM2       -0.049500 
     46 CF          0.335246   -9.391790    7.810022 C.cat     2 APM2        1.114300 
     47 O           4.449977   -7.321946   11.087105 O.2       2 APM2       -0.589900 
     48 N           4.933742   -9.811398   11.135150 N.am      2 APM2       -0.976700 
     49 NG1        -0.646854   -8.900590    7.095573 N.pl3     2 APM2       -1.047500 
     50 NG2         0.162690  -10.492911    8.497225 N.pl3     2 APM2       -0.995400 
     51 N1          6.322790   -6.547796   10.098538 N.am      3 PIP3       -0.405000 
     52 C2          7.617023   -6.804674    9.454006 C.3       3 PIP3        0.077100 
     53 C3          8.644638   -6.342985   10.510606 C.3       3 PIP3       -0.046000 
     54 N4          8.365654   -4.922683   10.707979 N.am      3 PIP3       -0.651500 
     55 C5          7.080936   -4.546428   11.307600 C.3       3 PIP3        0.280600 
     56 C6          5.968853   -5.158165   10.414228 C.3       3 PIP3        0.066600 
     57 ****       10.398244   -4.115108    9.346713 C.3       5 CO          0.185000 
     58 O58        10.364787   -5.293807    8.521323 O.3       5 CO         -0.686000 
     59 ****       11.321640   -4.057110    9.944219 H         5 CO          0.074000 
     60 H2          3.217718   -4.652799   16.419704 H         4 NAPHTHALENE    0.161900 
     61 H3          5.473557   -3.625957   16.562344 H         4 NAPHTHALENE    0.166600 
     62 H4          7.414468   -4.746433   15.521760 H         4 NAPHTHALENE    0.192800 
     63 H5          8.351560   -6.639307   14.249564 H         4 NAPHTHALENE    0.214200 
     64 H6          8.038949   -8.798491   13.096383 H         4 NAPHTHALENE    0.189200 
     65 H8          3.839428   -8.672697   13.952840 H         4 NAPHTHALENE    0.220400 
     66 ****       10.392093   -3.252055    8.657839 H         5 CO          0.036500 
     67 ****       11.134040   -5.390829    7.967391 H         5 CO          0.456900 
@<TRIPOS>BOND
     1   27   32 1    
     2   30   31 ar   
     3   30   35 ar   
     4   30   63 1    
     5   35    4 ar   
     6   35   34 ar   
     7   34    1 ar   
     8   38    5 1    
     9   39    6 1    
    10   39    7 1    
    11   41    8 1    
    12   42    9 1    
    13   44   10 1    
    14   45   11 1    
    15   48   12 1    
    16   49   13 1    
    17   49   14 1    
    18   50   15 1    
    19   50   16 1    
    20   52   17 1    
    21   52   18 1    
    22   53   19 1    
    23   53   20 1    
    24   21   22 2    
    25   54   21 am   
    26   55   23 1    
    27   55   24 1    
    28   56   25 1    
    29   56   26 1    
    30   34   33 ar   
    31   27   29 2    
    32   27   28 2    
    33   33   32 ar   
    34   33   65 1    
    35   32   31 ar   
    36   31   64 1    
    37    1    2 ar   
    38    1   36 1    
    39   37   47 2    
    40   38   37 1    
    41   38   48 1    
    42   39   38 1    
    43   40   39 1    
    44   40   42 ar   
    45   41   40 ar   
    46   43   41 ar   
    47   46   43 1    
    48   43   45 ar   
    49   45   44 ar   
    50   44   42 ar   
    51   46   50 ar   
    52   46   49 ar   
    53   51   56 1    
    54   52   51 1    
    55   53   52 1    
    56   54   53 1    
    57   54   55 1    
    58   55   56 1    
    59   37   51 am   
    60   48   27 1    
    61   21   57 1    
    62   57   58 1    
    63   57   59 1    
    64    2    3 ar   
    65    2   60 1    
    66    3    4 ar   
    67    3   61 1    
    68    4   62 1    
    69   57   66 1    
    70   58   67 1    
@<TRIPOS>SUBSTRUCTURE
     1 TOS1       27 GROUP             0 I     ****    2  
     2 APM2       37 GROUP             0 I     ****    2 ROOT 
     3 PIP3       51 GROUP             0 I     ****    2  
     4 NAPHTHALENE    30 PERM              0 ****  ****    1  
     5 CO         21 PERM              0 ****  ****    1  
@<TRIPOS>SET
UNK_ATOMS       STATIC     ATOMS    AMSOM    **** 
30 27 28 29 0 0 0 0 0 0 0 37 38 39 40 41 42 43 44 45 \
 46 47 48 49 50 51 52 53 54 55 56
LAB$B_TYPE      STATIC     BONDS    LABELGROUP SYSTEM 
0
@<TRIPOS>NORMAL
@<TRIPOS>FF_PBC
FORCE_FIELD_SETUP_FEATURE Force Field Setup information
v1.0  0 0.000000 0.000000 0.000000 0.000000 0.000000 0.000000 NONE 0 0 0 0 0 0 0 0 0 0 0 0 0
