#	Name:			23
#	Creating user name:	jeff
#	Creation time:		Fri Dec 13 10:08:11 2002

#	Modifying user name:	jeff
#	Modification time:	Fri Dec 13 10:08:15 2002

@<TRIPOS>MOLECULE
23
   68    70     3     1     1
SMALL
USER_CHARGES


@<TRIPOS>ATOM
      1 C1          3.596635   -8.409429   13.677476 C.3       1 TOS1       -0.259600 
      2 ****        4.503520   -6.157244   14.611007 H         1 TOS1        0.245700 
      3 C3          6.924066   -4.957947   15.151566 C.3       1 TOS1       -0.284500 
      4 C4          8.768614   -9.274957   13.492933 C.3       1 TOS1       -0.268700 
      5 ****        8.711224   -6.823537   14.364093 H         1 TOS1        0.241300 
      6 ****        5.993382   -4.403340   15.341998 H         1 TOS1        0.085600 
      7 ****        7.547162   -4.371212   14.460884 H         1 TOS1        0.082800 
      8 ****        6.754646   -9.289489   10.396367 H         2 APM2        0.155900 
      9 ****        5.242597  -10.480347    8.637495 H         2 APM2        0.189000 
     10 ****        6.162008   -9.090765    8.050580 H         2 APM2        0.138100 
     11 ****        2.796561  -10.363109    8.519727 H         2 APM2        0.208300 
     12 ****        5.103831   -6.843434    7.729334 H         2 APM2        0.177100 
     13 ****        3.075275   -5.679068    6.954261 H         2 APM2        0.202500 
     14 ****        0.881553   -6.754234    7.130485 H         2 APM2        0.162500 
     15 ****        3.986759  -10.031909   10.951277 H         2 APM2        0.410200 
     16 ****       -1.592639   -9.384047    7.042653 H         2 APM2        0.572500 
     17 ****       -0.549530   -8.090627    6.450535 H         2 APM2        0.557900 
     18 ****        0.861829  -10.837376    9.103106 H         2 APM2        0.548200 
     19 ****       -0.780675  -10.961644    8.471288 H         2 APM2        0.575100 
     20 ****        7.555367   -6.242076    8.415135 H         3 PIP3        0.111100 
     21 ****        7.831782   -7.816388    9.157145 H         3 PIP3        0.100900 
     22 ****        9.671967   -6.264946    9.741887 H         3 PIP3        0.092700 
     23 ****        8.766529   -6.769468   11.201544 H         3 PIP3        0.061300 
     24 ****        8.443116   -4.119387    9.670512 H         3 PIP3        0.060900 
     25 C25         9.528336   -4.148408   11.555743 C.3       3 PIP3       -0.498000 
     26 ****        6.819747   -3.507693   11.478250 H         3 PIP3        0.063000 
     27 ****        7.035743   -5.133463   12.195038 H         3 PIP3        0.061600 
     28 ****        4.954472   -5.034215   10.833884 H         3 PIP3        0.106300 
     29 ****        5.889514   -4.598293    9.390460 H         3 PIP3        0.070500 
     30 S           5.738835  -10.444613   12.579243 S.o2      1 TOS1        2.398600 
     31 O1          6.897638  -11.164686   12.105502 O.2       1 TOS1       -0.959300 
     32 O2          4.783629  -11.175635   13.389473 O.2       1 TOS1       -0.973000 
     33 C1          6.158020   -8.892139   13.407730 C.ar      1 TOS1       -0.770200 
     34 C2          5.092067   -8.057483   13.793993 C.ar      1 TOS1        0.323600 
     35 C3          5.339440   -6.794675   14.342954 C.ar      1 TOS1       -0.426900 
     36 C4          6.640595   -6.342136   14.554791 C.ar      1 TOS1        0.324100 
     37 C5          7.697629   -7.184353   14.211141 C.ar      1 TOS1       -0.419900 
     38 C6          7.473548   -8.464865   13.687638 C.ar      1 TOS1        0.300600 
     39 ****        7.465981   -5.076789   16.101406 H         1 TOS1        0.113400 
     40 C           5.469517   -7.550968   10.449744 C.2       2 APM2        0.591200 
     41 CA          5.708339   -9.022664   10.192612 C.3       2 APM2        0.263300 
     42 CB          5.344945   -9.387399    8.724222 C.3       2 APM2       -0.487300 
     43 CG          4.070591   -8.675961    8.229493 C.ar      2 APM2        0.208500 
     44 CD1         2.829144   -9.325080    8.213876 C.ar      2 APM2       -0.151700 
     45 CD2         4.151252   -7.359338    7.764813 C.ar      2 APM2       -0.044800 
     46 CE1         1.659088   -8.669859    7.800083 C.ar      2 APM2       -0.364800 
     47 CE2         3.001601   -6.693712    7.335085 C.ar      2 APM2       -0.179200 
     48 CZ          1.760990   -7.329712    7.396491 C.ar      2 APM2       -0.061900 
     49 CF          0.313722   -9.380703    7.780421 C.cat     2 APM2        1.129000 
     50 O           4.425903   -7.315236   11.036136 O.2       2 APM2       -0.611300 
     51 N           4.947982   -9.828705   11.143057 N.am      2 APM2       -1.023100 
     52 NG1        -0.672045   -8.918951    7.047906 N.pl3     2 APM2       -1.055400 
     53 NG2         0.122380  -10.464133    8.494228 N.pl3     2 APM2       -1.018000 
     54 N1          6.304947   -6.540799   10.061845 N.am      3 PIP3       -0.462100 
     55 C2          7.578772   -6.775316    9.378824 C.3       3 PIP3       -0.063100 
     56 C3          8.705843   -6.189883   10.266544 C.3       3 PIP3       -0.153600 
     57 C4          8.430892   -4.702885   10.606772 C.3       3 PIP3        0.148800 
     58 C5          7.031403   -4.565790   11.255591 C.3       3 PIP3       -0.077700 
     59 C6          5.931087   -5.154518   10.340905 C.3       3 PIP3       -0.013200 
     60 ****       10.518206   -4.256657   11.087431 H         3 PIP3        0.129600 
     61 ****        9.536517   -4.684848   12.518022 H         3 PIP3        0.130700 
     62 ****        9.349976   -3.080344   11.752204 H         3 PIP3        0.129000 
     63 ****        3.362054   -9.313217   13.112726 H         1 TOS1        0.063000 
     64 ****        3.056990   -7.581495   13.193058 H         1 TOS1        0.088100 
     65 ****        3.193293   -8.532840   14.693591 H         1 TOS1        0.129300 
     66 ****        8.667742  -10.313208   13.177105 H         1 TOS1        0.141100 
     67 ****        9.299057   -9.300982   14.457177 H         1 TOS1        0.082300 
     68 ****        9.402625   -8.753545   12.759856 H         1 TOS1        0.074200 
@<TRIPOS>BOND
     1   34    1 1    
     2   35    2 1    
     3   36    3 1    
     4   38    4 1    
     5   37    5 1    
     6    3    6 1    
     7    3    7 1    
     8   41    8 1    
     9   42    9 1    
    10   42   10 1    
    11   44   11 1    
    12   45   12 1    
    13   47   13 1    
    14   48   14 1    
    15   51   15 1    
    16   52   16 1    
    17   52   17 1    
    18   53   18 1    
    19   53   19 1    
    20   55   20 1    
    21   55   21 1    
    22   56   22 1    
    23   56   23 1    
    24   57   24 1    
    25   57   25 1    
    26   58   26 1    
    27   58   27 1    
    28   59   28 1    
    29   59   29 1    
    30   33   30 1    
    31   30   32 2    
    32   30   31 2    
    33   33   38 ar   
    34   34   33 ar   
    35   35   34 ar   
    36   36   35 ar   
    37    3   39 1    
    38   36   37 ar   
    39   37   38 ar   
    40   40   50 2    
    41   41   40 1    
    42   41   51 1    
    43   42   41 1    
    44   43   42 1    
    45   43   45 ar   
    46   44   43 ar   
    47   46   44 ar   
    48   49   46 1    
    49   46   48 ar   
    50   48   47 ar   
    51   47   45 ar   
    52   49   53 ar   
    53   49   52 ar   
    54   54   59 1    
    55   55   54 1    
    56   56   55 1    
    57   57   56 1    
    58   57   58 1    
    59   58   59 1    
    60   40   54 am   
    61   51   30 1    
    62   25   60 1    
    63   25   61 1    
    64   25   62 1    
    65    1   63 1    
    66    1   64 1    
    67    1   65 1    
    68    4   66 1    
    69    4   67 1    
    70    4   68 1    
@<TRIPOS>SUBSTRUCTURE
     1 TOS1       30 GROUP             0 I     ****    1  
     2 APM2       40 GROUP             0 I     ****    2 ROOT 
     3 PIP3       54 GROUP             0 I     ****    1  
@<TRIPOS>SET
UNK_ATOMS       STATIC     ATOMS    AMSOM    **** 
30 30 31 32 33 34 35 36 37 38 0 40 41 42 43 44 45 46 47 48 \
 49 50 51 52 53 54 55 56 57 58 59
@<TRIPOS>NORMAL
@<TRIPOS>FF_PBC
FORCE_FIELD_SETUP_FEATURE Force Field Setup information
v1.0  0 0.000000 0.000000 0.000000 0.000000 0.000000 0.000000 NONE 0 0 0 0 0 0 0 0 0 0 0 0 0
