#	Name:			24
#	Creating user name:	jeff
#	Creation time:		Fri Dec 13 10:08:15 2002

#	Modifying user name:	jeff
#	Modification time:	Fri Dec 13 10:08:18 2002

@<TRIPOS>MOLECULE
24
   62    65     4     1     2
SMALL
USER_CHARGES


@<TRIPOS>ATOM
      1 C1          3.900020   -6.367350   15.306872 C.ar      4 NAPHTHALENE   -0.230000 
      2 C2          4.066186   -5.150720   15.973548 C.ar      4 NAPHTHALENE   -0.138200 
      3 C3          5.333588   -4.569282   16.057825 C.ar      4 NAPHTHALENE   -0.046600 
      4 C4          6.432940   -5.205629   15.475077 C.ar      4 NAPHTHALENE   -0.333400 
      5 ****        6.774963   -9.307491   10.398386 H         2 APM2        0.120400 
      6 ****        5.237292  -10.487085    8.667219 H         2 APM2        0.163000 
      7 ****        6.157628   -9.109612    8.057271 H         2 APM2        0.137700 
      8 ****        2.795664  -10.374533    8.518150 H         2 APM2        0.202100 
      9 ****        5.108251   -6.851316    7.747778 H         2 APM2        0.179900 
     10 ****        3.076995   -5.677513    6.989428 H         2 APM2        0.197100 
     11 ****        0.880644   -6.755783    7.163772 H         2 APM2        0.162200 
     12 ****        3.986867   -9.956957   11.016064 H         2 APM2        0.383000 
     13 ****       -1.587089   -9.377375    7.047554 H         2 APM2        0.568400 
     14 ****       -0.539905   -8.077817    6.471804 H         2 APM2        0.555000 
     15 ****        0.871331  -10.847734    9.097734 H         2 APM2        0.551600 
     16 ****       -0.774741  -10.968870    8.470101 H         2 APM2        0.577000 
     17 ****        7.557090   -6.229169    8.436471 H         3 PIP3        0.107100 
     18 ****        7.822339   -7.819044    9.145321 H         3 PIP3        0.055700 
     19 ****        9.673116   -6.309827    9.784159 H         3 PIP3        0.044500 
     20 ****        8.734072   -6.789544   11.227764 H         3 PIP3        0.014400 
     21 ****        8.440664   -4.135028    9.673371 H         3 PIP3        0.077400 
     22 ****        9.207716   -4.327746   11.272552 H         3 PIP3        0.052500 
     23 ****        6.829445   -3.490695   11.475069 H         3 PIP3        0.027300 
     24 ****        7.035898   -5.083513   12.256178 H         3 PIP3        0.024600 
     25 ****        4.954225   -5.048806   10.896364 H         3 PIP3        0.089800 
     26 ****        5.869376   -4.601181    9.446346 H         3 PIP3        0.082900 
     27 S           5.711097  -10.415270   12.634302 S.o2      1 TOS1        2.290900 
     28 O1          7.008576  -10.982008   12.317313 O.2       1 TOS1       -0.939600 
     29 O2          4.746372  -11.210924   13.367509 O.2       1 TOS1       -0.980300 
     30 C5          7.369723   -7.065530   14.222333 C.ar      4 NAPHTHALENE   -0.276600 
     31 C6          7.203780   -8.281807   13.556331 C.ar      4 NAPHTHALENE   -0.099200 
     32 C7          5.939834   -8.872417   13.482198 C.ar      4 NAPHTHALENE   -0.466700 
     33 C8          4.839666   -8.228542   14.054631 C.ar      4 NAPHTHALENE   -0.183500 
     34 C9          4.999478   -7.008697   14.722119 C.ar      4 NAPHTHALENE    0.131600 
     35 C10         6.270437   -6.424806   14.807074 C.ar      4 NAPHTHALENE    0.249900 
     36 H1          2.909374   -6.808184   15.249124 H         4 NAPHTHALENE    0.188300 
     37 C           5.490830   -7.564517   10.502842 C.2       2 APM2        0.661400 
     38 CA          5.727763   -9.031235   10.210318 C.3       2 APM2        0.282300 
     39 CB          5.346712   -9.394115    8.744055 C.3       2 APM2       -0.432100 
     40 CG          4.072788   -8.682575    8.247810 C.ar      2 APM2        0.153100 
     41 CD1         2.832395   -9.332992    8.223942 C.ar      2 APM2       -0.109500 
     42 CD2         4.153909   -7.364139    7.786363 C.ar      2 APM2       -0.045900 
     43 CE1         1.662993   -8.672949    7.814575 C.ar      2 APM2       -0.381400 
     44 CE2         3.004511   -6.694650    7.363405 C.ar      2 APM2       -0.168100 
     45 CZ          1.762672   -7.331082    7.422437 C.ar      2 APM2       -0.058900 
     46 CF          0.317580   -9.383298    7.788529 C.cat     2 APM2        1.115300 
     47 O           4.477237   -7.339635   11.145902 O.2       2 APM2       -0.622600 
     48 N           4.967640   -9.828491   11.166737 N.am      2 APM2       -0.984800 
     49 NG1        -0.666023   -8.912902    7.059434 N.pl3     2 APM2       -1.045800 
     50 NG2         0.128615  -10.471567    8.494020 N.pl3     2 APM2       -1.010200 
     51 N1          6.306277   -6.547715   10.093179 N.am      3 PIP3       -0.547200 
     52 C2          7.572437   -6.780786    9.389762 C.3       3 PIP3        0.004500 
     53 C3          8.697402   -6.211564   10.289399 C.3       3 PIP3        0.020200 
     54 C4          8.419588   -4.719248   10.608388 C.3       3 PIP3       -0.167400 
     55 C5          7.034722   -4.558008   11.288087 C.3       3 PIP3        0.052500 
     56 C6          5.927088   -5.163791   10.392079 C.3       3 PIP3        0.005500 
     57 H2          3.211551   -4.657066   16.426355 H         4 NAPHTHALENE    0.170800 
     58 H3          5.464459   -3.624254   16.575729 H         4 NAPHTHALENE    0.164700 
     59 H4          7.412552   -4.743039   15.547480 H         4 NAPHTHALENE    0.202200 
     60 H5          8.360301   -6.624409   14.279582 H         4 NAPHTHALENE    0.208400 
     61 H6          8.060132   -8.765180   13.099125 H         4 NAPHTHALENE    0.188200 
     62 H8          3.859933   -8.687850   13.974125 H         4 NAPHTHALENE    0.226300 
@<TRIPOS>BOND
     1   27   32 1    
     2   30   31 ar   
     3   30   35 ar   
     4   30   60 1    
     5   35    4 ar   
     6   35   34 ar   
     7   34    1 ar   
     8   38    5 1    
     9   39    6 1    
    10   39    7 1    
    11   41    8 1    
    12   42    9 1    
    13   44   10 1    
    14   45   11 1    
    15   48   12 1    
    16   49   13 1    
    17   49   14 1    
    18   50   15 1    
    19   50   16 1    
    20   52   17 1    
    21   52   18 1    
    22   53   19 1    
    23   53   20 1    
    24   54   21 1    
    25   54   22 1    
    26   55   23 1    
    27   55   24 1    
    28   56   25 1    
    29   56   26 1    
    30   34   33 ar   
    31   27   29 2    
    32   27   28 2    
    33   33   32 ar   
    34   33   62 1    
    35   32   31 ar   
    36   31   61 1    
    37    1    2 ar   
    38    1   36 1    
    39   37   47 2    
    40   38   37 1    
    41   38   48 1    
    42   39   38 1    
    43   40   39 1    
    44   40   42 ar   
    45   41   40 ar   
    46   43   41 ar   
    47   46   43 1    
    48   43   45 ar   
    49   45   44 ar   
    50   44   42 ar   
    51   46   50 ar   
    52   46   49 ar   
    53   51   56 1    
    54   52   51 1    
    55   53   52 1    
    56   54   53 1    
    57   54   55 1    
    58   55   56 1    
    59   37   51 am   
    60   48   27 1    
    61    2    3 ar   
    62    2   57 1    
    63    3    4 ar   
    64    3   58 1    
    65    4   59 1    
@<TRIPOS>SUBSTRUCTURE
     1 TOS1       27 GROUP             0 I     ****    2  
     2 APM2       37 GROUP             0 I     ****    2 ROOT 
     3 PIP3       51 GROUP             0 I     ****    1  
     4 NAPHTHALENE    30 PERM              0 ****  ****    1  
@<TRIPOS>SET
UNK_ATOMS       STATIC     ATOMS    AMSOM    **** 
30 27 28 29 0 0 0 0 0 0 0 37 38 39 40 41 42 43 44 45 \
 46 47 48 49 50 51 52 53 54 55 56
LAB$B_TYPE      STATIC     BONDS    LABELGROUP SYSTEM 
0
@<TRIPOS>NORMAL
@<TRIPOS>FF_PBC
FORCE_FIELD_SETUP_FEATURE Force Field Setup information
v1.0  0 0.000000 0.000000 0.000000 0.000000 0.000000 0.000000 NONE 0 0 0 0 0 0 0 0 0 0 0 0 0
