#	Name:			25
#	Creating user name:	jeff
#	Creation time:		Fri Dec 13 10:08:18 2002

#	Modifying user name:	jeff
#	Modification time:	Fri Dec 13 10:08:24 2002

@<TRIPOS>MOLECULE
25
   86    88     3     1     1
SMALL
USER_CHARGES


@<TRIPOS>ATOM
      1 C1          3.880619   -7.981395   13.706843 C.3       1 TOS1        0.336100 
      2 ****        5.213817   -5.839935   14.523778 H         1 TOS1        0.223900 
      3 C3          7.721565   -4.958558   14.967443 C.3       1 TOS1        0.156200 
      4 C4          8.917133   -9.595979   13.352227 C.3       1 TOS1        0.336600 
      5 ****        9.220854   -7.019740   13.852064 H         1 TOS1        0.212200 
      6 ****        3.572105   -8.872752   13.147970 H         1 TOS1       -0.014800 
      7 C7          8.649545   -4.068225   14.118317 C.3       1 TOS1       -0.224000 
      8 ****        6.807298   -9.309412   10.259522 H         2 APM2        0.076100 
      9 ****        5.252923  -10.564181    8.557648 H         2 APM2        0.187500 
     10 ****        6.182327   -9.200813    7.900308 H         2 APM2        0.120300 
     11 ****        2.791873  -10.420270    8.450565 H         2 APM2        0.219800 
     12 ****        5.127276   -6.952227    7.505210 H         2 APM2        0.172400 
     13 ****        3.071002   -5.697828    6.981262 H         2 APM2        0.200300 
     14 ****        0.867605   -6.765393    7.217894 H         2 APM2        0.163500 
     15 ****        3.984305   -9.853849   10.897705 H         2 APM2        0.386100 
     16 ****       -1.603924   -9.346233    7.087183 H         2 APM2        0.575700 
     17 ****       -0.549942   -8.043154    6.525402 H         2 APM2        0.558800 
     18 ****        0.899677  -10.891412    9.042367 H         2 APM2        0.561800 
     19 ****       -0.767634  -10.988312    8.462646 H         2 APM2        0.580100 
     20 ****        7.667445   -6.274231    8.247452 H         3 PIP3        0.109000 
     21 ****        7.929472   -7.830752    9.043867 H         3 PIP3        0.095400 
     22 ****        9.740846   -6.286709    9.662754 H         3 PIP3        0.092500 
     23 ****        8.729567   -6.704427   11.080120 H         3 PIP3        0.069700 
     24 ****        8.397000   -4.087265    9.439240 H         3 PIP3        0.070600 
     25 C25         9.708779   -4.094033   11.131026 C.3       3 PIP3       -0.427400 
     26 ****        6.796154   -3.506229   11.291700 H         3 PIP3        0.061400 
     27 ****        7.020892   -5.155739   11.977398 H         3 PIP3        0.075900 
     28 ****        5.002590   -5.087878   10.698472 H         3 PIP3        0.147700 
     29 ****        5.871752   -4.598848    9.226407 H         3 PIP3        0.114100 
     30 S           5.734716  -10.324850   12.535369 S.o2      1 TOS1        2.389400 
     31 O1          6.769646  -11.209341   12.051890 O.2       1 TOS1       -0.965200 
     32 O2          4.732876  -10.900442   13.413886 O.2       1 TOS1       -0.958600 
     33 C1          6.373637   -8.796117   13.288337 C.ar      1 TOS1       -0.882700 
     34 C2          5.438076   -7.815133   13.699228 C.ar      1 TOS1        0.409100 
     35 C3          5.912922   -6.594010   14.196577 C.ar      1 TOS1       -0.536500 
     36 C4          7.272055   -6.300791   14.321053 C.ar      1 TOS1        0.270000 
     37 C5          8.170575   -7.274002   13.876703 C.ar      1 TOS1       -0.304400 
     38 C6          7.756486   -8.557980   13.487780 C.ar      1 TOS1        0.146300 
     39 C39         8.478114   -5.235408   16.284054 C.3       1 TOS1       -0.367200 
     40 C           5.511442   -7.563620   10.119385 C.2       2 APM2        0.627600 
     41 CA          5.765172   -9.044251   10.032173 C.3       2 APM2        0.473700 
     42 CB          5.368454   -9.470394    8.590199 C.3       2 APM2       -0.498700 
     43 CG          4.087041   -8.753367    8.107992 C.ar      2 APM2        0.242600 
     44 CD1         2.839348   -9.382105    8.144757 C.ar      2 APM2       -0.183500 
     45 CD2         4.165725   -7.438411    7.626646 C.ar      2 APM2       -0.069600 
     46 CE1         1.663964   -8.701235    7.785415 C.ar      2 APM2       -0.380900 
     47 CE2         3.004086   -6.731669    7.309684 C.ar      2 APM2       -0.164000 
     48 CZ          1.759241   -7.350247    7.418101 C.ar      2 APM2       -0.070000 
     49 CF          0.316944   -9.396127    7.783844 C.cat     2 APM2        1.170000 
     50 O           4.358103   -7.328579   10.410905 O.2       2 APM2       -0.637500 
     51 N           4.963028   -9.716071   11.055415 N.am      2 APM2       -1.102200 
     52 NG1        -0.677791   -8.893783    7.091229 N.pl3     2 APM2       -1.066200 
     53 NG2         0.139556  -10.499074    8.470497 N.pl3     2 APM2       -1.050100 
     54 N1          6.374532   -6.546234    9.861817 N.am      3 PIP3       -0.451000 
     55 C2          7.664973   -6.782552    9.223277 C.3       3 PIP3       -0.056400 
     56 C3          8.747379   -6.161370   10.120836 C.3       3 PIP3       -0.139000 
     57 C4          8.464755   -4.659078   10.379151 C.3       3 PIP3        0.076400 
     58 C5          7.063633   -4.552022   11.060596 C.3       3 PIP3       -0.003800 
     59 C6          5.964564   -5.169828   10.162274 C.3       3 PIP3       -0.192500 
     60 ****       10.534374   -3.889156   10.436621 H         3 PIP3        0.116300 
     61 ****       10.109972   -4.859466   11.804885 H         3 PIP3        0.106800 
     62 ****        9.516282   -3.152548   11.663052 H         3 PIP3        0.111800 
     63 ****        6.843141   -4.328993   15.187673 H         1 TOS1        0.046500 
     64 C64         2.999193   -6.826681   13.117080 C.3       1 TOS1       -0.415900 
     65 C65         3.411392   -8.170044   15.177733 C.3       1 TOS1       -0.401100 
     66 ****        8.559865  -10.617732   13.201727 H         1 TOS1        0.046700 
     67 C67         9.724948   -9.751612   14.677347 C.3       1 TOS1       -0.415800 
     68 C68         9.880038   -9.288341   12.165603 C.3       1 TOS1       -0.323100 
     69 ****        9.509609   -4.680059   13.843624 H         1 TOS1        0.072400 
     70 ****        9.039642   -3.177787   14.631049 H         1 TOS1        0.086800 
     71 ****        8.082622   -3.696047   13.268004 H         1 TOS1       -0.003100 
     72 ****        7.814849   -5.769588   16.975931 H         1 TOS1        0.086900 
     73 ****        8.789311   -4.284793   16.746399 H         1 TOS1        0.112800 
     74 ****        9.377291   -5.841905   16.093761 H         1 TOS1        0.091100 
     75 ****        3.186437   -5.846884   13.568982 H         1 TOS1        0.115300 
     76 ****        1.933352   -7.056969   13.265091 H         1 TOS1        0.090500 
     77 ****        3.086590   -6.685262   12.047514 H         1 TOS1        0.095800 
     78 ****        3.925328   -9.021633   15.645174 H         1 TOS1        0.103900 
     79 ****        2.326300   -8.357828   15.226452 H         1 TOS1        0.104900 
     80 ****        3.620458   -7.265041   15.768752 H         1 TOS1        0.101800 
     81 ****       10.167391   -8.807036   15.020959 H         1 TOS1        0.101300 
     82 ****       10.550627  -10.471894   14.548840 H         1 TOS1        0.119000 
     83 ****        9.068223  -10.134668   15.474449 H         1 TOS1        0.089400 
     84 ****        9.332484   -9.329371   11.212316 H         1 TOS1        0.044600 
     85 ****       10.692778  -10.032067   12.119440 H         1 TOS1        0.104900 
     86 ****       10.351756   -8.299904   12.256129 H         1 TOS1        0.069100 
@<TRIPOS>BOND
     1   34    1 1    
     2   35    2 1    
     3   36    3 1    
     4   38    4 1    
     5   37    5 1    
     6    1    6 1    
     7    3    7 1    
     8   41    8 1    
     9   42    9 1    
    10   42   10 1    
    11   44   11 1    
    12   45   12 1    
    13   47   13 1    
    14   48   14 1    
    15   51   15 1    
    16   52   16 1    
    17   52   17 1    
    18   53   18 1    
    19   53   19 1    
    20   55   20 1    
    21   55   21 1    
    22   56   22 1    
    23   56   23 1    
    24   57   24 1    
    25   57   25 1    
    26   58   26 1    
    27   58   27 1    
    28   59   28 1    
    29   59   29 1    
    30   33   30 1    
    31   30   32 2    
    32   30   31 2    
    33   33   38 ar   
    34   34   33 ar   
    35   35   34 ar   
    36   36   35 ar   
    37    3   39 1    
    38   36   37 ar   
    39   37   38 ar   
    40   40   50 2    
    41   41   40 1    
    42   41   51 1    
    43   42   41 1    
    44   43   42 1    
    45   43   45 ar   
    46   44   43 ar   
    47   46   44 ar   
    48   49   46 1    
    49   46   48 ar   
    50   48   47 ar   
    51   47   45 ar   
    52   49   53 ar   
    53   49   52 ar   
    54   54   59 1    
    55   55   54 1    
    56   56   55 1    
    57   57   56 1    
    58   57   58 1    
    59   58   59 1    
    60   40   54 am   
    61   51   30 1    
    62   25   60 1    
    63   25   61 1    
    64   25   62 1    
    65    3   63 1    
    66    1   64 1    
    67    1   65 1    
    68    4   66 1    
    69    4   67 1    
    70    4   68 1    
    71    7   69 1    
    72    7   70 1    
    73    7   71 1    
    74   39   72 1    
    75   39   73 1    
    76   39   74 1    
    77   64   75 1    
    78   64   76 1    
    79   64   77 1    
    80   65   78 1    
    81   65   79 1    
    82   65   80 1    
    83   67   81 1    
    84   67   82 1    
    85   67   83 1    
    86   68   84 1    
    87   68   85 1    
    88   68   86 1    
@<TRIPOS>SUBSTRUCTURE
     1 TOS1       30 GROUP             0 I     ****    1  
     2 APM2       40 GROUP             0 I     ****    2 ROOT 
     3 PIP3       54 GROUP             0 I     ****    1  
@<TRIPOS>SET
UNK_ATOMS       STATIC     ATOMS    AMSOM    **** 
30 30 31 32 33 34 35 36 37 38 0 40 41 42 43 44 45 46 47 48 \
 49 50 51 52 53 54 55 56 57 58 59
@<TRIPOS>NORMAL
@<TRIPOS>FF_PBC
FORCE_FIELD_SETUP_FEATURE Force Field Setup information
v1.0  0 0.000000 0.000000 0.000000 0.000000 0.000000 0.000000 NONE 0 0 0 0 0 0 0 0 0 0 0 0 0
