#	Name:			26
#	Creating user name:	jeff
#	Creation time:		Fri Dec 13 10:08:24 2002

#	Modifying user name:	jeff
#	Modification time:	Fri Dec 13 10:08:28 2002

@<TRIPOS>MOLECULE
26
   72    74     3     1     1
SMALL
USER_CHARGES


@<TRIPOS>ATOM
      1 C1          3.620196   -8.418473   13.643441 C.3       1 TOS1       -0.249300 
      2 ****        4.485250   -6.216763   14.609069 H         1 TOS1        0.232000 
      3 C3          9.155799   -6.648566   14.522459 C.3       1 TOS1       -0.117100 
      4 C4          8.781876   -9.301405   13.474815 C.3       1 TOS1       -0.221700 
      5 ****        6.869201   -5.052254   15.072003 O.3       1 TOS1       -0.306400 
      6 ****        5.779992   -4.171552   15.404270 C.3       1 TOS1       -0.104300 
      7 ****        6.195858   -3.224803   15.776699 H         1 TOS1        0.141400 
      8 ****        6.746062   -9.280537   10.425745 H         2 APM2        0.119400 
      9 ****        5.228595  -10.459628    8.672681 H         2 APM2        0.192800 
     10 ****        6.151804   -9.075204    8.082850 H         2 APM2        0.133200 
     11 ****        2.795997  -10.326882    8.563950 H         2 APM2        0.210700 
     12 ****        5.102225   -6.820472    7.747527 H         2 APM2        0.181500 
     13 ****        3.086221   -5.682250    6.903746 H         2 APM2        0.200400 
     14 ****        0.900147   -6.752879    7.053133 H         2 APM2        0.162900 
     15 ****        4.008817  -10.083676   10.971297 H         2 APM2        0.433400 
     16 ****       -1.595196   -9.418481    7.020016 H         2 APM2        0.574600 
     17 ****       -0.564478   -8.132629    6.400046 H         2 APM2        0.558800 
     18 ****        0.826916  -10.803278    9.140479 H         2 APM2        0.556700 
     19 ****       -0.797567  -10.945497    8.477179 H         2 APM2        0.576800 
     20 ****        7.550125   -6.298022    8.421316 H         3 PIP3        0.107200 
     21 ****        7.843086   -7.842628    9.200431 H         3 PIP3        0.103800 
     22 ****        9.668902   -6.264479    9.689984 H         3 PIP3        0.100200 
     23 ****        8.817959   -6.772220   11.170487 H         3 PIP3        0.091400 
     24 ****        8.423068   -4.108251    9.659769 H         3 PIP3        0.074800 
     25 C25         9.523732   -4.112131   11.524015 C.3       3 PIP3       -0.519300 
     26 ****        6.802522   -3.501581   11.482703 H         3 PIP3        0.075400 
     27 ****        7.007968   -5.103341   12.228517 H         3 PIP3        0.096200 
     28 ****        4.949912   -5.020971   10.848993 H         3 PIP3        0.107500 
     29 ****        5.897833   -4.598019    9.414899 H         3 PIP3        0.065500 
     30 S           5.757167  -10.451052   12.598910 S.o2      1 TOS1        2.467200 
     31 O1          6.885265  -11.201189   12.098418 O.2       1 TOS1       -0.975800 
     32 O2          4.811387  -11.161272   13.438759 O.2       1 TOS1       -0.978000 
     33 C1          6.199255   -8.892065   13.411367 C.ar      1 TOS1       -0.830000 
     34 C2          5.117852   -8.071433   13.781289 C.ar      1 TOS1        0.290000 
     35 C3          5.347389   -6.814358   14.341271 C.ar      1 TOS1       -0.431600 
     36 C4          6.642519   -6.339458   14.555689 C.ar      1 TOS1        0.442900 
     37 C5          7.726732   -7.170145   14.245730 C.ar      1 TOS1       -0.255800 
     38 C6          7.510836   -8.451871   13.700446 C.ar      1 TOS1        0.299600 
     39 ****        5.153886   -4.605140   16.200008 H         1 TOS1        0.103200 
     40 C           5.460674   -7.544669   10.480374 C.2       2 APM2        0.452700 
     41 CA          5.698522   -9.015644   10.228140 C.3       2 APM2        0.417300 
     42 CB          5.333384   -9.367125    8.756863 C.3       2 APM2       -0.510600 
     43 CG          4.064207   -8.652116    8.249614 C.ar      2 APM2        0.234400 
     44 CD1         2.822627   -9.297461    8.233419 C.ar      2 APM2       -0.167600 
     45 CD2         4.151293   -7.340268    7.769348 C.ar      2 APM2       -0.059400 
     46 CE1         1.651420   -8.657876    7.789541 C.ar      2 APM2       -0.365100 
     47 CE2         3.008376   -6.689296    7.304699 C.ar      2 APM2       -0.170700 
     48 CZ          1.767216   -7.327970    7.355172 C.ar      2 APM2       -0.064900 
     49 CF          0.307715   -9.375505    7.771723 C.cat     2 APM2        1.145400 
     50 O           4.414487   -7.297695   11.056886 O.2       2 APM2       -0.585900 
     51 N           4.955654   -9.837217   11.179767 N.am      2 APM2       -1.119900 
     52 NG1        -0.678846   -8.944479    7.019012 N.pl3     2 APM2       -1.066800 
     53 NG2         0.103052  -10.443763    8.507145 N.pl3     2 APM2       -1.031800 
     54 N1          6.305529   -6.544811   10.090363 N.am      3 PIP3       -0.399900 
     55 C2          7.577810   -6.798195    9.400869 C.3       3 PIP3       -0.071400 
     56 C3          8.719553   -6.181949   10.246977 C.3       3 PIP3       -0.174900 
     57 C4          8.423043   -4.694046   10.596086 C.3       3 PIP3        0.128300 
     58 C5          7.028713   -4.559443   11.272928 C.3       3 PIP3       -0.124400 
     59 C6          5.930575   -5.155133   10.363769 C.3       3 PIP3       -0.011100 
     60 ****       10.526399   -4.262704   11.095614 H         3 PIP3        0.134600 
     61 ****        9.484405   -4.611819   12.498260 H         3 PIP3        0.151100 
     62 ****        9.373417   -3.034852   11.692704 H         3 PIP3        0.133500 
     63 ****        5.168241   -3.950373   14.515418 H         1 TOS1        0.076200 
     64 ****        3.367179   -9.333175   13.104438 H         1 TOS1        0.061800 
     65 ****        3.096391   -7.595098   13.134445 H         1 TOS1        0.085000 
     66 ****        3.203484   -8.505012   14.657456 H         1 TOS1        0.136100 
     67 ****        9.175718   -5.615957   14.898423 H         1 TOS1        0.050800 
     68 ****        9.757692   -6.668115   13.604358 H         1 TOS1        0.046200 
     69 ****        9.655450   -7.269424   15.279213 H         1 TOS1        0.095400 
     70 ****        8.634630  -10.314276   13.111842 H         1 TOS1        0.124900 
     71 ****        9.306560   -9.420974   14.433043 H         1 TOS1        0.081500 
     72 ****        9.453377   -8.809305   12.756451 H         1 TOS1        0.081100 
@<TRIPOS>BOND
     1   34    1 1    
     2   35    2 1    
     3   37    3 1    
     4   38    4 1    
     5   36    5 1    
     6    5    6 1    
     7    6    7 1    
     8   41    8 1    
     9   42    9 1    
    10   42   10 1    
    11   44   11 1    
    12   45   12 1    
    13   47   13 1    
    14   48   14 1    
    15   51   15 1    
    16   52   16 1    
    17   52   17 1    
    18   53   18 1    
    19   53   19 1    
    20   55   20 1    
    21   55   21 1    
    22   56   22 1    
    23   56   23 1    
    24   57   24 1    
    25   57   25 1    
    26   58   26 1    
    27   58   27 1    
    28   59   28 1    
    29   59   29 1    
    30   33   30 1    
    31   30   32 2    
    32   30   31 2    
    33   33   38 ar   
    34   34   33 ar   
    35   35   34 ar   
    36   36   35 ar   
    37    6   39 1    
    38   36   37 ar   
    39   37   38 ar   
    40   40   50 2    
    41   41   40 1    
    42   41   51 1    
    43   42   41 1    
    44   43   42 1    
    45   43   45 ar   
    46   44   43 ar   
    47   46   44 ar   
    48   49   46 1    
    49   46   48 ar   
    50   48   47 ar   
    51   47   45 ar   
    52   49   53 ar   
    53   49   52 ar   
    54   54   59 1    
    55   55   54 1    
    56   56   55 1    
    57   57   56 1    
    58   57   58 1    
    59   58   59 1    
    60   40   54 am   
    61   51   30 1    
    62   25   60 1    
    63   25   61 1    
    64   25   62 1    
    65    6   63 1    
    66    1   64 1    
    67    1   65 1    
    68    1   66 1    
    69    3   67 1    
    70    3   68 1    
    71    3   69 1    
    72    4   70 1    
    73    4   71 1    
    74    4   72 1    
@<TRIPOS>SUBSTRUCTURE
     1 TOS1       30 GROUP             0 I     ****    1  
     2 APM2       40 GROUP             0 I     ****    2 ROOT 
     3 PIP3       54 GROUP             0 I     ****    1  
@<TRIPOS>SET
UNK_ATOMS       STATIC     ATOMS    AMSOM    **** 
30 30 31 32 33 34 35 36 37 38 0 40 41 42 43 44 45 46 47 48 \
 49 50 51 52 53 54 55 56 57 58 59
@<TRIPOS>NORMAL
@<TRIPOS>FF_PBC
FORCE_FIELD_SETUP_FEATURE Force Field Setup information
v1.0  0 0.000000 0.000000 0.000000 0.000000 0.000000 0.000000 NONE 0 0 0 0 0 0 0 0 0 0 0 0 0
