#	Name:			27
#	Creating user name:	jeff
#	Creation time:		Fri Dec 13 10:08:28 2002

#	Modifying user name:	jeff
#	Modification time:	Fri Dec 13 10:08:32 2002

@<TRIPOS>MOLECULE
27
   71    74     5     1     2
SMALL
USER_CHARGES


@<TRIPOS>ATOM
      1 C1          3.903513   -6.363775   15.291954 C.ar      4 NAPHTHALENE   -0.242100 
      2 C2          4.072137   -5.149054   15.962166 C.ar      4 NAPHTHALENE   -0.123700 
      3 C3          5.340493   -4.569519   16.043631 C.ar      4 NAPHTHALENE   -0.059200 
      4 C4          6.437365   -5.205313   15.455821 C.ar      4 NAPHTHALENE   -0.309100 
      5 ****        6.753479   -9.287877   10.389149 H         2 APM2        0.141000 
      6 ****        5.255656  -10.503783    8.659939 H         2 APM2        0.196200 
      7 ****        6.153770   -9.114576    8.031703 H         2 APM2        0.173700 
      8 ****        2.774021  -10.428695    8.521583 H         2 APM2        0.211000 
      9 ****        5.068166   -6.918203    7.693146 H         2 APM2        0.192700 
     10 ****        3.023530   -5.692154    7.070382 H         2 APM2        0.204500 
     11 ****        0.825700   -6.793623    7.257229 H         2 APM2        0.163100 
     12 ****        3.954280   -9.909976   10.967111 H         2 APM2        0.387900 
     13 ****       -1.602944   -9.376563    7.076551 H         2 APM2        0.570000 
     14 ****       -0.540914   -8.068427    6.538894 H         2 APM2        0.556000 
     15 ****        0.882042  -10.906681    9.081206 H         2 APM2        0.538700 
     16 ****       -0.778482  -11.018967    8.479966 H         2 APM2        0.571500 
     17 C           7.584825   -6.058390    8.040608 C.2       5 CO2         0.987900 
     18 ****        7.795398   -7.759590    9.215275 H         3 PIP3        0.148100 
     19 ****        9.652534   -6.247655    9.783532 H         3 PIP3        0.109000 
     20 ****        8.726424   -6.741131   11.228134 H         3 PIP3        0.115600 
     21 ****        8.385311   -4.066314    9.728680 H         3 PIP3        0.072700 
     22 C23         9.564869   -4.107684   11.548290 C.3       3 PIP3       -0.489400 
     23 ****        6.840556   -3.471415   11.607201 H         3 PIP3        0.094100 
     24 ****        7.100959   -5.073787   12.343877 H         3 PIP3        0.069000 
     25 ****        4.986768   -5.078752   11.146345 H         3 PIP3        0.122100 
     26 ****        5.729359   -4.494003    9.668010 H         3 PIP3        0.095300 
     27 S           5.673680  -10.410104   12.609075 S.o2      1 TOS1        2.254600 
     28 O1          6.958681  -11.004813   12.293714 O.2       1 TOS1       -0.925700 
     29 O2          4.684925  -11.184130   13.333254 O.2       1 TOS1       -0.955300 
     30 C5          7.367440   -7.070106   14.197906 C.ar      4 NAPHTHALENE   -0.271200 
     31 C6          7.194738   -8.282625   13.524007 C.ar      4 NAPHTHALENE   -0.101800 
     32 C7          5.928316   -8.869077   13.454730 C.ar      4 NAPHTHALENE   -0.453600 
     33 C8          4.834125   -8.221160   14.031907 C.ar      4 NAPHTHALENE   -0.189600 
     34 C9          5.000040   -7.003899   14.703101 C.ar      4 NAPHTHALENE    0.164900 
     35 C10         6.273423   -6.424616   14.786093 C.ar      4 NAPHTHALENE    0.203900 
     36 H1          2.912290   -6.803379   15.235366 H         4 NAPHTHALENE    0.188500 
     37 C           5.461342   -7.537209   10.475249 C.2       2 APM2        0.529700 
     38 CA          5.712351   -9.005160   10.177704 C.3       2 APM2        0.281600 
     39 CB          5.345695   -9.407582    8.719602 C.3       2 APM2       -0.565200 
     40 CG          4.050680   -8.728580    8.238141 C.ar      2 APM2        0.225800 
     41 CD1         2.813633   -9.384722    8.233097 C.ar      2 APM2       -0.164600 
     42 CD2         4.113818   -7.412140    7.774370 C.ar      2 APM2       -0.041600 
     43 CE1         1.643641   -8.713266    7.847200 C.ar      2 APM2       -0.362100 
     44 CE2         2.958072   -6.721895    7.408780 C.ar      2 APM2       -0.177500 
     45 CZ          1.721007   -7.363446    7.482409 C.ar      2 APM2       -0.062100 
     46 CF          0.300151   -9.420361    7.814750 C.cat     2 APM2        1.112300 
     47 O           4.421072   -7.337638   11.083362 O.2       2 APM2       -0.604200 
     48 N           4.936244   -9.798039   11.122390 N.am      2 APM2       -0.948000 
     49 NG1        -0.678561   -8.920502    7.101193 N.pl3     2 APM2       -1.049000 
     50 NG2         0.124922  -10.522331    8.499025 N.pl3     2 APM2       -0.999100 
     51 N1          6.280942   -6.496593   10.126815 N.am      3 PIP3       -0.313000 
     52 C2          7.547596   -6.708690    9.406549 C.3       3 PIP3       -0.327700 
     53 C3          8.683082   -6.148186   10.299574 C.3       3 PIP3       -0.144500 
     54 C4          8.418527   -4.660919   10.658194 C.3       3 PIP3        0.147900 
     55 C5          7.054265   -4.531156   11.388152 C.3       3 PIP3       -0.130800 
     56 C6          5.906234   -5.134804   10.542229 C.3       3 PIP3       -0.080000 
     57 ****       10.531890   -4.200610   11.029952 H         3 PIP3        0.131100 
     58 ****        9.621205   -4.665085   12.496123 H         3 PIP3        0.127600 
     59 ****        9.394240   -3.044175   11.776409 H         3 PIP3        0.129500 
     60 H2          3.218898   -4.656933   16.418865 H         4 NAPHTHALENE    0.165000 
     61 H3          5.472447   -3.625622   16.563990 H         4 NAPHTHALENE    0.163400 
     62 H4          7.416810   -4.741972   15.525254 H         4 NAPHTHALENE    0.196100 
     63 H5          8.360513   -6.634734   14.257804 H         4 NAPHTHALENE    0.205900 
     64 H6          8.046105   -8.766050   13.057392 H         4 NAPHTHALENE    0.190300 
     65 H8          3.852435   -8.675862   13.952453 H         4 NAPHTHALENE    0.220200 
     66 O           6.769941   -5.217355    7.697762 O.2       5 CO2        -0.625300 
     67 O           8.582711   -6.488088    7.250174 O.3       5 CO2        -0.480000 
     68 ****        8.619430   -5.941139    5.912994 C.3       5 CO2        -0.028700 
     69 ****        9.596179   -5.452409    5.786556 H         5 CO2         0.091300 
     70 ****        7.835535   -5.220890    5.629877 H         5 CO2         0.061800 
     71 ****        8.567436   -6.789121    5.214460 H         5 CO2         0.134700 
@<TRIPOS>BOND
     1   27   32 1    
     2   30   31 ar   
     3   30   35 ar   
     4   30   63 1    
     5   35    4 ar   
     6   35   34 ar   
     7   34    1 ar   
     8   38    5 1    
     9   39    6 1    
    10   39    7 1    
    11   41    8 1    
    12   42    9 1    
    13   44   10 1    
    14   45   11 1    
    15   48   12 1    
    16   49   13 1    
    17   49   14 1    
    18   50   15 1    
    19   50   16 1    
    20   17   66 2    
    21   52   18 1    
    22   53   19 1    
    23   53   20 1    
    24   54   21 1    
    25   54   22 1    
    26   55   23 1    
    27   55   24 1    
    28   56   25 1    
    29   56   26 1    
    30   34   33 ar   
    31   27   29 2    
    32   27   28 2    
    33   33   32 ar   
    34   33   65 1    
    35   32   31 ar   
    36   31   64 1    
    37    1    2 ar   
    38    1   36 1    
    39   37   47 2    
    40   38   37 1    
    41   38   48 1    
    42   39   38 1    
    43   40   39 1    
    44   40   42 ar   
    45   41   40 ar   
    46   43   41 ar   
    47   46   43 1    
    48   43   45 ar   
    49   45   44 ar   
    50   44   42 ar   
    51   46   50 ar   
    52   46   49 ar   
    53   51   56 1    
    54   52   51 1    
    55   53   52 1    
    56   54   53 1    
    57   54   55 1    
    58   55   56 1    
    59   37   51 am   
    60   48   27 1    
    61   22   57 1    
    62   22   58 1    
    63   22   59 1    
    64    2    3 ar   
    65    2   60 1    
    66    3    4 ar   
    67    3   61 1    
    68    4   62 1    
    69   17   67 1    
    70   52   17 1    
    71   67   68 1    
    72   68   69 1    
    73   68   70 1    
    74   68   71 1    
@<TRIPOS>SUBSTRUCTURE
     1 TOS1       27 GROUP             0 I     ****    2  
     2 APM2       37 GROUP             0 I     ****    2 ROOT 
     3 PIP3       51 GROUP             0 I     ****    2  
     4 NAPHTHALENE    30 PERM              0 ****  ****    1  
     5 CO2        17 PERM              0 ****  ****    1  
@<TRIPOS>SET
UNK_ATOMS       STATIC     ATOMS    AMSOM    **** 
30 27 28 29 0 0 0 0 0 0 0 37 38 39 40 41 42 43 44 45 \
 46 47 48 49 50 51 52 53 54 55 56
LAB$B_TYPE      STATIC     BONDS    LABELGROUP SYSTEM 
0
@<TRIPOS>NORMAL
@<TRIPOS>FF_PBC
FORCE_FIELD_SETUP_FEATURE Force Field Setup information
v1.0  0 0.000000 0.000000 0.000000 0.000000 0.000000 0.000000 NONE 0 0 0 0 0 0 0 0 0 0 0 0 0
