#	Name:			28
#	Creating user name:	jeff
#	Creation time:		Fri Dec 13 10:08:32 2002

#	Modifying user name:	jeff
#	Modification time:	Fri Dec 13 10:08:35 2002

@<TRIPOS>MOLECULE
28
   57    59     4     1     2
SMALL
USER_CHARGES


@<TRIPOS>ATOM
      1 C1          3.894358   -6.367872   15.270714 C.ar      4 NAPHTHALENE   -0.243600 
      2 C2          4.070023   -5.153954   15.942473 C.ar      4 NAPHTHALENE   -0.124900 
      3 C3          5.342011   -4.583125   16.028872 C.ar      4 NAPHTHALENE   -0.054900 
      4 C4          6.435553   -5.230693   15.449148 C.ar      4 NAPHTHALENE   -0.303300 
      5 ****        6.785558   -9.184543   10.365393 H         2 APM2        0.085500 
      6 ****        5.337544  -10.506095    8.578580 H         2 APM2        0.201100 
      7 ****        6.236165   -9.070709    8.053912 H         2 APM2        0.186400 
      8 ****        2.841789  -10.432830    8.495903 H         2 APM2        0.212000 
      9 ****        5.152905   -6.912736    7.654476 H         2 APM2        0.195100 
     10 ****        3.087758   -5.690673    7.061515 H         2 APM2        0.193700 
     11 ****        0.891264   -6.792921    7.277630 H         2 APM2        0.166300 
     12 ****        4.020864  -10.137207   10.902426 H         2 APM2        0.388500 
     13 ****       -1.548307   -9.351986    7.107365 H         2 APM2        0.574200 
     14 ****       -0.481255   -8.047168    6.567227 H         2 APM2        0.554500 
     15 ****        0.954039  -10.906109    9.076207 H         2 APM2        0.555100 
     16 ****       -0.718577  -11.003992    8.503137 H         2 APM2        0.578700 
     17 ****        6.192357   -6.753793   10.753598 O.3       2 APM2       -0.618900 
     18 C1          5.783342   -5.454573   11.260280 C.3       3 BENZYL      0.627500 
     19 C19         4.298057   -4.999895   11.160986 C.3       3 BENZYL     -0.458800 
     20 ****        4.226209   -3.944003   11.459613 H         3 BENZYL      0.133400 
     21 ****        3.652416   -5.555142   11.858830 H         3 BENZYL      0.085900 
     22 ****        3.914304   -5.106477   10.133713 H         3 BENZYL      0.136300 
     23 ****        6.461207   -3.413328   10.764682 H         3 BENZYL      0.120600 
     24 ****        6.471758   -4.571306    9.401051 H         3 BENZYL      0.129600 
     25 ****        6.057890   -5.386812   12.325266 H         3 BENZYL     -0.006500 
     26 C21         6.669823   -4.454938   10.477627 C.3       3 BENZYL     -0.399100 
     27 S           5.683884  -10.462545   12.634191 S.o2      1 TOS1        2.270000 
     28 O1          6.980258  -11.061023   12.383018 O.2       1 TOS1       -0.907200 
     29 O2          4.677672  -11.220249   13.351772 O.2       1 TOS1       -0.940800 
     30 C5          7.356139   -7.100682   14.196086 C.ar      4 NAPHTHALENE   -0.263000 
     31 C6          7.180582   -8.314235   13.525974 C.ar      4 NAPHTHALENE   -0.124800 
     32 C7          5.912846   -8.899512   13.454440 C.ar      4 NAPHTHALENE   -0.448100 
     33 C8          4.817433   -8.235526   14.010421 C.ar      4 NAPHTHALENE   -0.200100 
     34 C9          4.986505   -7.019294   14.687002 C.ar      4 NAPHTHALENE    0.166200 
     35 C10         6.263737   -6.449534   14.780048 C.ar      4 NAPHTHALENE    0.193500 
     36 H1          2.898808   -6.797081   15.209957 H         4 NAPHTHALENE    0.186300 
     37 C           5.243660   -7.683455   10.562225 C.2       2 APM2        0.668000 
     38 CA          5.705806   -9.064489   10.182903 C.3       2 APM2        0.474600 
     39 CB          5.407367   -9.413173    8.694787 C.3       2 APM2       -0.583500 
     40 CG          4.120917   -8.730367    8.202244 C.ar      2 APM2        0.245900 
     41 CD1         2.884271   -9.388311    8.208160 C.ar      2 APM2       -0.176900 
     42 CD2         4.193228   -7.411976    7.740319 C.ar      2 APM2       -0.091600 
     43 CE1         1.711587   -8.713585    7.840365 C.ar      2 APM2       -0.358000 
     44 CE2         3.029444   -6.722774    7.393736 C.ar      2 APM2       -0.144900 
     45 CZ          1.791701   -7.362383    7.482172 C.ar      2 APM2       -0.076400 
     46 CF          0.363412   -9.412155    7.824244 C.cat     2 APM2        1.134100 
     47 O           4.041497   -7.513210   10.666670 O.2       2 APM2       -0.612900 
     48 N           4.982659   -9.938434   11.093862 N.am      2 APM2       -1.061900 
     49 NG1        -0.620300   -8.902004    7.125234 N.pl3     2 APM2       -1.045900 
     50 NG2         0.189569  -10.514684    8.508204 N.pl3     2 APM2       -1.033000 
     51 ****        7.734172   -4.662252   10.665908 H         3 BENZYL      0.082100 
     52 H2          3.219933   -4.654690   16.397144 H         4 NAPHTHALENE    0.164100 
     53 H3          5.479502   -3.637856   16.546005 H         4 NAPHTHALENE    0.161700 
     54 H4          7.418848   -4.776026   15.523092 H         4 NAPHTHALENE    0.196000 
     55 H5          8.350645   -6.668410   14.256334 H         4 NAPHTHALENE    0.209400 
     56 H6          8.032234   -8.800753   13.063586 H         4 NAPHTHALENE    0.204400 
     57 H8          3.831160   -8.676728   13.913298 H         4 NAPHTHALENE    0.220700 
@<TRIPOS>BOND
     1   27   32 1    
     2   30   31 ar   
     3   30   35 ar   
     4   30   55 1    
     5   35    4 ar   
     6   35   34 ar   
     7   34    1 ar   
     8   38    5 1    
     9   39    6 1    
    10   39    7 1    
    11   41    8 1    
    12   42    9 1    
    13   44   10 1    
    14   45   11 1    
    15   48   12 1    
    16   49   13 1    
    17   49   14 1    
    18   50   15 1    
    19   50   16 1    
    20   37   17 1    
    21   18   19 1    
    22   19   20 1    
    23   19   21 1    
    24   19   22 1    
    25   26   23 1    
    26   26   24 1    
    27   26   51 1    
    28   17   18 1    
    29   18   25 1    
    30   34   33 ar   
    31   27   29 2    
    32   27   28 2    
    33   33   32 ar   
    34   33   57 1    
    35   32   31 ar   
    36   31   56 1    
    37    1    2 ar   
    38    1   36 1    
    39   37   47 2    
    40   38   37 1    
    41   38   48 1    
    42   39   38 1    
    43   40   39 1    
    44   40   42 ar   
    45   41   40 ar   
    46   43   41 ar   
    47   46   43 1    
    48   43   45 ar   
    49   45   44 ar   
    50   44   42 ar   
    51   46   50 ar   
    52   46   49 ar   
    53   18   26 1    
    54   48   27 1    
    55    2    3 ar   
    56    2   52 1    
    57    3    4 ar   
    58    3   53 1    
    59    4   54 1    
@<TRIPOS>SUBSTRUCTURE
     1 TOS1       27 GROUP             0 I     ****    2  
     2 APM2       37 GROUP             0 I     ****    2 ROOT 
     3 BENZYL     18 PERM              0 ****  ****    1  
     4 NAPHTHALENE    30 PERM              0 ****  ****    1  
@<TRIPOS>SET
UNK_ATOMS       STATIC     ATOMS    AMSOM    **** 
30 27 28 29 0 0 0 0 0 0 0 37 38 39 40 41 42 43 44 45 \
 46 47 48 49 50 0 0 0 0 0 0
LAB$B_TYPE      STATIC     BONDS    LABELGROUP SYSTEM 
0
@<TRIPOS>NORMAL
@<TRIPOS>FF_PBC
FORCE_FIELD_SETUP_FEATURE Force Field Setup information
v1.0  0 0.000000 0.000000 0.000000 0.000000 0.000000 0.000000 NONE 0 0 0 0 0 0 0 0 0 0 0 0 0
