#	Name:			29
#	Creating user name:	jeff
#	Creation time:		Fri Dec 13 10:08:35 2002

#	Modifying user name:	jeff
#	Modification time:	Fri Dec 13 10:08:39 2002

@<TRIPOS>MOLECULE
29
   66    70     5     1     3
SMALL
USER_CHARGES


@<TRIPOS>ATOM
      1 C1          3.888660   -6.361648   15.299628 C.ar      4 NAPHTHALENE   -0.236200 
      2 C2          4.056391   -5.145810   15.968051 C.ar      4 NAPHTHALENE   -0.158700 
      3 C3          5.327038   -4.570423   16.056444 C.ar      4 NAPHTHALENE   -0.071200 
      4 C4          6.427285   -5.218887   15.492549 C.ar      4 NAPHTHALENE   -0.315800 
      5 ****        6.593103   -9.518385   10.368251 H         2 APM2        0.145100 
      6 ****        5.141405  -10.529202    8.612013 H         2 APM2        0.182800 
      7 ****        6.064973   -9.144092    8.031381 H         2 APM2        0.212400 
      8 ****        2.756107  -10.387932    8.438879 H         2 APM2        0.199400 
      9 ****        5.101385   -6.857343    7.753715 H         2 APM2        0.186300 
     10 ****        3.062397   -5.663081    7.022953 H         2 APM2        0.185900 
     11 ****        0.849552   -6.715840    7.258744 H         2 APM2        0.150200 
     12 ****        3.843683   -9.992997   11.042464 H         2 APM2        0.373900 
     13 ****       -1.654207   -9.400454    7.100140 H         2 APM2        0.557200 
     14 ****       -0.635188   -8.088059    6.535987 H         2 APM2        0.549000 
     15 ****        0.807441  -10.908501    9.045520 H         2 APM2        0.538800 
     16 ****       -0.822971  -11.010979    8.418107 H         2 APM2        0.558400 
     17 ****        9.475850   -6.117003    8.853693 H         3 TETRAHYDROISOQUINOLINE    0.259800 
     18 C1          6.089776   -5.317377   10.683043 C.3       3 TETRAHYDROISOQUINOLINE   -0.079600 
     19 N1          6.463441   -6.688727   10.272425 N.am      3 TETRAHYDROISOQUINOLINE   -0.201000 
     20 C2          7.684874   -6.897693    9.683675 C.2       3 TETRAHYDROISOQUINOLINE   -0.014800 
     21 C3          8.517695   -5.911017    9.335175 C.2       3 TETRAHYDROISOQUINOLINE   -0.460300 
     22 C4          9.067417   -3.460409    9.170981 C.ar      3 TETRAHYDROISOQUINOLINE   -0.256300 
     23 C5          8.761930   -2.125666    9.440236 C.ar      3 TETRAHYDROISOQUINOLINE   -0.124600 
     24 S           5.636315  -10.436536   12.659876 S.o2      1 TOS1        2.229300 
     25 O1          6.919185  -11.010895   12.305363 O.2       1 TOS1       -0.914700 
     26 O2          4.701706  -11.224034   13.438788 O.2       1 TOS1       -1.012700 
     27 C5          7.363953   -7.116991   14.286288 C.ar      4 NAPHTHALENE   -0.345500 
     28 C6          7.184970   -8.316806   13.588454 C.ar      4 NAPHTHALENE   -0.007500 
     29 C7          5.911943   -8.886906   13.492509 C.ar      4 NAPHTHALENE   -0.493800 
     30 C8          4.818113   -8.224681   14.050679 C.ar      4 NAPHTHALENE   -0.120900 
     31 C9          4.987954   -7.011243   14.728976 C.ar      4 NAPHTHALENE    0.069700 
     32 C10         6.266092   -6.447387   14.834582 C.ar      4 NAPHTHALENE    0.292300 
     33 H1          2.895473   -6.795155   15.232128 H         4 NAPHTHALENE    0.175900 
     34 C           5.517978   -7.641879   10.543609 C.2       2 APM2        0.516300 
     35 CA          5.599565   -9.115861   10.198943 C.3       2 APM2        0.390200 
     36 CB          5.257830   -9.437581    8.716593 C.3       2 APM2       -0.484200 
     37 CG          4.021715   -8.681042    8.222364 C.ar      2 APM2        0.181300 
     38 CD1         2.784457   -9.333190    8.185430 C.ar      2 APM2       -0.127600 
     39 CD2         4.138634   -7.357466    7.788989 C.ar      2 APM2       -0.018100 
     40 CE1         1.607216   -8.666039    7.818186 C.ar      2 APM2       -0.381500 
     41 CE2         2.983890   -6.682459    7.390908 C.ar      2 APM2       -0.181300 
     42 CZ          1.734769   -7.310538    7.471586 C.ar      2 APM2       -0.086100 
     43 CF          0.267592   -9.396882    7.795646 C.cat     2 APM2        1.094500 
     44 O           4.479478   -7.332345   11.109890 O.2       2 APM2       -0.692800 
     45 N           4.825167   -9.869784   11.175604 N.am      2 APM2       -0.958700 
     46 NG1        -0.740116   -8.929013    7.102655 N.pl3     2 APM2       -1.052500 
     47 NG2         0.074890  -10.511797    8.459113 N.pl3     2 APM2       -0.972200 
     48 C6          7.585952   -1.811878   10.128442 C.ar      3 TETRAHYDROISOQUINOLINE   -0.184600 
     49 C7          6.716487   -2.827108   10.544007 C.ar      3 TETRAHYDROISOQUINOLINE   -0.254100 
     50 C8          7.013672   -4.167033   10.266808 C.ar      3 TETRAHYDROISOQUINOLINE    0.045500 
     51 C9          8.193924   -4.465789    9.592248 C.ar      3 TETRAHYDROISOQUINOLINE    0.193000 
     52 H1          6.029129   -5.285189   11.783731 H         3 TETRAHYDROISOQUINOLINE    0.088100 
     53 H2          5.094627   -5.062170   10.280487 H         3 TETRAHYDROISOQUINOLINE    0.085500 
     54 H8          9.979414   -3.713686    8.639481 H         3 TETRAHYDROISOQUINOLINE    0.179800 
     55 H2          3.201491   -4.648960   16.416353 H         4 NAPHTHALENE    0.148200 
     56 H3          5.455931   -3.619628   16.566004 H         4 NAPHTHALENE    0.143900 
     57 H4          7.407976   -4.757989   15.565949 H         4 NAPHTHALENE    0.191400 
     58 H5          8.365526   -6.712554   14.398226 H         4 NAPHTHALENE    0.242700 
     59 H6          8.038079   -8.799293   13.124831 H         4 NAPHTHALENE    0.230600 
     60 H8          3.832862   -8.665354   13.949595 H         4 NAPHTHALENE    0.196100 
     61 H9          9.438156   -1.340901    9.115691 H         3 TETRAHYDROISOQUINOLINE    0.141800 
     62 H10         7.351343   -0.773479   10.338391 H         3 TETRAHYDROISOQUINOLINE    0.145600 
     63 H11         5.810769   -2.570919   11.084174 H         3 TETRAHYDROISOQUINOLINE    0.171000 
     64 C           8.300645   -8.195682    9.352202 C.2       5 CO2         0.796900 
     65 O           8.822064   -8.863589   10.286963 O.co2     5 CO2        -0.917900 
     66 O           8.348192   -8.562674    8.147991 O.co2     5 CO2        -0.923500 
@<TRIPOS>BOND
     1   24   29 1    
     2   27   28 ar   
     3   27   32 ar   
     4   27   58 1    
     5   32    4 ar   
     6   32   31 ar   
     7   31    1 ar   
     8   35    5 1    
     9   36    6 1    
    10   36    7 1    
    11   38    8 1    
    12   39    9 1    
    13   41   10 1    
    14   42   11 1    
    15   45   12 1    
    16   46   13 1    
    17   46   14 1    
    18   47   15 1    
    19   47   16 1    
    20   34   19 am   
    21   22   54 1    
    22   22   51 ar   
    23   22   23 ar   
    24   23   61 1    
    25   23   48 ar   
    26   48   62 1    
    27   48   49 ar   
    28   49   63 1    
    29   49   50 ar   
    30   31   30 ar   
    31   24   26 2    
    32   24   25 2    
    33   30   29 ar   
    34   30   60 1    
    35   29   28 ar   
    36   28   59 1    
    37    1    2 ar   
    38    1   33 1    
    39   34   44 2    
    40   35   34 1    
    41   35   45 1    
    42   36   35 1    
    43   37   36 1    
    44   37   39 ar   
    45   38   37 ar   
    46   40   38 ar   
    47   43   40 1    
    48   40   42 ar   
    49   42   41 ar   
    50   41   39 ar   
    51   43   47 ar   
    52   43   46 ar   
    53   50   18 1    
    54   50   51 ar   
    55   51   21 1    
    56   21   17 1    
    57   21   20 2    
    58   20   19 1    
    59   45   24 1    
    60   19   18 1    
    61   18   53 1    
    62    2    3 ar   
    63    2   55 1    
    64    3    4 ar   
    65    3   56 1    
    66    4   57 1    
    67   18   52 1    
    68   64   65 ar   
    69   64   66 ar   
    70   20   64 1    
@<TRIPOS>SUBSTRUCTURE
     1 TOS1       24 GROUP             0 I     ****    2  
     2 APM2       34 GROUP             0 I     ****    2 ROOT 
     3 TETRAHYDROISOQUINOLINE    22 PERM              0 ****  ****    2  
     4 NAPHTHALENE    27 PERM              0 ****  ****    1  
     5 CO2        64 PERM              0 ****  ****    1  
@<TRIPOS>SET
UNK_ATOMS       STATIC     ATOMS    AMSOM    **** 
30 24 25 26 0 0 0 0 0 0 0 34 35 36 37 38 39 40 41 42 \
 43 44 45 46 47 0 0 0 0 0 0
ATOM$WHITE      STATIC     ATOMS    COLORGROUP SYSTEM 
0
ATOM$BY_TYPE    STATIC     ATOMS    COLORGROUP SYSTEM 
66 1 2 3 4 5 6 7 8 9 10 11 12 13 14 15 16 17 18 19 \
 20 21 22 23 24 25 26 27 28 29 30 31 32 33 34 35 36 37 \
 38 39 40 41 42 43 44 45 46 47 48 49 50 51 52 53 54 55 \
 56 57 58 59 60 61 62 63 64 65 66
@<TRIPOS>NORMAL
@<TRIPOS>FF_PBC
FORCE_FIELD_SETUP_FEATURE Force Field Setup information
v1.0  0 0.000000 0.000000 0.000000 0.000000 0.000000 0.000000 NONE 0 0 0 0 0 0 0 0 0 0 0 0 0
