#	Name:			30
#	Creating user name:	jeff
#	Creation time:		Fri Dec 13 10:08:39 2002

#	Modifying user name:	jeff
#	Modification time:	Fri Dec 13 10:08:43 2002

@<TRIPOS>MOLECULE
30
   66    70     4     1     3
SMALL
USER_CHARGES


@<TRIPOS>ATOM
      1 C1          3.836079   -6.336427   15.212403 C.ar      4 NAPHTHALENE   -0.252400 
      2 C2          4.018650   -5.126881   15.888411 C.ar      4 NAPHTHALENE   -0.113400 
      3 C3          5.296243   -4.572136   15.995235 C.ar      4 NAPHTHALENE   -0.085300 
      4 C4          6.393956   -5.249426   15.456792 C.ar      4 NAPHTHALENE   -0.258100 
      5 ****        6.771697   -9.689211   10.208398 H         2 APM2        0.149300 
      6 ****        5.183972  -10.614863    8.462607 H         2 APM2        0.188200 
      7 ****        6.106956   -9.205618    7.895451 H         2 APM2        0.127600 
      8 ****        2.718328  -10.449325    8.553663 H         2 APM2        0.203600 
      9 ****        5.051122   -6.937328    7.720792 H         2 APM2        0.193500 
     10 ****        2.988628   -5.689213    7.192416 H         2 APM2        0.204000 
     11 ****        0.789596   -6.803435    7.327365 H         2 APM2        0.160100 
     12 ****        3.965045  -10.007733   10.884585 H         2 APM2        0.378300 
     13 ****       -1.640724   -9.362405    7.118189 H         2 APM2        0.572900 
     14 ****       -0.571385   -8.043710    6.613878 H         2 APM2        0.556500 
     15 ****        0.857154  -10.940415    9.081952 H         2 APM2        0.546100 
     16 ****       -0.812518  -11.039056    8.497769 H         2 APM2        0.572900 
     17 N1          6.510786   -6.789780   10.129532 N.am      3 TETRAHYDROQUINOLINE   -0.451300 
     18 C1          7.772809   -7.125685    9.447471 C.3       3 TETRAHYDROQUINOLINE    0.006700 
     19 C2          8.946259   -6.250862    9.932364 C.3       3 TETRAHYDROQUINOLINE   -0.108000 
     20 C3          8.615921   -4.784619    9.607061 C.3       3 TETRAHYDROQUINOLINE   -0.203600 
     21 C4          7.008771   -3.068805   10.471289 C.ar      3 TETRAHYDROQUINOLINE   -0.195500 
     22 C5          5.795930   -2.643031   11.012745 C.ar      3 TETRAHYDROQUINOLINE   -0.170100 
     23 S           5.641286  -10.492481   12.648388 S.o2      1 TOS1        2.256200 
     24 O1          6.941024  -11.092342   12.414612 O.2       1 TOS1       -0.921700 
     25 O2          4.620523  -11.264685   13.326657 O.2       1 TOS1       -0.947400 
     26 C5          7.327566   -7.225463   14.392610 C.ar      4 NAPHTHALENE   -0.267300 
     27 C6          7.151339   -8.487126   13.819550 C.ar      4 NAPHTHALENE   -0.083000 
     28 C7          5.866176   -8.961503   13.540623 C.ar      4 NAPHTHALENE   -0.476500 
     29 C8          4.759949   -8.217687   13.965116 C.ar      4 NAPHTHALENE   -0.168600 
     30 C9          4.932980   -7.018859   14.668604 C.ar      4 NAPHTHALENE    0.179300 
     31 C10         6.220717   -6.492825   14.838240 C.ar      4 NAPHTHALENE    0.158000 
     32 H1          2.833802   -6.742702   15.118216 H         4 NAPHTHALENE    0.186600 
     33 C           5.606545   -7.793499   10.373639 C.2       2 APM2        0.596300 
     34 CA          5.771541   -9.263504   10.053029 C.3       2 APM2        0.250100 
     35 CB          5.315798   -9.529340    8.590468 C.3       2 APM2       -0.491900 
     36 CG          4.024436   -8.777037    8.209624 C.ar      2 APM2        0.229000 
     37 CD1         2.775411   -9.410265    8.249358 C.ar      2 APM2       -0.152000 
     38 CD2         4.092746   -7.439669    7.799529 C.ar      2 APM2       -0.065000 
     39 CE1         1.607132   -8.726280    7.886885 C.ar      2 APM2       -0.373700 
     40 CE2         2.929242   -6.733710    7.484448 C.ar      2 APM2       -0.181700 
     41 CZ          1.688358   -7.371868    7.544577 C.ar      2 APM2       -0.048400 
     42 CF          0.262819   -9.430221    7.852521 C.cat     2 APM2        1.122800 
     43 O           4.511265   -7.626872   10.877564 O.2       2 APM2       -0.590600 
     44 N           4.952587   -9.964284   11.035098 N.am      2 APM2       -0.960800 
     45 NG1        -0.714813   -8.909737    7.153903 N.pl3     2 APM2       -1.053500 
     46 NG2         0.092491  -10.544752    8.516601 N.pl3     2 APM2       -1.008600 
     47 C6          4.811513   -3.591618   11.272025 C.ar      3 TETRAHYDROQUINOLINE   -0.092900 
     48 C7          5.046260   -4.936137   10.988720 C.ar      3 TETRAHYDROQUINOLINE   -0.257900 
     49 C8          6.260624   -5.400423   10.438130 C.ar      3 TETRAHYDROQUINOLINE    0.170700 
     50 C9          7.243241   -4.423373   10.191470 C.ar      3 TETRAHYDROQUINOLINE    0.035300 
     51 H2          7.636304   -7.022907    8.358757 H         3 TETRAHYDROQUINOLINE    0.115900 
     52 H3          8.148536   -8.136398    9.641653 H         3 TETRAHYDROQUINOLINE    0.050600 
     53 H2          3.168887   -4.615921   16.331667 H         4 NAPHTHALENE    0.162600 
     54 H3          5.436722   -3.619378   16.496859 H         4 NAPHTHALENE    0.165100 
     55 H4          7.379974   -4.800143   15.529109 H         4 NAPHTHALENE    0.187700 
     56 H5          8.330888   -6.822741   14.494214 H         4 NAPHTHALENE    0.207600 
     57 H6          8.019441   -9.098110   13.596966 H         4 NAPHTHALENE    0.183700 
     58 H8          3.763820   -8.587571   13.746571 H         4 NAPHTHALENE    0.211800 
     59 H4          9.886901   -6.550433    9.435812 H         3 TETRAHYDROQUINOLINE    0.089300 
     60 H5          9.069771   -6.378863   11.021116 H         3 TETRAHYDROQUINOLINE    0.092000 
     61 H6          8.586500   -4.638443    8.515565 H         3 TETRAHYDROQUINOLINE    0.089000 
     62 H7          9.416564   -4.147806   10.019446 H         3 TETRAHYDROQUINOLINE    0.108600 
     63 ****        7.771764   -2.324433   10.268773 H         3 TETRAHYDROQUINOLINE    0.184300 
     64 ****        5.611147   -1.596012   11.231294 H         3 TETRAHYDROQUINOLINE    0.172400 
     65 ****        3.858004   -3.283709   11.694601 H         3 TETRAHYDROQUINOLINE    0.156200 
     66 ****        4.201013   -5.547868   11.237144 H         3 TETRAHYDROQUINOLINE    0.180600 
@<TRIPOS>BOND
     1   23   28 1    
     2   26   27 ar   
     3   26   31 ar   
     4   26   56 1    
     5   31    4 ar   
     6   31   30 ar   
     7   30    1 ar   
     8   34    5 1    
     9   35    6 1    
    10   35    7 1    
    11   37    8 1    
    12   38    9 1    
    13   40   10 1    
    14   41   11 1    
    15   44   12 1    
    16   45   13 1    
    17   45   14 1    
    18   46   15 1    
    19   46   16 1    
    20   33   17 am   
    21   21   63 1    
    22   21   50 ar   
    23   21   22 ar   
    24   22   64 1    
    25   22   47 ar   
    26   47   65 1    
    27   47   48 ar   
    28   48   66 1    
    29   48   49 ar   
    30   30   29 ar   
    31   23   25 2    
    32   23   24 2    
    33   29   28 ar   
    34   29   58 1    
    35   28   27 ar   
    36   27   57 1    
    37    1    2 ar   
    38    1   32 1    
    39   33   43 2    
    40   34   33 1    
    41   34   44 1    
    42   35   34 1    
    43   36   35 1    
    44   36   38 ar   
    45   37   36 ar   
    46   39   37 ar   
    47   42   39 1    
    48   39   41 ar   
    49   41   40 ar   
    50   40   38 ar   
    51   42   46 ar   
    52   42   45 ar   
    53   49   17 1    
    54   49   50 ar   
    55   50   20 1    
    56   20   62 1    
    57   20   61 1    
    58   20   19 1    
    59   44   23 1    
    60   19   60 1    
    61   19   59 1    
    62    2    3 ar   
    63    2   53 1    
    64    3    4 ar   
    65    3   54 1    
    66    4   55 1    
    67   19   18 1    
    68   18   52 1    
    69   18   51 1    
    70   18   17 1    
@<TRIPOS>SUBSTRUCTURE
     1 TOS1       23 GROUP             0 I     ****    2  
     2 APM2       33 GROUP             0 I     ****    2 ROOT 
     3 TETRAHYDROQUINOLINE    21 PERM              0 ****  ****    1  
     4 NAPHTHALENE    26 PERM              0 ****  ****    1  
@<TRIPOS>SET
UNK_ATOMS       STATIC     ATOMS    AMSOM    **** 
30 23 24 25 0 0 0 0 0 0 0 33 34 35 36 37 38 39 40 41 \
 42 43 44 45 46 0 0 0 0 0 0
LAB$B_TYPE      STATIC     BONDS    LABELGROUP SYSTEM 
0
ATOM$BY_TYPE    STATIC     ATOMS    COLORGROUP SYSTEM 
62 1 2 3 4 5 6 7 8 9 10 11 12 13 14 15 16 17 18 19 \
 20 21 22 23 24 25 26 27 28 29 30 31 32 33 34 35 36 37 \
 38 39 40 41 42 43 44 45 46 47 48 49 50 51 52 53 54 55 \
 56 57 58 59 60 61 62
@<TRIPOS>NORMAL
@<TRIPOS>FF_PBC
FORCE_FIELD_SETUP_FEATURE Force Field Setup information
v1.0  0 0.000000 0.000000 0.000000 0.000000 0.000000 0.000000 NONE 0 0 0 0 0 0 0 0 0 0 0 0 0
