#	Name:			31
#	Creating user name:	jeff
#	Creation time:		Fri Dec 13 10:08:43 2002

#	Modifying user name:	jeff
#	Modification time:	Fri Dec 13 10:08:46 2002

@<TRIPOS>MOLECULE
31
   61    63     5     1     2
SMALL
USER_CHARGES


@<TRIPOS>ATOM
      1 C1          3.900440   -6.368089   15.302902 C.ar      4 NAPHTHALENE   -0.247400 
      2 C2          4.065415   -5.152383   15.971307 C.ar      4 NAPHTHALENE   -0.137700 
      3 C3          5.332222   -4.570336   16.056871 C.ar      4 NAPHTHALENE   -0.051200 
      4 C4          6.431553   -5.206552   15.472336 C.ar      4 NAPHTHALENE   -0.297600 
      5 ****        6.756262   -9.311065   10.333752 H         2 APM2        0.089100 
      6 ****        5.138210  -10.548837    8.706063 H         2 APM2        0.154400 
      7 ****        6.104599   -9.254054    8.014405 H         2 APM2        0.107900 
      8 ****        2.755207  -10.397990    8.494378 H         2 APM2        0.197600 
      9 ****        5.097589   -6.885728    7.740697 H         2 APM2        0.193600 
     10 ****        3.067135   -5.678365    7.028572 H         2 APM2        0.198200 
     11 ****        0.859805   -6.752328    7.196356 H         2 APM2        0.160200 
     12 ****        3.957259   -9.968435   11.020075 H         2 APM2        0.381500 
     13 ****       -1.602504   -9.367015    7.056254 H         2 APM2        0.571300 
     14 ****       -0.548995   -8.060380    6.501107 H         2 APM2        0.554700 
     15 ****        0.876972  -10.863611    9.082890 H         2 APM2        0.542800 
     16 ****       -0.774769  -10.988756    8.467347 H         2 APM2        0.572400 
     17 N17         6.327569   -6.624530   10.119426 N.am      3 AMINO      -0.815900 
     18 C           6.081858   -5.212859   10.441420 C.3       5 NBUTYL      0.107400 
     19 C           7.232693   -4.283414    9.971619 C.3       5 NBUTYL     -0.018200 
     20 C           6.967539   -2.811533   10.391624 C.3       5 NBUTYL      0.099300 
     21 C           8.099553   -1.875151    9.900575 C.3       5 NBUTYL     -0.275600 
     22 ****        7.146457   -6.857825    9.595589 H         3 AMINO       0.426100 
     23 ****        5.141214   -4.880632    9.969095 H         5 NBUTYL      0.081200 
     24 ****        5.997933   -5.074414   11.531460 H         5 NBUTYL      0.020400 
     25 ****        7.315790   -4.348839    8.874718 H         5 NBUTYL      0.025700 
     26 ****        8.182664   -4.624763   10.417488 H         5 NBUTYL      0.044600 
     27 S           5.692539  -10.419528   12.627459 S.o2      1 TOS1        2.255600 
     28 O1          6.982074  -10.996956   12.299807 O.2       1 TOS1       -0.917000 
     29 O2          4.725111  -11.206067   13.367872 O.2       1 TOS1       -0.948300 
     30 C5          7.365655   -7.064970   14.208262 C.ar      4 NAPHTHALENE   -0.302200 
     31 C6          7.198267   -8.281173   13.540625 C.ar      4 NAPHTHALENE   -0.112600 
     32 C7          5.934918   -8.873765   13.470855 C.ar      4 NAPHTHALENE   -0.447700 
     33 C8          4.838044   -8.227569   14.047629 C.ar      4 NAPHTHALENE   -0.181700 
     34 C9          4.999066   -7.008760   14.715626 C.ar      4 NAPHTHALENE    0.136900 
     35 C10         6.269936   -6.423306   14.799662 C.ar      4 NAPHTHALENE    0.241400 
     36 H1          2.910358   -6.809724   15.245195 H         4 NAPHTHALENE    0.193700 
     37 C           5.457285   -7.589064   10.512741 C.2       2 APM2        0.722000 
     38 CA          5.693550   -9.054289   10.187640 C.3       2 APM2        0.268200 
     39 CB          5.297247   -9.457968    8.734188 C.3       2 APM2       -0.357900 
     40 CG          4.046862   -8.710953    8.238702 C.ar      2 APM2        0.127400 
     41 CD1         2.802652   -9.352814    8.214156 C.ar      2 APM2       -0.115300 
     42 CD2         4.137749   -7.389416    7.787623 C.ar      2 APM2       -0.041400 
     43 CE1         1.642548   -8.675164    7.819913 C.ar      2 APM2       -0.379600 
     44 CE2         2.990559   -6.701568    7.385506 C.ar      2 APM2       -0.174700 
     45 CZ          1.743547   -7.330631    7.443440 C.ar      2 APM2       -0.046900 
     46 CF          0.299720   -9.389519    7.795216 C.cat     2 APM2        1.113100 
     47 O           4.449713   -7.319184   11.146538 O.2       2 APM2       -0.638900 
     48 N           4.941332   -9.843163   11.158161 N.am      2 APM2       -0.984300 
     49 NG1        -0.680670   -8.904989    7.074917 N.pl3     2 APM2       -1.044700 
     50 NG2         0.125360  -10.486014    8.489606 N.pl3     2 APM2       -1.002900 
     51 ****        6.900776   -2.745764   11.490928 H         5 NBUTYL      0.005600 
     52 ****        6.008931   -2.472477    9.964642 H         5 NBUTYL      0.006300 
     53 ****        7.888333   -0.836780   10.201422 H         5 NBUTYL      0.079300 
     54 ****        8.177790   -1.915619    8.803004 H         5 NBUTYL      0.066000 
     55 ****        9.062414   -2.180917   10.338565 H         5 NBUTYL      0.065500 
     56 H2          3.210216   -4.659856   16.424500 H         4 NAPHTHALENE    0.169900 
     57 H3          5.461863   -3.625888   16.576683 H         4 NAPHTHALENE    0.161200 
     58 H4          7.410570   -4.743100   15.548584 H         4 NAPHTHALENE    0.189900 
     59 H5          8.356072   -6.623481   14.264021 H         4 NAPHTHALENE    0.213600 
     60 H6          8.052373   -8.764332   13.078140 H         4 NAPHTHALENE    0.198200 
     61 H8          3.858500   -8.687187   13.968713 H         4 NAPHTHALENE    0.219600 
@<TRIPOS>BOND
     1   27   32 1    
     2   30   31 ar   
     3   30   35 ar   
     4   30   59 1    
     5   35    4 ar   
     6   35   34 ar   
     7   34    1 ar   
     8   38    5 1    
     9   39    6 1    
    10   39    7 1    
    11   41    8 1    
    12   42    9 1    
    13   44   10 1    
    14   45   11 1    
    15   48   12 1    
    16   49   13 1    
    17   49   14 1    
    18   50   15 1    
    19   50   16 1    
    20   18   19 1    
    21   19   20 1    
    22   37   17 am   
    23   20   21 1    
    24   17   18 1    
    25   17   22 1    
    26   18   23 1    
    27   18   24 1    
    28   19   25 1    
    29   19   26 1    
    30   34   33 ar   
    31   27   29 2    
    32   27   28 2    
    33   33   32 ar   
    34   33   61 1    
    35   32   31 ar   
    36   31   60 1    
    37    1    2 ar   
    38    1   36 1    
    39   37   47 2    
    40   38   37 1    
    41   38   48 1    
    42   39   38 1    
    43   40   39 1    
    44   40   42 ar   
    45   41   40 ar   
    46   43   41 ar   
    47   46   43 1    
    48   43   45 ar   
    49   45   44 ar   
    50   44   42 ar   
    51   46   50 ar   
    52   46   49 ar   
    53   20   51 1    
    54   20   52 1    
    55   21   53 1    
    56   21   54 1    
    57   21   55 1    
    58   48   27 1    
    59    2    3 ar   
    60    2   56 1    
    61    3    4 ar   
    62    3   57 1    
    63    4   58 1    
@<TRIPOS>SUBSTRUCTURE
     1 TOS1       27 GROUP             0 I     ****    2  
     2 APM2       37 GROUP             0 I     ****    2 ROOT 
     3 AMINO      17 PERM              0 ****  ****    2  
     4 NAPHTHALENE    30 PERM              0 ****  ****    1  
     5 NBUTYL     18 PERM              0 ****  ****    1  
@<TRIPOS>SET
UNK_ATOMS       STATIC     ATOMS    AMSOM    **** 
30 27 28 29 0 0 0 0 0 0 0 37 38 39 40 41 42 43 44 45 \
 46 47 48 49 50 0 0 0 0 0 0
LAB$B_TYPE      STATIC     BONDS    LABELGROUP SYSTEM 
0
@<TRIPOS>NORMAL
@<TRIPOS>FF_PBC
FORCE_FIELD_SETUP_FEATURE Force Field Setup information
v1.0  0 0.000000 0.000000 0.000000 0.000000 0.000000 0.000000 NONE 0 0 0 0 0 0 0 0 0 0 0 0 0
