#	Name:			32
#	Creating user name:	jeff
#	Creation time:		Fri Dec 13 10:08:46 2002

#	Modifying user name:	jeff
#	Modification time:	Fri Dec 13 10:08:50 2002

@<TRIPOS>MOLECULE
32
   68    71     5     1     2
SMALL
USER_CHARGES


@<TRIPOS>ATOM
      1 C1          3.399620   -6.208592   14.860718 C.ar      4 NAPHTHALENE   -0.238600 
      2 C2          3.441260   -4.932587   15.429846 C.ar      4 NAPHTHALENE   -0.130000 
      3 C3          4.661538   -4.263227   15.549073 C.ar      4 NAPHTHALENE   -0.051200 
      4 C4          5.837385   -4.872191   15.103310 C.ar      4 NAPHTHALENE   -0.323200 
      5 ****        6.767553   -9.359836   10.354760 H         2 APM2        0.118300 
      6 ****        5.244854  -10.498046    8.584814 H         2 APM2        0.171200 
      7 ****        6.150027   -9.098157    8.007210 H         2 APM2        0.133300 
      8 ****        2.841022  -10.395302    8.427582 H         2 APM2        0.212900 
      9 ****        5.089659   -6.834719    7.774696 H         2 APM2        0.173300 
     10 ****        3.036534   -5.643733    7.105472 H         2 APM2        0.204300 
     11 ****        0.872077   -6.707217    7.305726 H         2 APM2        0.163200 
     12 ****        4.013942  -10.142852   10.879026 H         2 APM2        0.386500 
     13 ****       -1.630930   -9.390737    7.105302 H         2 APM2        0.570800 
     14 ****       -0.629917   -8.062929    6.548283 H         2 APM2        0.555800 
     15 ****        0.842118  -10.949113    9.021246 H         2 APM2        0.543800 
     16 ****       -0.793351  -11.026736    8.392648 H         2 APM2        0.572200 
     17 ****        7.516333   -6.207523    8.476192 H         3 PIP3        0.125600 
     18 ****        7.785993   -7.821404    9.126973 H         3 PIP3        0.099700 
     19 ****        9.181593   -4.393691   11.349528 H         3 PIP3        0.073500 
     20 ****        8.680294   -6.844583   11.250865 H         3 PIP3        0.114000 
     21 ****        8.411149   -4.151168    9.755327 H         3 PIP3        0.099100 
     22 C22        11.777464   -7.795695    8.932259 C.3       5 CO2         0.059900 
     23 ****        6.800224   -3.540280   11.561081 H         3 PIP3        0.030900 
     24 ****        7.018331   -5.136024   12.292339 H         3 PIP3        0.007000 
     25 ****        4.929530   -5.120010   10.989099 H         3 PIP3        0.099400 
     26 ****        5.813490   -4.626930    9.531298 H         3 PIP3        0.096300 
     27 S           5.630289  -10.330192   12.669531 S.o2      1 TOS1        2.242700 
     28 O1          6.974866  -10.842970   12.485942 O.2       1 TOS1       -0.918600 
     29 O2          4.655420  -11.121447   13.393971 O.2       1 TOS1       -0.951000 
     30 C5          6.978301   -6.784140   14.118713 C.ar      4 NAPHTHALENE   -0.258000 
     31 C6          6.932406   -8.045919   13.520515 C.ar      4 NAPHTHALENE   -0.117400 
     32 C7          5.713098   -8.717386   13.405945 C.ar      4 NAPHTHALENE   -0.431000 
     33 C8          4.539245   -8.101443   13.845859 C.ar      4 NAPHTHALENE   -0.202400 
     34 C9          4.576119   -6.823726   14.417868 C.ar      4 NAPHTHALENE    0.169100 
     35 C10         5.802182   -6.158324   14.548291 C.ar      4 NAPHTHALENE    0.201700 
     36 H1          2.443813   -6.715410   14.768861 H         4 NAPHTHALENE    0.187100 
     37 C           5.468491   -7.620123   10.494889 C.2       2 APM2        0.529500 
     38 CA          5.720958   -9.078209   10.166959 C.3       2 APM2        0.312000 
     39 CB          5.345987   -9.406460    8.691021 C.3       2 APM2       -0.449500 
     40 CG          4.066943   -8.685204    8.225720 C.ar      2 APM2        0.184500 
     41 CD1         2.831411   -9.342653    8.185055 C.ar      2 APM2       -0.156200 
     42 CD2         4.138516   -7.351820    7.813562 C.ar      2 APM2       -0.039400 
     43 CE1         1.641812   -8.681871    7.831462 C.ar      2 APM2       -0.353200 
     44 CE2         2.977985   -6.674531    7.442634 C.ar      2 APM2       -0.178500 
     45 CZ          1.741163   -7.319030    7.508399 C.ar      2 APM2       -0.063500 
     46 CF          0.296417   -9.402743    7.793324 C.cat     2 APM2        1.106900 
     47 O           4.444111   -7.417925   11.127664 O.2       2 APM2       -0.608800 
     48 N           4.958604   -9.899139   11.100729 N.am      2 APM2       -0.975200 
     49 NG1        -0.715255   -8.917379    7.109030 N.pl3     2 APM2       -1.044100 
     50 NG2         0.108367  -10.529808    8.441146 N.pl3     2 APM2       -1.001500 
     51 N1          6.279242   -6.585531   10.123805 N.am      3 PIP3       -0.346200 
     52 C2          7.541352   -6.792026    9.409374 C.3       3 PIP3       -0.098000 
     53 C3          8.669442   -6.250394   10.320790 C.3       3 PIP3       -0.188900 
     54 C4          8.393218   -4.762553   10.671462 C.3       3 PIP3       -0.203400 
     55 C5          7.006973   -4.600381   11.341998 C.3       3 PIP3        0.122000 
     56 C6          5.892327   -5.211746   10.460853 C.3       3 PIP3       -0.084000 
     57 ****       12.516130   -8.137089    9.672497 H         5 CO2         0.105900 
     58 ****       12.192625   -6.916712    8.414621 H         5 CO2         0.067100 
     59 ****       11.646402   -8.593241    8.186380 H         5 CO2         0.058200 
     60 H2          2.527051   -4.462584   15.779214 H         4 NAPHTHALENE    0.165700 
     61 H3          4.694662   -3.270786   15.988850 H         4 NAPHTHALENE    0.163000 
     62 H4          6.777177   -4.335810   15.192456 H         4 NAPHTHALENE    0.199100 
     63 H5          7.939094   -6.289955   14.232881 H         4 NAPHTHALENE    0.210300 
     64 H6          7.843892   -8.499050   13.146675 H         4 NAPHTHALENE    0.185900 
     65 H8          3.596597   -8.626359   13.734031 H         4 NAPHTHALENE    0.223600 
     66 C           9.994287   -6.394058    9.610864 C.2       5 CO2         0.942100 
     67 O          10.520005   -5.425654    9.084450 O.2       5 CO2        -0.627200 
     68 O          10.508986   -7.635743    9.608203 O.3       5 CO2        -0.526800 
@<TRIPOS>BOND
     1   27   32 1    
     2   30   31 ar   
     3   30   35 ar   
     4   30   63 1    
     5   35    4 ar   
     6   35   34 ar   
     7   34    1 ar   
     8   38    5 1    
     9   39    6 1    
    10   39    7 1    
    11   41    8 1    
    12   42    9 1    
    13   44   10 1    
    14   45   11 1    
    15   48   12 1    
    16   49   13 1    
    17   49   14 1    
    18   50   15 1    
    19   50   16 1    
    20   52   17 1    
    21   52   18 1    
    22   53   66 1    
    23   53   20 1    
    24   54   21 1    
    25   54   19 1    
    26   55   23 1    
    27   55   24 1    
    28   56   25 1    
    29   56   26 1    
    30   34   33 ar   
    31   27   29 2    
    32   27   28 2    
    33   33   32 ar   
    34   33   65 1    
    35   32   31 ar   
    36   31   64 1    
    37    1    2 ar   
    38    1   36 1    
    39   37   47 2    
    40   38   37 1    
    41   38   48 1    
    42   39   38 1    
    43   40   39 1    
    44   40   42 ar   
    45   41   40 ar   
    46   43   41 ar   
    47   46   43 1    
    48   43   45 ar   
    49   45   44 ar   
    50   44   42 ar   
    51   46   50 ar   
    52   46   49 ar   
    53   51   56 1    
    54   52   51 1    
    55   53   52 1    
    56   54   53 1    
    57   54   55 1    
    58   55   56 1    
    59   37   51 am   
    60   48   27 1    
    61   68   22 1    
    62   22   57 1    
    63   22   58 1    
    64    2    3 ar   
    65    2   60 1    
    66    3    4 ar   
    67    3   61 1    
    68    4   62 1    
    69   22   59 1    
    70   66   67 2    
    71   66   68 1    
@<TRIPOS>SUBSTRUCTURE
     1 TOS1       27 GROUP             0 I     ****    2  
     2 APM2       37 GROUP             0 I     ****    2 ROOT 
     3 PIP3       51 GROUP             0 I     ****    2  
     4 NAPHTHALENE    30 PERM              0 ****  ****    1  
     5 CO2        66 PERM              0 ****  ****    1  
@<TRIPOS>SET
UNK_ATOMS       STATIC     ATOMS    AMSOM    **** 
30 27 28 29 0 0 0 0 0 0 0 37 38 39 40 41 42 43 44 45 \
 46 47 48 49 50 51 52 53 54 55 56
LAB$B_TYPE      STATIC     BONDS    LABELGROUP SYSTEM 
0
@<TRIPOS>NORMAL
@<TRIPOS>FF_PBC
FORCE_FIELD_SETUP_FEATURE Force Field Setup information
v1.0  0 0.000000 0.000000 0.000000 0.000000 0.000000 0.000000 NONE 0 0 0 0 0 0 0 0 0 0 0 0 0
