#	Name:			33
#	Creating user name:	jeff
#	Creation time:		Fri Dec 13 10:08:50 2002

#	Modifying user name:	jeff
#	Modification time:	Fri Dec 13 10:08:56 2002

@<TRIPOS>MOLECULE
33
   89    91     4     1     1
SMALL
USER_CHARGES


@<TRIPOS>ATOM
      1 C1          3.847224   -8.004729   13.790140 C.3       1 TOS1        0.353000 
      2 ****        5.119537   -5.753535   14.517482 H         1 TOS1        0.211800 
      3 C3          7.638944   -4.984916   15.178246 C.3       1 TOS1        0.060200 
      4 C4          8.807452   -9.514688   13.401797 C.3       1 TOS1        0.276800 
      5 ****        9.133625   -6.921500   13.897502 H         1 TOS1        0.208500 
      6 ****        3.563991   -8.812791   13.104662 H         1 TOS1       -0.013900 
      7 C7          8.480357   -4.024199   14.300237 C.3       1 TOS1       -0.086100 
      8 ****        6.782011   -9.311166   10.126364 H         2 APM2        0.100200 
      9 ****        5.248171  -10.610014    8.498196 H         2 APM2        0.193000 
     10 ****        6.179504   -9.287642    7.768055 H         2 APM2        0.129700 
     11 ****        2.805767  -10.537759    8.215594 H         2 APM2        0.213700 
     12 ****        5.122427   -7.058383    7.317547 H         2 APM2        0.152700 
     13 ****        3.050103   -5.732093    7.026011 H         2 APM2        0.206200 
     14 ****        0.854568   -6.758476    7.504956 H         2 APM2        0.164000 
     15 ****        3.942201   -9.684774   10.813291 H         2 APM2        0.387300 
     16 ****       -1.646403   -9.280624    7.220782 H         2 APM2        0.576500 
     17 ****       -0.589662   -7.946238    6.730657 H         2 APM2        0.560300 
     18 ****        0.943940  -11.038382    8.884835 H         2 APM2        0.562500 
     19 ****       -0.763430  -11.060747    8.413402 H         2 APM2        0.581000 
     20 ****        7.664086   -6.375960    8.039561 H         3 PIP3        0.114800 
     21 ****        7.957113   -7.880748    8.915417 H         3 PIP3        0.076600 
     22 ****        9.801428   -6.247321    9.314116 H         3 PIP3        0.048000 
     23 ****        8.929112   -6.637489   10.825498 H         3 PIP3       -0.040600 
     24 ****        8.397888   -4.160530    9.085862 H         3 PIP3        0.193400 
     25 C           9.648536   -3.908069   10.755810 C.2       4 CO2         0.909600 
     26 ****        6.940919   -3.465138   11.049093 H         3 PIP3        0.048900 
     27 ****        7.226447   -5.079820   11.784252 H         3 PIP3        0.053200 
     28 ****        5.097130   -5.015153   10.524145 H         3 PIP3        0.138800 
     29 ****        5.951514   -4.612513    9.018317 H         3 PIP3        0.130100 
     30 S           5.720200  -10.228646   12.435342 S.o2      1 TOS1        2.399200 
     31 O1          6.797359  -11.046020   11.938228 O.2       1 TOS1       -0.970100 
     32 O2          4.729405  -10.871076   13.270716 O.2       1 TOS1       -0.955800 
     33 C1          6.307364   -8.712303   13.279442 C.ar      1 TOS1       -0.910900 
     34 C2          5.376001   -7.755735   13.736623 C.ar      1 TOS1        0.319000 
     35 C3          5.820783   -6.524298   14.236788 C.ar      1 TOS1       -0.446100 
     36 C4          7.178227   -6.253130   14.421496 C.ar      1 TOS1        0.215400 
     37 C5          8.089428   -7.191715   13.936014 C.ar      1 TOS1       -0.270200 
     38 C6          7.676698   -8.464713   13.520943 C.ar      1 TOS1        0.232000 
     39 C39         8.427214   -5.407508   16.445852 C.3       1 TOS1       -0.371900 
     40 C           5.540395   -7.524014   10.057529 C.2       2 APM2        0.555100 
     41 CA          5.750897   -9.012719    9.902262 C.3       2 APM2        0.456400 
     42 CB          5.372021   -9.517112    8.479293 C.3       2 APM2       -0.509600 
     43 CG          4.087057   -8.828449    7.995973 C.ar      2 APM2        0.223700 
     44 CD1         2.844138   -9.472956    8.021941 C.ar      2 APM2       -0.168400 
     45 CD2         4.159496   -7.514060    7.525718 C.ar      2 APM2       -0.036300 
     46 CE1         1.659408   -8.751979    7.792433 C.ar      2 APM2       -0.385000 
     47 CE2         2.990803   -6.773010    7.331648 C.ar      2 APM2       -0.181400 
     48 CZ          1.747676   -7.374638    7.540365 C.ar      2 APM2       -0.064000 
     49 CF          0.304589   -9.430795    7.807181 C.cat     2 APM2        1.171200 
     50 O           4.453576   -7.248466   10.536835 O.2       2 APM2       -0.609800 
     51 N           4.936428   -9.632684   10.943688 N.am      2 APM2       -1.091100 
     52 NG1        -0.710522   -8.846155    7.219999 N.pl3     2 APM2       -1.069200 
     53 NG2         0.153013  -10.586473    8.402466 N.pl3     2 APM2       -1.051700 
     54 N1          6.417981   -6.544631    9.710189 N.am      3 PIP3       -0.350800 
     55 C2          7.698296   -6.822037    9.047267 C.3       3 PIP3       -0.090900 
     56 C3          8.840658   -6.143161    9.846298 C.3       3 PIP3        0.189900 
     57 C4          8.517597   -4.642021   10.073209 C.3       3 PIP3       -0.584100 
     58 C5          7.171664   -4.523866   10.834836 C.3       3 PIP3        0.195900 
     59 C6          6.045614   -5.149649    9.977367 C.3       3 PIP3       -0.227100 
     60 O           9.867362   -2.738041   10.477278 O.2       4 CO2        -0.617400 
     61 O          10.368468   -4.603186   11.648075 O.3       4 CO2        -0.423000 
     62 ****       11.609724   -3.993104   12.062282 C.3       4 CO2        -0.147300 
     63 ****        6.761947   -4.412707   15.524958 H         1 TOS1        0.069900 
     64 C64         2.920107   -6.812720   13.395410 C.3       1 TOS1       -0.412400 
     65 C65         3.526709   -8.437494   15.246566 C.3       1 TOS1       -0.414900 
     66 ****        8.403321  -10.531117   13.366343 H         1 TOS1        0.056200 
     67 C67         9.688927   -9.590496   14.682847 C.3       1 TOS1       -0.434100 
     68 C68         9.676483   -9.250892   12.141793 C.3       1 TOS1       -0.248300 
     69 ****        9.313979   -4.560346   13.827243 H         1 TOS1        0.059400 
     70 ****        8.905209   -3.205039   14.895907 H         1 TOS1        0.062100 
     71 ****        7.840435   -3.585913   13.525803 H         1 TOS1       -0.040100 
     72 ****        7.806322   -6.077105   17.059565 H         1 TOS1        0.097800 
     73 ****        8.686634   -4.522071   17.044270 H         1 TOS1        0.117600 
     74 ****        9.356427   -5.932075   16.179598 H         1 TOS1        0.087700 
     75 ****        2.931342   -5.985601   14.118901 H         1 TOS1        0.115600 
     76 ****        1.875106   -7.164443   13.347214 H         1 TOS1        0.089400 
     77 ****        3.184583   -6.408308   12.409446 H         1 TOS1        0.093700 
     78 ****        4.157410   -9.290866   15.542707 H         1 TOS1        0.113400 
     79 ****        2.469548   -8.730712   15.348435 H         1 TOS1        0.107400 
     80 ****        3.725554   -7.604860   15.940851 H         1 TOS1        0.105200 
     81 ****       10.275815   -8.678597   14.856264 H         1 TOS1        0.105900 
     82 ****       10.402745  -10.427777   14.603015 H         1 TOS1        0.127700 
     83 ****        9.048743   -9.766132   15.562146 H         1 TOS1        0.089800 
     84 ****        9.039028   -9.195749   11.245782 H         1 TOS1        0.021300 
     85 ****       10.408497  -10.062677   11.997739 H         1 TOS1        0.089000 
     86 ****       10.232911   -8.305174   12.235826 H         1 TOS1        0.055600 
     87 ****       12.396877   -4.251652   11.339854 H         4 CO2         0.128900 
     88 ****       11.877047   -4.435526   13.028337 H         4 CO2         0.141100 
     89 ****       11.581691   -2.900100   12.185082 H         4 CO2         0.101100 
@<TRIPOS>BOND
     1   34    1 1    
     2   35    2 1    
     3   36    3 1    
     4   38    4 1    
     5   37    5 1    
     6    1    6 1    
     7    3    7 1    
     8   41    8 1    
     9   42    9 1    
    10   42   10 1    
    11   44   11 1    
    12   45   12 1    
    13   47   13 1    
    14   48   14 1    
    15   51   15 1    
    16   52   16 1    
    17   52   17 1    
    18   53   18 1    
    19   53   19 1    
    20   55   20 1    
    21   55   21 1    
    22   56   22 1    
    23   56   23 1    
    24   57   24 1    
    25   25   60 2    
    26   58   26 1    
    27   58   27 1    
    28   59   28 1    
    29   59   29 1    
    30   33   30 1    
    31   30   32 2    
    32   30   31 2    
    33   33   38 ar   
    34   34   33 ar   
    35   35   34 ar   
    36   36   35 ar   
    37    3   39 1    
    38   36   37 ar   
    39   37   38 ar   
    40   40   50 2    
    41   41   40 1    
    42   41   51 1    
    43   42   41 1    
    44   43   42 1    
    45   43   45 ar   
    46   44   43 ar   
    47   46   44 ar   
    48   49   46 1    
    49   46   48 ar   
    50   48   47 ar   
    51   47   45 ar   
    52   49   53 ar   
    53   49   52 ar   
    54   54   59 1    
    55   55   54 1    
    56   56   55 1    
    57   57   56 1    
    58   57   58 1    
    59   58   59 1    
    60   40   54 am   
    61   51   30 1    
    62   25   61 1    
    63   57   25 1    
    64   61   62 1    
    65    3   63 1    
    66    1   64 1    
    67    1   65 1    
    68    4   66 1    
    69    4   67 1    
    70    4   68 1    
    71    7   69 1    
    72    7   70 1    
    73    7   71 1    
    74   39   72 1    
    75   39   73 1    
    76   39   74 1    
    77   64   75 1    
    78   64   76 1    
    79   64   77 1    
    80   65   78 1    
    81   65   79 1    
    82   65   80 1    
    83   67   81 1    
    84   67   82 1    
    85   67   83 1    
    86   68   84 1    
    87   68   85 1    
    88   68   86 1    
    89   62   87 1    
    90   62   88 1    
    91   62   89 1    
@<TRIPOS>SUBSTRUCTURE
     1 TOS1       30 GROUP             0 I     ****    1  
     2 APM2       40 GROUP             0 I     ****    2 ROOT 
     3 PIP3       54 GROUP             0 I     ****    2  
     4 CO2        25 PERM              0 ****  ****    1  
@<TRIPOS>SET
UNK_ATOMS       STATIC     ATOMS    AMSOM    **** 
30 30 31 32 33 34 35 36 37 38 0 40 41 42 43 44 45 46 47 48 \
 49 50 51 52 53 54 55 56 57 58 59
@<TRIPOS>NORMAL
@<TRIPOS>FF_PBC
FORCE_FIELD_SETUP_FEATURE Force Field Setup information
v1.0  0 0.000000 0.000000 0.000000 0.000000 0.000000 0.000000 NONE 0 0 0 0 0 0 0 0 0 0 0 0 0
