#	Name:			34
#	Creating user name:	jeff
#	Creation time:		Fri Dec 13 10:08:56 2002

#	Modifying user name:	jeff
#	Modification time:	Fri Dec 13 10:09:00 2002

@<TRIPOS>MOLECULE
34
   69    72     5     1     2
SMALL
USER_CHARGES


@<TRIPOS>ATOM
      1 C1          3.888257   -6.365952   15.300965 C.ar      4 NAPHTHALENE   -0.219800 
      2 C2          4.058630   -5.149319   15.968283 C.ar      4 NAPHTHALENE   -0.157900 
      3 C3          5.327336   -4.571745   16.053242 C.ar      4 NAPHTHALENE   -0.048800 
      4 C4          6.427034   -5.218378   15.482702 C.ar      4 NAPHTHALENE   -0.351200 
      5 ****        6.770811   -9.310431   10.398161 H         2 APM2        0.106300 
      6 ****        5.242462  -10.491467    8.659918 H         2 APM2        0.182200 
      7 ****        6.160658   -9.113467    8.047992 H         2 APM2        0.144100 
      8 ****        2.837517  -10.374993    8.502283 H         2 APM2        0.215500 
      9 ****        5.111840   -6.854005    7.744003 H         2 APM2        0.162900 
     10 ****        3.076072   -5.671876    7.010415 H         2 APM2        0.205200 
     11 ****        0.905854   -6.724332    7.199293 H         2 APM2        0.160500 
     12 ****        3.971564   -9.945942   10.996553 H         2 APM2        0.395800 
     13 ****       -1.592686   -9.377155    7.069448 H         2 APM2        0.569700 
     14 ****       -0.570335   -8.082308    6.484042 H         2 APM2        0.554500 
     15 ****        0.853129  -10.878752    9.090702 H         2 APM2        0.556600 
     16 ****       -0.775488  -10.979433    8.454736 H         2 APM2        0.579100 
     17 ****        7.544542   -6.235287    8.423637 H         3 PIP3        0.138900 
     18 ****        7.814435   -7.821828    9.137233 H         3 PIP3        0.091000 
     19 ****        9.663600   -6.306478    9.769398 H         3 PIP3        0.068400 
     20 ****        8.721653   -6.794916   11.204838 H         3 PIP3       -0.017400 
     21 ****        8.358428   -4.175084    9.618304 H         3 PIP3        0.181500 
     22 C           9.503364   -4.126906   11.433623 C.2       5 CO2         0.879800 
     23 ****        6.820472   -3.492968   11.468015 H         3 PIP3        0.048700 
     24 ****        7.020853   -5.087531   12.243324 H         3 PIP3       -0.012100 
     25 ****        4.945448   -5.054398   10.897462 H         3 PIP3        0.109800 
     26 ****        5.851566   -4.604011    9.443258 H         3 PIP3        0.110000 
     27 S           5.691281  -10.422307   12.629683 S.o2      1 TOS1        2.297700 
     28 O1          6.986644  -10.995116   12.314973 O.2       1 TOS1       -0.933600 
     29 O2          4.717435  -11.215788   13.352786 O.2       1 TOS1       -0.954100 
     30 C5          7.364191   -7.132871   14.314327 C.ar      4 NAPHTHALENE   -0.342300 
     31 C6          7.192438   -8.309275   13.581637 C.ar      4 NAPHTHALENE   -0.008900 
     32 C7          5.924008   -8.884399   13.485841 C.ar      4 NAPHTHALENE   -0.517800 
     33 C8          4.824159   -8.231733   14.049577 C.ar      4 NAPHTHALENE   -0.195100 
     34 C9          4.986409   -7.018294   14.728818 C.ar      4 NAPHTHALENE    0.154900 
     35 C10         6.262810   -6.451933   14.841373 C.ar      4 NAPHTHALENE    0.259300 
     36 H1          2.894691   -6.797810   15.233288 H         4 NAPHTHALENE    0.188400 
     37 C           5.485546   -7.567546   10.496795 C.2       2 APM2        0.659400 
     38 CA          5.725324   -9.032827   10.202127 C.3       2 APM2        0.316000 
     39 CB          5.351384   -9.398133    8.735714 C.3       2 APM2       -0.479900 
     40 CG          4.079275   -8.683631    8.242812 C.ar      2 APM2        0.176600 
     41 CD1         2.842469   -9.333443    8.216715 C.ar      2 APM2       -0.149100 
     42 CD2         4.159267   -7.364478    7.787372 C.ar      2 APM2       -0.020800 
     43 CE1         1.664129   -8.675590    7.820445 C.ar      2 APM2       -0.378200 
     44 CE2         3.008483   -6.691691    7.377348 C.ar      2 APM2       -0.188700 
     45 CZ          1.770374   -7.326810    7.443188 C.ar      2 APM2       -0.044300 
     46 CF          0.319783   -9.385553    7.793437 C.cat     2 APM2        1.127800 
     47 O           4.473132   -7.344447   11.142320 O.2       2 APM2       -0.622500 
     48 N           4.952796   -9.825637   11.150695 N.am      2 APM2       -1.026100 
     49 NG1        -0.674742   -8.914095    7.074251 N.pl3     2 APM2       -1.044300 
     50 NG2         0.125055  -10.484361    8.486948 N.pl3     2 APM2       -1.027600 
     51 N1          6.298136   -6.550029   10.086104 N.am      3 PIP3       -0.465700 
     52 C2          7.562164   -6.783543    9.378428 C.3       3 PIP3       -0.121600 
     53 C3          8.687372   -6.210076   10.272804 C.3       3 PIP3        0.127900 
     54 C4          8.401759   -4.717058   10.580558 C.3       3 PIP3       -0.518100 
     55 C5          7.025133   -4.559504   11.277963 C.3       3 PIP3        0.141400 
     56 C6          5.915544   -5.167394   10.387728 C.3       3 PIP3       -0.076700 
     57 O          10.152514   -3.199030   10.979831 O.2       5 CO2        -0.610900 
     58 N           9.728824   -4.645450   12.662726 N.am      5 CO2        -0.849800 
     59 ****       10.756672   -4.119729   13.552890 C.3       5 CO2        -0.071700 
     60 H2          3.205105   -4.652766   16.419609 H         4 NAPHTHALENE    0.177100 
     61 H3          5.459166   -3.621670   16.561920 H         4 NAPHTHALENE    0.169800 
     62 H4          7.406390   -4.753187   15.543004 H         4 NAPHTHALENE    0.205800 
     63 H5          8.364538   -6.761785   14.482863 H         4 NAPHTHALENE    0.215500 
     64 H6          8.045203   -8.774236   13.099074 H         4 NAPHTHALENE    0.178200 
     65 H8          3.841288   -8.679891   13.952322 H         4 NAPHTHALENE    0.231100 
     66 ****       11.473482   -4.919535   13.795823 H         5 CO2         0.094900 
     67 ****       10.286496   -3.775836   14.487436 H         5 CO2         0.079300 
     68 ****       11.312181   -3.278351   13.116024 H         5 CO2         0.131100 
     69 ****        9.198106   -5.408363   13.002685 H         5 CO2         0.484200 
@<TRIPOS>BOND
     1   27   32 1    
     2   30   31 ar   
     3   30   35 ar   
     4   30   63 1    
     5   35    4 ar   
     6   35   34 ar   
     7   34    1 ar   
     8   38    5 1    
     9   39    6 1    
    10   39    7 1    
    11   41    8 1    
    12   42    9 1    
    13   44   10 1    
    14   45   11 1    
    15   48   12 1    
    16   49   13 1    
    17   49   14 1    
    18   50   15 1    
    19   50   16 1    
    20   52   17 1    
    21   52   18 1    
    22   53   19 1    
    23   53   20 1    
    24   54   21 1    
    25   22   57 2    
    26   55   23 1    
    27   55   24 1    
    28   56   25 1    
    29   56   26 1    
    30   34   33 ar   
    31   27   29 2    
    32   27   28 2    
    33   33   32 ar   
    34   33   65 1    
    35   32   31 ar   
    36   31   64 1    
    37    1    2 ar   
    38    1   36 1    
    39   37   47 2    
    40   38   37 1    
    41   38   48 1    
    42   39   38 1    
    43   40   39 1    
    44   40   42 ar   
    45   41   40 ar   
    46   43   41 ar   
    47   46   43 1    
    48   43   45 ar   
    49   45   44 ar   
    50   44   42 ar   
    51   46   50 ar   
    52   46   49 ar   
    53   51   56 1    
    54   52   51 1    
    55   53   52 1    
    56   54   53 1    
    57   54   55 1    
    58   55   56 1    
    59   37   51 am   
    60   48   27 1    
    61   22   58 am   
    62   54   22 1    
    63   58   59 1    
    64    2    3 ar   
    65    2   60 1    
    66    3    4 ar   
    67    3   61 1    
    68    4   62 1    
    69   59   66 1    
    70   59   67 1    
    71   59   68 1    
    72   58   69 1    
@<TRIPOS>SUBSTRUCTURE
     1 TOS1       27 GROUP             0 I     ****    2  
     2 APM2       37 GROUP             0 I     ****    2 ROOT 
     3 PIP3       51 GROUP             0 I     ****    2  
     4 NAPHTHALENE    30 PERM              0 ****  ****    1  
     5 CO2        22 PERM              0 ****  ****    1  
@<TRIPOS>SET
UNK_ATOMS       STATIC     ATOMS    AMSOM    **** 
30 27 28 29 0 0 0 0 0 0 0 37 38 39 40 41 42 43 44 45 \
 46 47 48 49 50 51 52 53 54 55 56
LAB$B_TYPE      STATIC     BONDS    LABELGROUP SYSTEM 
0
@<TRIPOS>NORMAL
@<TRIPOS>FF_PBC
FORCE_FIELD_SETUP_FEATURE Force Field Setup information
v1.0  0 0.000000 0.000000 0.000000 0.000000 0.000000 0.000000 NONE 0 0 0 0 0 0 0 0 0 0 0 0 0
