#	Name:			35
#	Creating user name:	jeff
#	Creation time:		Fri Dec 13 10:09:00 2002

#	Modifying user name:	jeff
#	Modification time:	Fri Dec 13 10:09:04 2002

@<TRIPOS>MOLECULE
35
   71    73     4     1     1
SMALL
USER_CHARGES


@<TRIPOS>ATOM
      1 C1          3.592639   -8.409948   13.681659 C.3       1 TOS1       -0.256100 
      2 ****        4.506085   -6.146852   14.616028 H         1 TOS1        0.240500 
      3 C3          6.926214   -4.957185   15.158527 C.3       1 TOS1       -0.351500 
      4 C4          8.761668   -9.280523   13.497258 C.3       1 TOS1       -0.276400 
      5 ****        8.708406   -6.829894   14.357079 H         1 TOS1        0.257500 
      6 ****        6.001478   -4.392098   15.347386 H         1 TOS1        0.102100 
      7 ****        7.554985   -4.370160   14.474774 H         1 TOS1        0.111500 
      8 ****        6.759231   -9.286267   10.380723 H         2 APM2        0.174200 
      9 ****        5.249954  -10.484644    8.632067 H         2 APM2        0.199000 
     10 ****        6.164894   -9.098375    8.029055 H         2 APM2        0.157300 
     11 ****        2.836636  -10.369481    8.491623 H         2 APM2        0.208500 
     12 ****        5.109214   -6.849813    7.714855 H         2 APM2        0.171800 
     13 ****        3.071427   -5.671932    6.980993 H         2 APM2        0.201300 
     14 ****        0.901764   -6.724740    7.177903 H         2 APM2        0.166900 
     15 ****        3.981847  -10.011821   10.932124 H         2 APM2        0.405000 
     16 ****       -1.599331   -9.379885    7.068845 H         2 APM2        0.574600 
     17 ****       -0.579363   -8.086844    6.474241 H         2 APM2        0.560700 
     18 ****        0.851476  -10.873048    9.087049 H         2 APM2        0.548500 
     19 ****       -0.778784  -10.975500    8.454444 H         2 APM2        0.576700 
     20 ****        7.566295   -6.239976    8.406302 H         3 PIP3        0.107800 
     21 ****        7.835080   -7.817704    9.139889 H         3 PIP3        0.065000 
     22 ****        9.678628   -6.278493    9.745676 H         3 PIP3        0.025500 
     23 ****        8.748133   -6.769723   11.190732 H         3 PIP3       -0.065900 
     24 ****        8.417020   -4.122864    9.637499 H         3 PIP3        0.156500 
     25 ****       10.573854   -4.299940   13.604631 C.3       4 CO2        -0.190500 
     26 ****        6.814034   -3.501300   11.472647 H         3 PIP3        0.035300 
     27 ****        7.017681   -5.126350   12.188556 H         3 PIP3        0.010100 
     28 ****        4.948455   -5.033821   10.840533 H         3 PIP3        0.102200 
     29 ****        5.877486   -4.588770    9.395672 H         3 PIP3        0.092400 
     30 S           5.739539  -10.443817   12.578445 S.o2      1 TOS1        2.420800 
     31 O1          6.899799  -11.159990   12.100073 O.2       1 TOS1       -0.964800 
     32 O2          4.782463  -11.176190   13.385362 O.2       1 TOS1       -0.977500 
     33 C1          6.151826   -8.890160   13.408545 C.ar      1 TOS1       -0.796400 
     34 C2          5.087392   -8.053007   13.796587 C.ar      1 TOS1        0.312400 
     35 C3          5.337289   -6.789752   14.344959 C.ar      1 TOS1       -0.410300 
     36 C4          6.640037   -6.339621   14.556154 C.ar      1 TOS1        0.345400 
     37 C5          7.693106   -7.184990   14.208819 C.ar      1 TOS1       -0.443700 
     38 C6          7.467800   -8.466303   13.688047 C.ar      1 TOS1        0.334400 
     39 ****        7.461490   -5.084845   16.110991 H         1 TOS1        0.125800 
     40 C           5.469769   -7.549313   10.439385 C.2       2 APM2        0.580900 
     41 CA          5.713071   -9.018714   10.176010 C.3       2 APM2        0.280900 
     42 CB          5.352123   -9.390784    8.709405 C.3       2 APM2       -0.548300 
     43 CG          4.077810   -8.679530    8.218232 C.ar      2 APM2        0.237700 
     44 CD1         2.840417   -9.329552    8.200188 C.ar      2 APM2       -0.154100 
     45 CD2         4.156722   -7.361365    7.760036 C.ar      2 APM2       -0.052500 
     46 CE1         1.661139   -8.673252    7.805446 C.ar      2 APM2       -0.378400 
     47 CE2         3.004833   -6.690527    7.351244 C.ar      2 APM2       -0.167300 
     48 CZ          1.766545   -7.326494    7.422632 C.ar      2 APM2       -0.072700 
     49 CF          0.315711   -9.384279    7.785739 C.cat     2 APM2        1.153700 
     50 O           4.427561   -7.315778   11.029867 O.2       2 APM2       -0.598100 
     51 N           4.944619   -9.818250   11.124062 N.am      2 APM2       -1.029200 
     52 NG1        -0.681222   -8.916271    7.068219 N.pl3     2 APM2       -1.066800 
     53 NG2         0.122278  -10.480286    8.483465 N.pl3     2 APM2       -1.025800 
     54 N1          6.303576   -6.538606   10.052524 N.am      3 PIP3       -0.439200 
     55 C2          7.579232   -6.777015    9.367329 C.3       3 PIP3       -0.056500 
     56 C3          8.704079   -6.190270   10.254870 C.3       3 PIP3        0.221700 
     57 C4          8.415632   -4.701471   10.579038 C.3       3 PIP3       -0.473100 
     58 C5          7.024643   -4.559984   11.247632 C.3       3 PIP3        0.170900 
     59 C6          5.922994   -5.153257   10.340220 C.3       3 PIP3       -0.066600 
     60 C           9.479758   -4.166567   11.506708 C.2       4 CO2         0.853600 
     61 O          10.182222   -3.228453   11.164443 O.2       4 CO2        -0.603500 
     62 O           9.570402   -4.797156   12.690937 O.3       4 CO2        -0.387500 
     63 ****        3.354727   -9.308247   13.107661 H         1 TOS1        0.059800 
     64 ****        3.048624   -7.577179   13.210593 H         1 TOS1        0.087200 
     65 ****        3.197950   -8.546676   14.699439 H         1 TOS1        0.132300 
     66 ****        8.648445  -10.329841   13.224532 H         1 TOS1        0.137200 
     67 ****        9.312888   -9.275357   14.450284 H         1 TOS1        0.087500 
     68 ****        9.385289   -8.787741   12.735713 H         1 TOS1        0.076900 
     69 ****       11.251903   -5.133836   13.837688 H         4 CO2         0.135600 
     70 ****       10.063604   -4.007581   14.533626 H         4 CO2         0.136100 
     71 ****       11.184186   -3.446272   13.271715 H         4 CO2         0.133200 
@<TRIPOS>BOND
     1   34    1 1    
     2   35    2 1    
     3   36    3 1    
     4   38    4 1    
     5   37    5 1    
     6    3    6 1    
     7    3    7 1    
     8   41    8 1    
     9   42    9 1    
    10   42   10 1    
    11   44   11 1    
    12   45   12 1    
    13   47   13 1    
    14   48   14 1    
    15   51   15 1    
    16   52   16 1    
    17   52   17 1    
    18   53   18 1    
    19   53   19 1    
    20   55   20 1    
    21   55   21 1    
    22   56   22 1    
    23   56   23 1    
    24   57   24 1    
    25   57   60 1    
    26   58   26 1    
    27   58   27 1    
    28   59   28 1    
    29   59   29 1    
    30   33   30 1    
    31   30   32 2    
    32   30   31 2    
    33   33   38 ar   
    34   34   33 ar   
    35   35   34 ar   
    36   36   35 ar   
    37    3   39 1    
    38   36   37 ar   
    39   37   38 ar   
    40   40   50 2    
    41   41   40 1    
    42   41   51 1    
    43   42   41 1    
    44   43   42 1    
    45   43   45 ar   
    46   44   43 ar   
    47   46   44 ar   
    48   49   46 1    
    49   46   48 ar   
    50   48   47 ar   
    51   47   45 ar   
    52   49   53 ar   
    53   49   52 ar   
    54   54   59 1    
    55   55   54 1    
    56   56   55 1    
    57   57   56 1    
    58   57   58 1    
    59   58   59 1    
    60   40   54 am   
    61   51   30 1    
    62   60   61 2    
    63   60   62 1    
    64   62   25 1    
    65    1   63 1    
    66    1   64 1    
    67    1   65 1    
    68    4   66 1    
    69    4   67 1    
    70    4   68 1    
    71   25   69 1    
    72   25   70 1    
    73   25   71 1    
@<TRIPOS>SUBSTRUCTURE
     1 TOS1       30 GROUP             0 I     ****    1  
     2 APM2       40 GROUP             0 I     ****    2 ROOT 
     3 PIP3       54 GROUP             0 I     ****    2  
     4 CO2        60 PERM              0 ****  ****    1  
@<TRIPOS>SET
UNK_ATOMS       STATIC     ATOMS    AMSOM    **** 
30 30 31 32 33 34 35 36 37 38 0 40 41 42 43 44 45 46 47 48 \
 49 50 51 52 53 54 55 56 57 58 59
@<TRIPOS>NORMAL
@<TRIPOS>FF_PBC
FORCE_FIELD_SETUP_FEATURE Force Field Setup information
v1.0  0 0.000000 0.000000 0.000000 0.000000 0.000000 0.000000 NONE 0 0 0 0 0 0 0 0 0 0 0 0 0
