#	Name:			36
#	Creating user name:	jeff
#	Creation time:		Fri Dec 13 10:09:04 2002

#	Modifying user name:	jeff
#	Modification time:	Fri Dec 13 10:09:08 2002

@<TRIPOS>MOLECULE
36
   72    76     6     1     2
SMALL
USER_CHARGES


@<TRIPOS>ATOM
      1 C1          4.088449   -6.004751   14.950004 C.ar      4 NAPHTHALENE   -0.252000 
      2 C2          4.384763   -4.764790   15.526492 C.ar      4 NAPHTHALENE   -0.129700 
      3 C3          5.700445   -4.296426   15.529238 C.ar      4 NAPHTHALENE   -0.043800 
      4 C4          6.713799   -5.056307   14.941327 C.ar      4 NAPHTHALENE   -0.316300 
      5 H5          6.778667   -9.417881   10.357955 H         2 APM2        0.124100 
      6 H6          5.443037  -10.401071    8.417324 H         2 APM2        0.183700 
      7 H7          6.299993   -8.908710    7.985159 H         2 APM2        0.145100 
      8 H8          2.959825  -10.416164    8.440250 H         2 APM2        0.203700 
      9 H9          5.028165   -6.826866    7.648204 H         2 APM2        0.208800 
     10 H10         2.977150   -5.628871    7.089056 H         2 APM2        0.204700 
     11 H11         0.823149   -6.862960    7.233264 H         2 APM2        0.161200 
     12 H12         3.926884   -9.968499   10.709130 H         2 APM2        0.406200 
     13 H13        -1.494795   -9.550058    7.430432 H         2 APM2        0.572200 
     14 H14        -0.545631   -8.201280    6.776740 H         2 APM2        0.555400 
     15 H15         1.271327  -10.865998    9.247945 H         2 APM2        0.540500 
     16 H16        -0.437463  -11.104959    8.837177 H         2 APM2        0.570100 
     17 C1          6.090686   -5.250162   10.570791 C.3       3 TETRAHYDROISOQUINOLINE   -0.172400 
     18 N1          6.485495   -6.609834   10.186544 N.am      3 TETRAHYDROISOQUINOLINE   -0.125100 
     19 C2          7.748432   -6.839976    9.465785 C.3       3 TETRAHYDROISOQUINOLINE   -0.434700 
     20 C3          8.866383   -6.053839   10.179921 C.3       3 TETRAHYDROISOQUINOLINE   -0.001100 
     21 C4          9.489565   -3.588811    9.983448 C.ar      3 TETRAHYDROISOQUINOLINE   -0.182600 
     22 C5          9.131274   -2.241474    9.875431 C.ar      3 TETRAHYDROISOQUINOLINE   -0.123700 
     23 C6          7.785887   -1.871806    9.927230 C.ar      3 TETRAHYDROISOQUINOLINE   -0.126100 
     24 C7          6.802111   -2.844623   10.132509 C.ar      3 TETRAHYDROISOQUINOLINE   -0.223500 
     25 C8          7.160806   -4.188008   10.280816 C.ar      3 TETRAHYDROISOQUINOLINE    0.103900 
     26 S           5.436103  -10.386482   12.551403 S.o2      1 TOS1        2.267800 
     27 O1          6.653427  -11.156024   12.382493 O.2       1 TOS1       -0.924200 
     28 O2          4.314247  -10.961539   13.267853 O.2       1 TOS1       -0.947500 
     29 C5          7.430783   -7.063435   13.771501 C.ar      4 NAPHTHALENE   -0.288500 
     30 C6          7.137823   -8.313882   13.218080 C.ar      4 NAPHTHALENE   -0.088400 
     31 C7          5.831283   -8.807740   13.262661 C.ar      4 NAPHTHALENE   -0.475100 
     32 C8          4.817317   -8.034305   13.829478 C.ar      4 NAPHTHALENE   -0.183400 
     33 C9          5.103939   -6.778272   14.381807 C.ar      4 NAPHTHALENE    0.176300 
     34 C10         6.421366   -6.299266   14.363152 C.ar      4 NAPHTHALENE    0.211000 
     35 H1          3.060669   -6.355625   14.952256 H         4 NAPHTHALENE    0.189300 
     36 C           5.585227   -7.601296   10.446472 C.2       2 APM2        0.388800 
     37 CA          5.768487   -9.064518   10.108160 C.3       2 APM2        0.330200 
     38 CB          5.484085   -9.316969    8.602736 C.3       2 APM2       -0.501900 
     39 CG          4.159102   -8.663493    8.176669 C.ar      2 APM2        0.214100 
     40 CD1         2.951935   -9.362385    8.194481 C.ar      2 APM2       -0.161900 
     41 CD2         4.118767   -7.342077    7.742097 C.ar      2 APM2       -0.030800 
     42 CE1         1.755003   -8.710644    7.888082 C.ar      2 APM2       -0.383700 
     43 CE2         2.946561   -6.668966    7.405599 C.ar      2 APM2       -0.188300 
     44 CZ          1.746489   -7.370382    7.483490 C.ar      2 APM2       -0.055000 
     45 CF          0.455475   -9.477416    8.003512 C.cat     2 APM2        1.132800 
     46 O           4.523145   -7.332207   10.988058 O.2       2 APM2       -0.582900 
     47 N           4.882464   -9.837885   10.970565 N.am      2 APM2       -0.989000 
     48 NG1        -0.598990   -9.045636    7.366114 N.pl3     2 APM2       -1.054100 
     49 NG2         0.428485  -10.556024    8.740387 N.pl3     2 APM2       -1.003800 
     50 C9          8.504082   -4.564095   10.155392 C.ar      3 TETRAHYDROISOQUINOLINE   -0.076200 
     51 H1          5.895811   -5.209466   11.651291 H         3 TETRAHYDROISOQUINOLINE    0.124700 
     52 H2          5.164526   -4.979043   10.034581 H         3 TETRAHYDROISOQUINOLINE    0.122400 
     53 C           7.625446   -6.090750    8.165762 C.2       5 CO2         1.032500 
     54 H6          9.821405   -6.228942    9.655891 H         3 TETRAHYDROISOQUINOLINE    0.102700 
     55 H7          8.959012   -6.389572   11.219505 H         3 TETRAHYDROISOQUINOLINE    0.069600 
     56 H8         10.535465   -3.872065    9.931738 H         3 TETRAHYDROISOQUINOLINE    0.178500 
     57 H2          3.593985   -4.169040   15.970931 H         4 NAPHTHALENE    0.164000 
     58 H3          5.934615   -3.340842   15.989202 H         4 NAPHTHALENE    0.157200 
     59 H4          7.729990   -4.674284   14.938735 H         4 NAPHTHALENE    0.195100 
     60 H5          8.451987   -6.696091   13.737220 H         4 NAPHTHALENE    0.211000 
     61 H6          7.926529   -8.896761   12.755848 H         4 NAPHTHALENE    0.195900 
     62 H8          3.801927   -8.415949   13.836230 H         4 NAPHTHALENE    0.216700 
     63 H9          9.899417   -1.484643    9.752166 H         3 TETRAHYDROISOQUINOLINE    0.164800 
     64 H10         7.503882   -0.829743    9.811915 H         3 TETRAHYDROISOQUINOLINE    0.165900 
     65 H11         5.758791   -2.548582   10.178125 H         3 TETRAHYDROISOQUINOLINE    0.183400 
     66 H66         8.063507   -7.889578    9.358551 H         3 TETRAHYDROISOQUINOLINE    0.178600 
     67 O           6.609588   -5.457861    7.954944 O.2       5 CO2        -0.661100 
     68 O           8.650036   -6.014016    7.313811 O.3       5 CO2        -0.452600 
     69 C1          8.218959   -5.464331    6.049190 C.3       6 BENZYL     -0.077800 
     70 ****        8.813087   -4.560404    5.849432 H         6 BENZYL      0.101300 
     71 ****        8.439425   -6.233149    5.294269 H         6 BENZYL      0.145100 
     72 ****        7.151399   -5.192675    5.956264 H         6 BENZYL      0.080200 
@<TRIPOS>BOND
     1   26   31 1    
     2   29   30 ar   
     3   29   34 ar   
     4   29   60 1    
     5   34    4 ar   
     6   34   33 ar   
     7   33    1 ar   
     8   37    5 1    
     9   38    6 1    
    10   38    7 1    
    11   40    8 1    
    12   41    9 1    
    13   43   10 1    
    14   44   11 1    
    15   47   12 1    
    16   48   13 1    
    17   48   14 1    
    18   49   15 1    
    19   49   16 1    
    20   36   18 am   
    21   21   22 ar   
    22   21   50 ar   
    23   21   56 1    
    24   50   20 1    
    25   50   25 ar   
    26   25   17 1    
    27   25   24 ar   
    28   24   23 ar   
    29   24   65 1    
    30   33   32 ar   
    31   26   28 2    
    32   26   27 2    
    33   32   31 ar   
    34   32   62 1    
    35   31   30 ar   
    36   30   61 1    
    37    1    2 ar   
    38    1   35 1    
    39   36   46 2    
    40   37   36 1    
    41   37   47 1    
    42   38   37 1    
    43   39   38 1    
    44   39   41 ar   
    45   40   39 ar   
    46   42   40 ar   
    47   45   42 1    
    48   42   44 ar   
    49   44   43 ar   
    50   43   41 ar   
    51   45   49 ar   
    52   45   48 ar   
    53   23   22 ar   
    54   23   64 1    
    55   22   63 1    
    56   17   18 1    
    57   17   51 1    
    58   17   52 1    
    59   18   19 1    
    60   47   26 1    
    61   19   20 1    
    62   53   67 2    
    63    2    3 ar   
    64    2   57 1    
    65    3    4 ar   
    66    3   58 1    
    67    4   59 1    
    68   20   54 1    
    69   20   55 1    
    70   19   66 1    
    71   53   68 1    
    72   19   53 1    
    73   69   70 1    
    74   68   69 1    
    75   69   71 1    
    76   69   72 1    
@<TRIPOS>SUBSTRUCTURE
     1 TOS1       26 GROUP             0 I     ****    2  
     2 APM2       36 GROUP             0 I     ****    2 ROOT 
     3 TETRAHYDROISOQUINOLINE    21 PERM              0 ****  ****    2  
     4 NAPHTHALENE    29 PERM              0 ****  ****    1  
     5 CO2        53 PERM              0 ****  ****    2  
     6 BENZYL     69 PERM              0 ****  ****    1  
@<TRIPOS>SET
UNK_ATOMS       STATIC     ATOMS    AMSOM    **** 
30 26 27 28 0 0 0 0 0 0 0 36 37 38 39 40 41 42 43 44 \
 45 46 47 48 49 0 0 0 0 0 0
LAB$B_TYPE      STATIC     BONDS    LABELGROUP SYSTEM 
0
@<TRIPOS>NORMAL
@<TRIPOS>FF_PBC
FORCE_FIELD_SETUP_FEATURE Force Field Setup information
v1.0  0 0.000000 0.000000 0.000000 0.000000 0.000000 0.000000 NONE 0 0 0 0 0 0 0 0 0 0 0 0 0
