#	Name:			37
#	Creating user name:	jeff
#	Creation time:		Fri Dec 13 10:09:08 2002

#	Modifying user name:	jeff
#	Modification time:	Fri Dec 13 10:09:13 2002

@<TRIPOS>MOLECULE
37
   78    82     6     1     2
SMALL
USER_CHARGES


@<TRIPOS>ATOM
      1 C1          3.901310   -6.365402   15.297855 C.ar      4 NAPHTHALENE   -0.276900 
      2 C2          4.067532   -5.150508   15.966595 C.ar      4 NAPHTHALENE   -0.097200 
      3 C3          5.333441   -4.568622   16.049963 C.ar      4 NAPHTHALENE   -0.109500 
      4 C4          6.424800   -5.209625   15.459720 C.ar      4 NAPHTHALENE   -0.202300 
      5 ****        6.776790   -9.302956   10.391225 H         2 APM2        0.151600 
      6 ****        5.246963  -10.495381    8.658104 H         2 APM2        0.188800 
      7 ****        6.163809   -9.119356    8.038833 H         2 APM2        0.141000 
      8 ****        2.798711  -10.389890    8.510696 H         2 APM2        0.208400 
      9 ****        5.110812   -6.862204    7.737938 H         2 APM2        0.173000 
     10 ****        3.068261   -5.667046    7.045003 H         2 APM2        0.199800 
     11 ****        0.871711   -6.760241    7.211181 H         2 APM2        0.167400 
     12 ****        3.972914   -9.934361   10.984911 H         2 APM2        0.382300 
     13 ****       -1.577597   -9.365330    7.062862 H         2 APM2        0.572000 
     14 ****       -0.524825   -8.057731    6.509540 H         2 APM2        0.558600 
     15 ****        0.899267  -10.866256    9.085271 H         2 APM2        0.537700 
     16 ****       -0.755186  -10.984407    8.473137 H         2 APM2        0.572600 
     17 ****        7.554789   -6.197250    8.425318 H         3 PIP3        0.105000 
     18 ****        7.809217   -7.800723    9.113592 H         3 PIP3        0.083200 
     19 ****        9.667033   -6.301969    9.776151 H         3 PIP3        0.081400 
     20 ****        8.715458   -6.810927   11.202660 H         3 PIP3        0.023800 
     21 ****        8.469859   -4.118067    9.718758 H         3 PIP3        0.163500 
     22 C           9.489819   -4.251261   11.609225 C.2       5 CO2         0.851700 
     23 ****        6.822225   -3.487757   11.473671 H         3 PIP3        0.031900 
     24 ****        6.995397   -5.089366   12.246682 H         3 PIP3       -0.003600 
     25 ****        4.946712   -5.043326   10.875757 H         3 PIP3        0.107800 
     26 ****        5.873659   -4.587816    9.434578 H         3 PIP3        0.077200 
     27 S           5.684662  -10.416630   12.624970 S.o2      1 TOS1        2.256800 
     28 O1          6.972671  -11.007377   12.315266 O.2       1 TOS1       -0.927600 
     29 O2          4.699947  -11.192996   13.352772 O.2       1 TOS1       -0.954400 
     30 C5          7.368603   -7.072470   14.210246 C.ar      4 NAPHTHALENE   -0.230900 
     31 C6          7.197987   -8.284411   13.537879 C.ar      4 NAPHTHALENE   -0.099200 
     32 C7          5.932787   -8.873197   13.467679 C.ar      4 NAPHTHALENE   -0.475200 
     33 C8          4.836076   -8.225301   14.042480 C.ar      4 NAPHTHALENE   -0.176600 
     34 C9          4.998952   -7.008117   14.710583 C.ar      4 NAPHTHALENE    0.190500 
     35 C10         6.270335   -6.428002   14.794054 C.ar      4 NAPHTHALENE    0.140000 
     36 H1          2.911079   -6.805761   15.239728 H         4 NAPHTHALENE    0.193900 
     37 C           5.491172   -7.558962   10.485652 C.2       2 APM2        0.554400 
     38 CA          5.730930   -9.026671   10.194156 C.3       2 APM2        0.233600 
     39 CB          5.355815   -9.401736    8.729748 C.3       2 APM2       -0.493300 
     40 CG          4.078280   -8.692838    8.243247 C.ar      2 APM2        0.207400 
     41 CD1         2.839437   -9.345589    8.224723 C.ar      2 APM2       -0.159100 
     42 CD2         4.155170   -7.371126    7.790442 C.ar      2 APM2       -0.044300 
     43 CE1         1.669902   -8.678538    7.830100 C.ar      2 APM2       -0.349000 
     44 CE2         3.000736   -6.692435    7.396221 C.ar      2 APM2       -0.166600 
     45 CZ          1.760734   -7.331738    7.455301 C.ar      2 APM2       -0.074900 
     46 CF          0.326755   -9.388921    7.801362 C.cat     2 APM2        1.110100 
     47 O           4.477554   -7.336991   11.129846 O.2       2 APM2       -0.614400 
     48 N           4.954455   -9.818081   11.141883 N.am      2 APM2       -0.940000 
     49 NG1        -0.655694   -8.903382    7.082032 N.pl3     2 APM2       -1.051800 
     50 NG2         0.147449  -10.486040    8.494286 N.pl3     2 APM2       -0.995500 
     51 N1          6.302145   -6.537931   10.075668 N.am      3 PIP3       -0.354800 
     52 C2          7.566834   -6.763293    9.370099 C.3       3 PIP3       -0.057000 
     53 C3          8.690051   -6.209142   10.280667 C.3       3 PIP3        0.025900 
     54 C4          8.426632   -4.723896   10.643883 C.3       3 PIP3       -0.450200 
     55 C5          7.023745   -4.555415   11.284956 C.3       3 PIP3        0.177700 
     56 C6          5.923038   -5.155300   10.377376 C.3       3 PIP3       -0.076600 
     57 O          10.342682   -3.457299   11.243407 O.2       5 CO2        -0.614800 
     58 O           9.438120   -4.751862   12.859687 O.3       5 CO2        -0.362000 
     59 ****       10.485757   -4.256056   13.722399 C.3       5 CO2        -0.146800 
     60 H2          3.214447   -4.657691   16.421640 H         4 NAPHTHALENE    0.161700 
     61 H3          5.468550   -3.624686   16.568598 H         4 NAPHTHALENE    0.170100 
     62 H4          7.392702   -4.748337   15.521940 H         4 NAPHTHALENE    0.152900 
     63 H5          8.360133   -6.638389   14.274790 H         4 NAPHTHALENE    0.195800 
     64 H6          8.051032   -8.766872   13.073324 H         4 NAPHTHALENE    0.186800 
     65 H8          3.855184   -8.681011   13.962947 H         4 NAPHTHALENE    0.216100 
     66 ****       10.405618   -3.160424   13.820558 H         5 CO2         0.147100 
     67 ****       11.468924   -4.487521   13.283508 H         5 CO2         0.140100 
     68 ****       11.652944   -6.596226   14.620651 H         6 PHENYL      0.172400 
     69 C          10.430812   -4.887918   15.124199 C.ar      6 PHENYL      0.058400 
     70 C          11.107417   -6.081418   15.404445 C.ar      6 PHENYL     -0.174400 
     71 C          11.095859   -6.620303   16.695417 C.ar      6 PHENYL     -0.167000 
     72 C          10.383624   -5.984373   17.715445 C.ar      6 PHENYL     -0.102900 
     73 C           9.687528   -4.804911   17.440630 C.ar      6 PHENYL     -0.176300 
     74 C           9.714456   -4.263647   16.151838 C.ar      6 PHENYL     -0.157400 
     75 ****       11.643674   -7.532854   16.909904 H         6 PHENYL      0.157300 
     76 ****       10.373285   -6.402487   18.717525 H         6 PHENYL      0.150200 
     77 ****        9.129731   -4.309345   18.229753 H         6 PHENYL      0.163500 
     78 ****        9.165935   -3.349406   15.948177 H         6 PHENYL      0.163300 
@<TRIPOS>BOND
     1   27   32 1    
     2   30   31 ar   
     3   30   35 ar   
     4   30   63 1    
     5   35    4 ar   
     6   35   34 ar   
     7   34    1 ar   
     8   38    5 1    
     9   39    6 1    
    10   39    7 1    
    11   41    8 1    
    12   42    9 1    
    13   44   10 1    
    14   45   11 1    
    15   48   12 1    
    16   49   13 1    
    17   49   14 1    
    18   50   15 1    
    19   50   16 1    
    20   52   17 1    
    21   52   18 1    
    22   53   19 1    
    23   53   20 1    
    24   54   21 1    
    25   22   57 2    
    26   55   23 1    
    27   55   24 1    
    28   56   25 1    
    29   56   26 1    
    30   34   33 ar   
    31   27   29 2    
    32   27   28 2    
    33   33   32 ar   
    34   33   65 1    
    35   32   31 ar   
    36   31   64 1    
    37    1    2 ar   
    38    1   36 1    
    39   37   47 2    
    40   38   37 1    
    41   38   48 1    
    42   39   38 1    
    43   40   39 1    
    44   40   42 ar   
    45   41   40 ar   
    46   43   41 ar   
    47   46   43 1    
    48   43   45 ar   
    49   45   44 ar   
    50   44   42 ar   
    51   46   50 ar   
    52   46   49 ar   
    53   51   56 1    
    54   52   51 1    
    55   53   52 1    
    56   54   53 1    
    57   54   55 1    
    58   55   56 1    
    59   37   51 am   
    60   48   27 1    
    61   22   58 1    
    62   54   22 1    
    63   58   59 1    
    64    2    3 ar   
    65    2   60 1    
    66    3    4 ar   
    67    3   61 1    
    68    4   62 1    
    69   59   66 1    
    70   59   67 1    
    71   59   69 1    
    72   69   70 ar   
    73   69   74 ar   
    74   74   73 ar   
    75   73   72 ar   
    76   72   71 ar   
    77   71   70 ar   
    78   70   68 1    
    79   71   75 1    
    80   72   76 1    
    81   73   77 1    
    82   74   78 1    
@<TRIPOS>SUBSTRUCTURE
     1 TOS1       27 GROUP             0 I     ****    2  
     2 APM2       37 GROUP             0 I     ****    2 ROOT 
     3 PIP3       51 GROUP             0 I     ****    2  
     4 NAPHTHALENE    30 PERM              0 ****  ****    1  
     5 CO2        22 PERM              0 ****  ****    2  
     6 PHENYL     69 PERM              0 ****  ****    1  
@<TRIPOS>SET
UNK_ATOMS       STATIC     ATOMS    AMSOM    **** 
30 27 28 29 0 0 0 0 0 0 0 37 38 39 40 41 42 43 44 45 \
 46 47 48 49 50 51 52 53 54 55 56
LAB$B_TYPE      STATIC     BONDS    LABELGROUP SYSTEM 
0
@<TRIPOS>NORMAL
@<TRIPOS>FF_PBC
FORCE_FIELD_SETUP_FEATURE Force Field Setup information
v1.0  0 0.000000 0.000000 0.000000 0.000000 0.000000 0.000000 NONE 0 0 0 0 0 0 0 0 0 0 0 0 0
