#	Name:			38
#	Creating user name:	jeff
#	Creation time:		Fri Dec 13 10:09:13 2002

#	Modifying user name:	jeff
#	Modification time:	Fri Dec 13 10:09:16 2002

@<TRIPOS>MOLECULE
38
   62    65     3     1     1
SMALL
USER_CHARGES


@<TRIPOS>ATOM
      1 C1          4.593232   -7.870606   13.858388 C.ar      1 TOS1       -0.285000 
      2 C2          6.124586   -5.819160   14.948486 C.ar      1 TOS1       -0.302000 
      3 ****        9.863645   -7.925469   13.377016 H         1 TOS1        0.196100 
      4 ****        8.543379   -9.808510   12.490692 H         1 TOS1        0.168000 
      5 ****        3.969286   -6.817352   14.532426 C.ar      1 TOS1       -0.050000 
      6 ****        4.735998   -5.791920   15.087015 C.ar      1 TOS1       -0.086900 
      7 ****        3.956737   -8.623998   13.414088 H         1 TOS1        0.177500 
      8 ****        6.809442   -9.227980   10.350432 H         2 APM2        0.110800 
      9 ****        5.291714  -10.411762    8.631411 H         2 APM2        0.205000 
     10 ****        6.143782   -8.997219    8.001381 H         2 APM2        0.166100 
     11 ****        2.822178  -10.364695    8.666612 H         2 APM2        0.206900 
     12 ****        5.004684   -6.771430    7.767339 H         2 APM2        0.182100 
     13 ****        2.896809   -5.632194    7.179059 H         2 APM2        0.200200 
     14 ****        0.748486   -6.848760    7.303907 H         2 APM2        0.157700 
     15 ****        3.995148   -9.798514   11.009735 H         2 APM2        0.473000 
     16 ****       -1.572890   -9.502665    7.232178 H         2 APM2        0.574700 
     17 ****       -0.557835   -8.162273    6.671793 H         2 APM2        0.556600 
     18 ****        1.006121  -10.891739    9.244255 H         2 APM2        0.583000 
     19 ****       -0.663579  -11.089781    8.682252 H         2 APM2        0.576000 
     20 ****        7.467789   -6.154591    8.339908 H         3 PIP3        0.123400 
     21 ****        7.813094   -7.726593    9.053704 H         3 PIP3        0.049400 
     22 ****        9.679387   -6.159030    9.476295 H         3 PIP3        0.040800 
     23 ****        8.917886   -6.685253   11.001925 H         3 PIP3        0.011100 
     24 ****        8.400217   -4.027516    9.509868 H         3 PIP3        0.083100 
     25 ****        9.322445   -4.203152   11.026400 H         3 PIP3        0.047600 
     26 ****        6.963460   -3.404560   11.440738 H         3 PIP3        0.035200 
     27 ****        7.251535   -4.986368   12.212622 H         3 PIP3        0.029100 
     28 ****        5.071713   -4.989077   11.049496 H         3 PIP3        0.110200 
     29 ****        5.826571   -4.510258    9.519419 H         3 PIP3        0.119900 
     30 S           5.765321  -10.450256   12.513842 S.o2      1 TOS1        2.319700 
     31 O1          6.719621  -11.425543   12.023381 O.2       1 TOS1       -0.938100 
     32 O2          4.765248  -10.878050   13.472918 O.2       1 TOS1       -0.970600 
     33 C1          6.640756   -9.023046   13.147940 C.ar      1 TOS1       -0.702500 
     34 C2          5.989680   -7.937614   13.757803 C.ar      1 TOS1        0.187300 
     35 C3          6.750584   -6.880877   14.282570 C.ar      1 TOS1        0.174200 
     36 C4          8.142817   -6.877532   14.143257 C.ar      1 TOS1       -0.090600 
     37 C5          8.784285   -7.933372   13.494638 C.ar      1 TOS1       -0.278300 
     38 C6          8.031456   -8.998161   12.997622 C.ar      1 TOS1        0.137600 
     39 ****        6.709448   -5.004934   15.365573 H         1 TOS1        0.200700 
     40 C           5.522976   -7.480811   10.465318 C.2       2 APM2        0.903300 
     41 CA          5.761301   -8.946602   10.171172 C.3       2 APM2        0.303600 
     42 CB          5.368464   -9.316249    8.713502 C.3       2 APM2       -0.555100 
     43 CG          4.053490   -8.639573    8.294612 C.ar      2 APM2        0.204900 
     44 CD1         2.837152   -9.330586    8.340390 C.ar      2 APM2       -0.114900 
     45 CD2         4.068858   -7.312960    7.848056 C.ar      2 APM2       -0.043000 
     46 CE1         1.645003   -8.704674    7.955943 C.ar      2 APM2       -0.401300 
     47 CE2         2.879742   -6.669752    7.498531 C.ar      2 APM2       -0.191600 
     48 CZ          1.668987   -7.363025    7.560465 C.ar      2 APM2       -0.040600 
     49 CF          0.332919   -9.464676    7.958768 C.cat     2 APM2        1.155300 
     50 O           4.496004   -7.257507   11.086820 O.2       2 APM2       -0.659800 
     51 N           4.985716   -9.725434   11.130222 N.am      2 APM2       -1.189100 
     52 NG1        -0.666303   -9.012009    7.245251 N.pl3     2 APM2       -1.071000 
     53 NG2         0.218521  -10.555950    8.670798 N.pl3     2 APM2       -1.045600 
     54 N1          6.346004   -6.461961   10.081521 N.am      3 PIP3       -0.742800 
     55 C2          7.566881   -6.687254    9.298769 C.3       3 PIP3        0.048900 
     56 C3          8.761554   -6.094873   10.084893 C.3       3 PIP3        0.009900 
     57 C4          8.482275   -4.611738   10.441117 C.3       3 PIP3       -0.169700 
     58 C5          7.162682   -4.471116   11.243021 C.3       3 PIP3        0.041100 
     59 C6          5.987672   -5.086476   10.444182 C.3       3 PIP3       -0.028900 
     60 ****        2.887707   -6.794561   14.624603 H         1 TOS1        0.162300 
     61 ****        4.255153   -4.978172   15.621310 H         1 TOS1        0.160200 
     62 ****        8.739126   -6.057887   14.532891 H         1 TOS1        0.186700 
@<TRIPOS>BOND
     1   34    1 ar   
     2   35    2 ar   
     3   37    3 1    
     4   38    4 1    
     5    1    5 ar   
     6    2    6 ar   
     7    6    5 ar   
     8   41    8 1    
     9   42    9 1    
    10   42   10 1    
    11   44   11 1    
    12   45   12 1    
    13   47   13 1    
    14   48   14 1    
    15   51   15 1    
    16   52   16 1    
    17   52   17 1    
    18   53   18 1    
    19   53   19 1    
    20   55   20 1    
    21   55   21 1    
    22   56   22 1    
    23   56   23 1    
    24   57   24 1    
    25   57   25 1    
    26   58   26 1    
    27   58   27 1    
    28   59   28 1    
    29   59   29 1    
    30   33   30 1    
    31   30   32 2    
    32   30   31 2    
    33   33   38 ar   
    34   34   33 ar   
    35   35   34 ar   
    36   36   35 ar   
    37    1    7 1    
    38   36   37 ar   
    39   37   38 ar   
    40   40   50 2    
    41   41   40 1    
    42   41   51 1    
    43   42   41 1    
    44   43   42 1    
    45   43   45 ar   
    46   44   43 ar   
    47   46   44 ar   
    48   49   46 1    
    49   46   48 ar   
    50   48   47 ar   
    51   47   45 ar   
    52   49   53 ar   
    53   49   52 ar   
    54   54   59 1    
    55   55   54 1    
    56   56   55 1    
    57   57   56 1    
    58   57   58 1    
    59   58   59 1    
    60   40   54 am   
    61   51   30 1    
    62    2   39 1    
    63    5   60 1    
    64    6   61 1    
    65   36   62 1    
@<TRIPOS>SUBSTRUCTURE
     1 TOS1       30 GROUP             0 I     ****    1  
     2 APM2       40 GROUP             0 I     ****    2 ROOT 
     3 PIP3       54 GROUP             0 I     ****    1  
@<TRIPOS>SET
UNK_ATOMS       STATIC     ATOMS    AMSOM    **** 
30 30 31 32 33 34 35 36 37 38 0 40 41 42 43 44 45 46 47 48 \
 49 50 51 52 53 54 55 56 57 58 59
@<TRIPOS>NORMAL
@<TRIPOS>FF_PBC
FORCE_FIELD_SETUP_FEATURE Force Field Setup information
v1.0  0 0.000000 0.000000 0.000000 0.000000 0.000000 0.000000 NONE 0 0 0 0 0 0 0 0 0 0 0 0 0
