#	Name:			39
#	Creating user name:	jeff
#	Creation time:		Fri Dec 13 10:09:16 2002

#	Modifying user name:	jeff
#	Modification time:	Fri Dec 13 10:09:22 2002

@<TRIPOS>MOLECULE
39
   90    92     4     1     1
SMALL
USER_CHARGES


@<TRIPOS>ATOM
      1 C1          3.635147   -8.352239   13.987210 C.3       1 TOS1        0.375800 
      2 ****        4.811840   -6.164247   14.967757 H         1 TOS1        0.224400 
      3 C3          7.247048   -5.394431   15.860038 C.3       1 TOS1        0.156300 
      4 C4          8.648488   -9.768487   13.789501 C.3       1 TOS1        0.216400 
      5 ****        8.880886   -7.171100   14.511624 H         1 TOS1        0.209100 
      6 ****        3.406952   -9.156891   13.278297 H         1 TOS1       -0.037000 
      7 C7          8.072952   -4.304120   15.127069 C.3       1 TOS1       -0.239500 
      8 ****        6.751055   -9.307066   10.444892 H         2 APM2        0.088700 
      9 ****        5.329840  -10.466226    8.627598 H         2 APM2        0.195400 
     10 ****        6.234126   -9.040397    8.074605 H         2 APM2        0.148600 
     11 ****        2.927673  -10.398868    8.406610 H         2 APM2        0.204000 
     12 ****        5.132452   -6.809325    7.788128 H         2 APM2        0.162200 
     13 ****        3.035926   -5.564635    7.381638 H         2 APM2        0.203500 
     14 ****        0.889330   -6.662906    7.599734 H         2 APM2        0.161300 
     15 ****        3.902942   -9.824986   10.970753 H         2 APM2        0.386300 
     16 ****       -1.567207   -9.342871    7.180370 H         2 APM2        0.574900 
     17 ****       -0.577133   -7.968843    6.721285 H         2 APM2        0.558400 
     18 ****        0.946639  -11.024596    8.949881 H         2 APM2        0.554400 
     19 ****       -0.697318  -11.074265    8.338828 H         2 APM2        0.579000 
     20 ****        7.747720   -6.209715    8.765581 H         3 PIP3        0.138700 
     21 ****        7.998999   -7.744854    9.587463 H         3 PIP3        0.063200 
     22 ****       10.425711   -8.027863   10.682149 H         4 AMIDE       0.349400 
     23 ****        8.616779   -6.570017   11.695042 H         3 PIP3        0.096100 
     24 ****        8.311063   -3.996326   10.018142 H         3 PIP3        0.123300 
     25 ****        8.975608   -4.123217   11.676015 H         3 PIP3        0.089300 
     26 ****        6.538935   -3.446401   11.705297 H         3 PIP3        0.032700 
     27 ****        6.752701   -5.065183   12.451528 H         3 PIP3       -0.000100 
     28 ****        4.830526   -5.084783   10.948192 H         3 PIP3        0.105700 
     29 ****        5.828126   -4.587184    9.566036 H         3 PIP3        0.095100 
     30 S           5.642326  -10.448474   12.617293 S.o2      1 TOS1        2.359400 
     31 O1          6.756646  -11.198521   12.080454 O.2       1 TOS1       -0.964600 
     32 O2          4.643059  -11.185726   13.365843 O.2       1 TOS1       -0.957200 
     33 C1          6.149613   -8.989678   13.590610 C.ar      1 TOS1       -0.832900 
     34 C2          5.164267   -8.086020   14.050958 C.ar      1 TOS1        0.374100 
     35 C3          5.550867   -6.893770   14.674092 C.ar      1 TOS1       -0.559400 
     36 C4          6.884326   -6.610025   14.970922 C.ar      1 TOS1        0.340300 
     37 C5          7.846506   -7.484113   14.466056 C.ar      1 TOS1       -0.351200 
     38 C6          7.495813   -8.735666   13.931740 C.ar      1 TOS1        0.160100 
     39 C39         7.985070   -5.866208   17.141718 C.3       1 TOS1       -0.362700 
     40 C           5.448567   -7.547787   10.437376 C.2       2 APM2        0.493900 
     41 CA          5.722742   -9.011493   10.204485 C.3       2 APM2        0.470900 
     42 CB          5.410167   -9.371955    8.725544 C.3       2 APM2       -0.526200 
     43 CG          4.125561   -8.663885    8.259987 C.ar      2 APM2        0.190100 
     44 CD1         2.900857   -9.335596    8.215279 C.ar      2 APM2       -0.130700 
     45 CD2         4.180545   -7.319334    7.880346 C.ar      2 APM2       -0.024300 
     46 CE1         1.698531   -8.664726    7.927486 C.ar      2 APM2       -0.395100 
     47 CE2         3.000204   -6.621178    7.630413 C.ar      2 APM2       -0.183500 
     48 CZ          1.772631   -7.279175    7.708502 C.ar      2 APM2       -0.049800 
     49 CF          0.364728   -9.396315    7.851125 C.cat     2 APM2        1.154800 
     50 O           4.304173   -7.344455   10.801261 O.2       2 APM2       -0.596700 
     51 N           4.884090   -9.740946   11.147967 N.am      2 APM2       -1.061300 
     52 NG1        -0.655391   -8.865314    7.214691 N.pl3     2 APM2       -1.064000 
     53 NG2         0.198812  -10.572022    8.413540 N.pl3     2 APM2       -1.039300 
     54 N1          6.314320   -6.513711   10.249423 N.am      3 PIP3       -0.387200 
     55 C2          7.676780   -6.709773    9.743418 C.3       3 PIP3       -0.030200 
     56 C3          8.667886   -6.039713   10.727448 C.3       3 PIP3       -0.181300 
     57 C4          8.260791   -4.565070   10.962063 C.3       3 PIP3       -0.246300 
     58 C5          6.818251   -4.495870   11.512473 C.3       3 PIP3        0.125600 
     59 C6          5.840898   -5.150311   10.511987 C.3       3 PIP3       -0.078700 
     60 ****        6.321190   -4.902690   16.206964 H         1 TOS1        0.040400 
     61 C64         2.705130   -7.170427   13.561079 C.3       1 TOS1       -0.392900 
     62 C65         3.212081   -8.810395   15.409138 C.3       1 TOS1       -0.397500 
     63 ****        8.286827  -10.785784   13.616016 H         1 TOS1        0.089100 
     64 C67         9.490848   -9.933039   15.081995 C.3       1 TOS1       -0.426800 
     65 C68         9.590185   -9.376823   12.636099 C.3       1 TOS1       -0.264600 
     66 ****        9.017844   -4.709842   14.737987 H         1 TOS1        0.070700 
     67 ****        8.307249   -3.479007   15.818399 H         1 TOS1        0.087600 
     68 ****        7.494179   -3.878799   14.297517 H         1 TOS1        0.018000 
     69 ****        7.360265   -6.582203   17.698360 H         1 TOS1        0.081400 
     70 ****        8.196868   -5.008734   17.800728 H         1 TOS1        0.115100 
     71 ****        8.938896   -6.351499   16.888403 H         1 TOS1        0.092200 
     72 ****        2.703907   -6.327819   14.264228 H         1 TOS1        0.108400 
     73 ****        1.665548   -7.531335   13.508026 H         1 TOS1        0.083900 
     74 ****        2.958344   -6.773081   12.574823 H         1 TOS1        0.092500 
     75 ****        3.817880   -9.670599   15.732690 H         1 TOS1        0.098200 
     76 ****        2.150715   -9.101795   15.429654 H         1 TOS1        0.103500 
     77 ****        3.359208   -7.991277   16.131008 H         1 TOS1        0.099700 
     78 ****        9.991839   -9.004395   15.387320 H         1 TOS1        0.104700 
     79 ****       10.274745  -10.691926   14.921195 H         1 TOS1        0.124800 
     80 ****        8.837080  -10.268602   15.899522 H         1 TOS1        0.107100 
     81 ****        8.972055   -9.240821   11.736643 H         1 TOS1        0.024400 
     82 ****       10.368661  -10.129424   12.427973 H         1 TOS1        0.102200 
     83 ****       10.091937   -8.441427   12.924898 H         1 TOS1        0.088400 
     84 C          10.075897   -6.072646   10.172654 C.2       4 AMIDE       0.732600 
     85 O          10.530518   -5.065509    9.654917 O.2       4 AMIDE      -0.585000 
     86 N          10.789111   -7.214107   10.267751 N.am      4 AMIDE      -0.650600 
     87 C94        12.140221   -7.331121    9.751735 C.3       4 AMIDE      -0.076800 
     88 ****       12.160339   -8.123217    8.986719 H         4 AMIDE       0.074700 
     89 ****       12.813369   -7.612314   10.576625 H         4 AMIDE       0.101100 
     90 ****       12.499437   -6.395853    9.303716 H         4 AMIDE       0.113100 
@<TRIPOS>BOND
     1   34    1 1    
     2   35    2 1    
     3   36    3 1    
     4   38    4 1    
     5   37    5 1    
     6    1    6 1    
     7    3    7 1    
     8   41    8 1    
     9   42    9 1    
    10   42   10 1    
    11   44   11 1    
    12   45   12 1    
    13   47   13 1    
    14   48   14 1    
    15   51   15 1    
    16   52   16 1    
    17   52   17 1    
    18   53   18 1    
    19   53   19 1    
    20   55   20 1    
    21   55   21 1    
    22   56   84 1    
    23   56   23 1    
    24   57   24 1    
    25   57   25 1    
    26   58   26 1    
    27   58   27 1    
    28   59   28 1    
    29   59   29 1    
    30   33   30 1    
    31   30   32 2    
    32   30   31 2    
    33   33   38 ar   
    34   34   33 ar   
    35   35   34 ar   
    36   36   35 ar   
    37    3   39 1    
    38   36   37 ar   
    39   37   38 ar   
    40   40   50 2    
    41   41   40 1    
    42   41   51 1    
    43   42   41 1    
    44   43   42 1    
    45   43   45 ar   
    46   44   43 ar   
    47   46   44 ar   
    48   49   46 1    
    49   46   48 ar   
    50   48   47 ar   
    51   47   45 ar   
    52   49   53 ar   
    53   49   52 ar   
    54   54   59 1    
    55   55   54 1    
    56   56   55 1    
    57   57   56 1    
    58   57   58 1    
    59   58   59 1    
    60   40   54 am   
    61   51   30 1    
    62    3   60 1    
    63    1   61 1    
    64    1   62 1    
    65    4   63 1    
    66    4   64 1    
    67    4   65 1    
    68    7   66 1    
    69    7   67 1    
    70    7   68 1    
    71   39   69 1    
    72   39   70 1    
    73   39   71 1    
    74   61   72 1    
    75   61   73 1    
    76   61   74 1    
    77   62   75 1    
    78   62   76 1    
    79   62   77 1    
    80   64   78 1    
    81   64   79 1    
    82   64   80 1    
    83   65   81 1    
    84   65   82 1    
    85   65   83 1    
    86   84   85 2    
    87   84   86 am   
    88   86   22 1    
    89   86   87 1    
    90   87   88 1    
    91   87   89 1    
    92   87   90 1    
@<TRIPOS>SUBSTRUCTURE
     1 TOS1       30 GROUP             0 I     ****    1  
     2 APM2       40 GROUP             0 I     ****    2 ROOT 
     3 PIP3       54 GROUP             0 I     ****    2  
     4 AMIDE      84 PERM              0 ****  ****    1  
@<TRIPOS>SET
UNK_ATOMS       STATIC     ATOMS    AMSOM    **** 
30 30 31 32 33 34 35 36 37 38 0 40 41 42 43 44 45 46 47 48 \
 49 50 51 52 53 54 55 56 57 58 59
@<TRIPOS>NORMAL
@<TRIPOS>FF_PBC
FORCE_FIELD_SETUP_FEATURE Force Field Setup information
v1.0  0 0.000000 0.000000 0.000000 0.000000 0.000000 0.000000 NONE 0 0 0 0 0 0 0 0 0 0 0 0 0
