#	Name:			40
#	Creating user name:	jeff
#	Creation time:		Fri Dec 13 10:09:22 2002

#	Modifying user name:	jeff
#	Modification time:	Fri Dec 13 10:09:25 2002

@<TRIPOS>MOLECULE
40
   64    67     5     1     4
SMALL
USER_CHARGES


@<TRIPOS>ATOM
      1 C1          3.902227   -6.361731   15.289309 C.ar      4 NAPHTHALENE   -0.241200 
      2 C2          4.073456   -5.147920   15.959690 C.ar      4 NAPHTHALENE   -0.147700 
      3 C3          5.343274   -4.570327   16.040062 C.ar      4 NAPHTHALENE   -0.065800 
      4 C4          6.438276   -5.207105   15.451985 C.ar      4 NAPHTHALENE   -0.337000 
      5 ****        6.745327   -9.290369   10.391447 H         2 APM2        0.184000 
      6 ****        5.257833  -10.501006    8.652407 H         2 APM2        0.166600 
      7 ****        6.156210   -9.108612    8.031273 H         2 APM2        0.224400 
      8 ****        2.830815  -10.420038    8.507059 H         2 APM2        0.189400 
      9 ****        5.071605   -6.906445    7.692051 H         2 APM2        0.228900 
     10 ****        3.018068   -5.687424    7.078303 H         2 APM2        0.205900 
     11 ****        0.860619   -6.749751    7.296043 H         2 APM2        0.144000 
     12 ****        3.942304   -9.908348   10.962406 H         2 APM2        0.393500 
     13 ****       -1.616827   -9.394177    7.106663 H         2 APM2        0.560900 
     14 ****       -0.594724   -8.092702    6.540849 H         2 APM2        0.554600 
     15 ****        0.848776  -10.945170    9.079697 H         2 APM2        0.545300 
     16 ****       -0.786851  -11.033425    8.460494 H         2 APM2        0.558700 
     17 C           7.626972   -6.066949    8.034560 C.2       5 CO2         0.709800 
     18 ****        7.797530   -7.759616    9.226088 H         3 PIP3       -0.064900 
     19 ****        9.655886   -6.236420    9.794517 H         3 PIP3        0.084200 
     20 ****        8.728330   -6.734803   11.235161 H         3 PIP3       -0.005900 
     21 ****        8.391364   -4.053035    9.736881 H         3 PIP3        0.091100 
     22 ****        9.217034   -4.281022   11.301777 H         3 PIP3        0.006800 
     23 ****        6.845947   -3.471741   11.617694 H         3 PIP3        0.027900 
     24 ****        7.112678   -5.074342   12.351472 H         3 PIP3        0.042400 
     25 ****        4.988993   -5.086189   11.164223 H         3 PIP3        0.041000 
     26 ****        5.718307   -4.496746    9.678462 H         3 PIP3        0.112000 
     27 S           5.664211  -10.414141   12.610821 S.o2      1 TOS1        2.269500 
     28 O1          6.947989  -11.011359   12.295196 O.2       1 TOS1       -0.943200 
     29 O2          4.674765  -11.185020   13.337686 O.2       1 TOS1       -0.991200 
     30 C5          7.364689   -7.074371   14.192990 C.ar      4 NAPHTHALENE   -0.328400 
     31 C6          7.189285   -8.286225   13.519093 C.ar      4 NAPHTHALENE   -0.066500 
     32 C7          5.921700   -8.871274   13.452340 C.ar      4 NAPHTHALENE   -0.459500 
     33 C8          4.829077   -8.221040   14.028029 C.ar      4 NAPHTHALENE   -0.181500 
     34 C9          4.998533   -7.003008   14.699735 C.ar      4 NAPHTHALENE    0.155600 
     35 C10         6.271098   -6.427416   14.781707 C.ar      4 NAPHTHALENE    0.257200 
     36 H1          2.910525   -6.799849   15.232931 H         4 NAPHTHALENE    0.180000 
     37 C           5.457643   -7.536872   10.469464 C.2       2 APM2        0.707200 
     38 CA          5.705921   -9.005900   10.175922 C.3       2 APM2        0.220000 
     39 CB          5.347576   -9.404785    8.716019 C.3       2 APM2       -0.504100 
     40 CG          4.058079   -8.719549    8.234084 C.ar      2 APM2        0.198500 
     41 CD1         2.824040   -9.377217    8.225380 C.ar      2 APM2       -0.142300 
     42 CD2         4.120194   -7.403342    7.774629 C.ar      2 APM2        0.038300 
     43 CE1         1.642732   -8.714493    7.852146 C.ar      2 APM2       -0.434600 
     44 CE2         2.963269   -6.716936    7.416855 C.ar      2 APM2       -0.210800 
     45 CZ          1.729293   -7.359458    7.502641 C.ar      2 APM2       -0.070300 
     46 CF          0.296945   -9.426610    7.820058 C.cat     2 APM2        1.150900 
     47 O           4.415023   -7.338005   11.073851 O.2       2 APM2       -0.722500 
     48 N           4.924669   -9.798134   11.117870 N.am      2 APM2       -0.969400 
     49 NG1        -0.697597   -8.935162    7.116513 N.pl3     2 APM2       -1.072400 
     50 NG2         0.113482  -10.538315    8.492603 N.pl3     2 APM2       -1.015800 
     51 N1          6.278931   -6.495608   10.123771 N.am      3 PIP3       -0.605100 
     52 C2          7.550170   -6.707342    9.406076 C.3       3 PIP3        0.248200 
     53 C3          8.681847   -6.145467   10.303995 C.3       3 PIP3       -0.104600 
     54 C4          8.408003   -4.661332   10.655686 C.3       3 PIP3       -0.073800 
     55 C5          7.052863   -4.532282   11.395495 C.3       3 PIP3       -0.077700 
     56 C6          5.903510   -5.137194   10.551220 C.3       3 PIP3        0.066800 
     57 H2          3.221530   -4.654607   16.417473 H         4 NAPHTHALENE    0.152200 
     58 H3          5.476735   -3.626441   16.560343 H         4 NAPHTHALENE    0.149900 
     59 H4          7.418541   -4.745890   15.520386 H         4 NAPHTHALENE    0.198400 
     60 H5          8.358410   -6.640734   14.252408 H         4 NAPHTHALENE    0.227300 
     61 H6          8.039110   -8.770294   13.050321 H         4 NAPHTHALENE    0.187800 
     62 H8          3.846197   -8.672483   13.948119 H         4 NAPHTHALENE    0.213000 
     63 O           6.790954   -5.192874    7.687785 O.co2     5 CO2        -0.935000 
     64 O           8.551990   -6.442114    7.262883 O.co2     5 CO2        -0.920600 
@<TRIPOS>BOND
     1   27   32 1    
     2   30   31 ar   
     3   30   35 ar   
     4   30   60 1    
     5   35    4 ar   
     6   35   34 ar   
     7   34    1 ar   
     8   38    5 1    
     9   39    6 1    
    10   39    7 1    
    11   41    8 1    
    12   42    9 1    
    13   44   10 1    
    14   45   11 1    
    15   48   12 1    
    16   49   13 1    
    17   49   14 1    
    18   50   15 1    
    19   50   16 1    
    20   17   63 ar   
    21   52   18 1    
    22   53   19 1    
    23   53   20 1    
    24   54   21 1    
    25   54   22 1    
    26   55   23 1    
    27   55   24 1    
    28   56   25 1    
    29   56   26 1    
    30   34   33 ar   
    31   27   29 2    
    32   27   28 2    
    33   33   32 ar   
    34   33   62 1    
    35   32   31 ar   
    36   31   61 1    
    37    1    2 ar   
    38    1   36 1    
    39   37   47 2    
    40   38   37 1    
    41   38   48 1    
    42   39   38 1    
    43   40   39 1    
    44   40   42 ar   
    45   41   40 ar   
    46   43   41 ar   
    47   46   43 1    
    48   43   45 ar   
    49   45   44 ar   
    50   44   42 ar   
    51   46   50 ar   
    52   46   49 ar   
    53   51   56 1    
    54   52   51 1    
    55   53   52 1    
    56   54   53 1    
    57   54   55 1    
    58   55   56 1    
    59   37   51 am   
    60   48   27 1    
    61    2    3 ar   
    62    2   57 1    
    63    3    4 ar   
    64    3   58 1    
    65    4   59 1    
    66   17   64 ar   
    67   52   17 1    
@<TRIPOS>SUBSTRUCTURE
     1 TOS1       27 GROUP             0 I     ****    2  
     2 APM2       37 GROUP             0 I     ****    2 ROOT 
     3 PIP3       51 GROUP             0 I     ****    2  
     4 NAPHTHALENE    30 PERM              0 ****  ****    1  
     5 CO2        17 PERM              0 ****  ****    1  
@<TRIPOS>SET
UNK_ATOMS       STATIC     ATOMS    AMSOM    **** 
30 27 28 29 0 0 0 0 0 0 0 37 38 39 40 41 42 43 44 45 \
 46 47 48 49 50 51 52 53 54 55 56
LAB$B_TYPE      STATIC     BONDS    LABELGROUP SYSTEM 
0
ATOM$WHITE      STATIC     ATOMS    COLORGROUP SYSTEM 
0
ATOM$BY_TYPE    STATIC     ATOMS    COLORGROUP SYSTEM 
64 1 2 3 4 5 6 7 8 9 10 11 12 13 14 15 16 17 18 19 \
 20 21 22 23 24 25 26 27 28 29 30 31 32 33 34 35 36 37 \
 38 39 40 41 42 43 44 45 46 47 48 49 50 51 52 53 54 55 \
 56 57 58 59 60 61 62 63 64
@<TRIPOS>NORMAL
@<TRIPOS>FF_PBC
FORCE_FIELD_SETUP_FEATURE Force Field Setup information
v1.0  0 0.000000 0.000000 0.000000 0.000000 0.000000 0.000000 NONE 0 0 0 0 0 0 0 0 0 0 0 0 0
