#	Name:			41
#	Creating user name:	jeff
#	Creation time:		Fri Dec 13 10:09:26 2002

#	Modifying user name:	jeff
#	Modification time:	Fri Dec 13 10:09:28 2002

@<TRIPOS>MOLECULE
41
   51    53     4     1     2
SMALL
USER_CHARGES


@<TRIPOS>ATOM
      1 C1          3.894255   -6.366571   15.284212 C.ar      4 NAPHTHALENE   -0.227700 
      2 C2          4.070961   -5.152045   15.951951 C.ar      4 NAPHTHALENE   -0.142200 
      3 C3          5.342919   -4.581171   16.036106 C.ar      4 NAPHTHALENE   -0.032600 
      4 C4          6.438080   -5.229922   15.458727 C.ar      4 NAPHTHALENE   -0.321000 
      5 ****        6.744245   -9.164648   10.387764 H         2 APM2        0.130500 
      6 ****        5.317576  -10.480243    8.634815 H         2 APM2        0.160100 
      7 ****        6.223907   -9.059701    8.088130 H         2 APM2        0.130700 
      8 ****        2.826124  -10.413165    8.501112 H         2 APM2        0.198300 
      9 ****        5.130010   -6.894929    7.623317 H         2 APM2        0.219400 
     10 ****        3.061836   -5.680251    7.046934 H         2 APM2        0.190800 
     11 ****        0.866614   -6.782372    7.273198 H         2 APM2        0.164000 
     12 ****        3.966688  -10.038075   10.923854 H         2 APM2        0.341800 
     13 ****       -1.560978   -9.354740    7.102233 H         2 APM2        0.567200 
     14 ****       -0.497106   -8.047457    6.562200 H         2 APM2        0.555400 
     15 ****        0.937762  -10.899857    9.079392 H         2 APM2        0.529200 
     16 ****       -0.732183  -11.001114    8.499326 H         2 APM2        0.572100 
     17 ****        6.276937   -6.768319   10.886292 O.3       2 APM2       -0.495100 
     18 C1          5.903611   -5.441520   11.318918 C.3       3 BENZYL      0.111900 
     19 ****        6.123095   -5.325778   12.388648 H         3 BENZYL      0.045900 
     20 ****        6.573369   -4.771546   10.763848 H         3 BENZYL      0.106900 
     21 ****        4.868464   -5.109633   11.137372 H         3 BENZYL      0.049600 
     22 S           5.662132  -10.438290   12.625212 S.o2      1 TOS1        2.211000 
     23 O1          6.948793  -11.031455   12.317303 O.2       1 TOS1       -0.903500 
     24 O2          4.672241  -11.207277   13.353623 O.2       1 TOS1       -0.951800 
     25 C5          7.359096   -7.102078   14.210359 C.ar      4 NAPHTHALENE   -0.294200 
     26 C6          7.180401   -8.314040   13.537863 C.ar      4 NAPHTHALENE   -0.123700 
     27 C7          5.910939   -8.891489   13.462279 C.ar      4 NAPHTHALENE   -0.428600 
     28 C8          4.815582   -8.231506   14.026264 C.ar      4 NAPHTHALENE   -0.175600 
     29 C9          4.988610   -7.018352   14.701665 C.ar      4 NAPHTHALENE    0.119100 
     30 C10         6.266074   -6.449752   14.793863 C.ar      4 NAPHTHALENE    0.252400 
     31 H1          2.899609   -6.797484   15.222739 H         4 NAPHTHALENE    0.187700 
     32 C           5.265681   -7.596478   10.585050 C.2       2 APM2        0.804800 
     33 CA          5.667677   -9.002882   10.206186 C.3       2 APM2        0.109200 
     34 CB          5.383049   -9.383066    8.723134 C.3       2 APM2       -0.336800 
     35 CG          4.101528   -8.708711    8.206489 C.ar      2 APM2        0.148200 
     36 CD1         2.867747   -9.369512    8.210692 C.ar      2 APM2       -0.138900 
     37 CD2         4.171981   -7.395107    7.725148 C.ar      2 APM2       -0.105200 
     38 CE1         1.691827   -8.701025    7.839076 C.ar      2 APM2       -0.345000 
     39 CE2         3.005984   -6.711298    7.382247 C.ar      2 APM2       -0.145700 
     40 CZ          1.767495   -7.351393    7.477286 C.ar      2 APM2       -0.066900 
     41 CF          0.348593   -9.408270    7.822599 C.cat     2 APM2        1.091300 
     42 O           4.085773   -7.280428   10.613259 O.2       2 APM2       -0.619600 
     43 N           4.930632   -9.859009   11.117981 N.am      2 APM2       -0.862800 
     44 NG1        -0.634618   -8.902338    7.120384 N.pl3     2 APM2       -1.033000 
     45 NG2         0.175260  -10.510755    8.507032 N.pl3     2 APM2       -0.985600 
     46 H2          3.220305   -4.651912   16.405018 H         4 NAPHTHALENE    0.169200 
     47 H3          5.480551   -3.634295   16.549004 H         4 NAPHTHALENE    0.158500 
     48 H4          7.421067   -4.774509   15.530377 H         4 NAPHTHALENE    0.196300 
     49 H5          8.354049   -6.671802   14.271324 H         4 NAPHTHALENE    0.213400 
     50 H6          8.030738   -8.803478   13.075361 H         4 NAPHTHALENE    0.204900 
     51 H8          3.829425   -8.673946   13.932210 H         4 NAPHTHALENE    0.217800 
@<TRIPOS>BOND
     1   22   27 1    
     2   25   26 ar   
     3   25   30 ar   
     4   25   49 1    
     5   30    4 ar   
     6   30   29 ar   
     7   29    1 ar   
     8   33    5 1    
     9   34    6 1    
    10   34    7 1    
    11   36    8 1    
    12   37    9 1    
    13   39   10 1    
    14   40   11 1    
    15   43   12 1    
    16   44   13 1    
    17   44   14 1    
    18   45   15 1    
    19   45   16 1    
    20   32   17 1    
    21   18   19 1    
    22   18   20 1    
    23   17   18 1    
    24   18   21 1    
    25   29   28 ar   
    26   22   24 2    
    27   22   23 2    
    28   28   27 ar   
    29   28   51 1    
    30   27   26 ar   
    31   26   50 1    
    32    1    2 ar   
    33    1   31 1    
    34   32   42 2    
    35   33   32 1    
    36   33   43 1    
    37   34   33 1    
    38   35   34 1    
    39   35   37 ar   
    40   36   35 ar   
    41   38   36 ar   
    42   41   38 1    
    43   38   40 ar   
    44   40   39 ar   
    45   39   37 ar   
    46   41   45 ar   
    47   41   44 ar   
    48   43   22 1    
    49    2    3 ar   
    50    2   46 1    
    51    3    4 ar   
    52    3   47 1    
    53    4   48 1    
@<TRIPOS>SUBSTRUCTURE
     1 TOS1       22 GROUP             0 I     ****    2  
     2 APM2       32 GROUP             0 I     ****    2 ROOT 
     3 BENZYL     18 PERM              0 ****  ****    1  
     4 NAPHTHALENE    25 PERM              0 ****  ****    1  
@<TRIPOS>SET
UNK_ATOMS       STATIC     ATOMS    AMSOM    **** 
30 22 23 24 0 0 0 0 0 0 0 32 33 34 35 36 37 38 39 40 \
 41 42 43 44 45 0 0 0 0 0 0
LAB$B_TYPE      STATIC     BONDS    LABELGROUP SYSTEM 
0
@<TRIPOS>NORMAL
@<TRIPOS>FF_PBC
FORCE_FIELD_SETUP_FEATURE Force Field Setup information
v1.0  0 0.000000 0.000000 0.000000 0.000000 0.000000 0.000000 NONE 0 0 0 0 0 0 0 0 0 0 0 0 0
