#	Name:			42
#	Creating user name:	jeff
#	Creation time:		Fri Dec 13 10:09:28 2002

#	Modifying user name:	jeff
#	Modification time:	Fri Dec 13 10:09:33 2002

@<TRIPOS>MOLECULE
42
   79    83     6     1     2
SMALL
USER_CHARGES


@<TRIPOS>ATOM
      1 C1          3.901793   -6.366127   15.298544 C.ar      4 NAPHTHALENE   -0.250900 
      2 C2          4.068752   -5.150996   15.966997 C.ar      4 NAPHTHALENE   -0.125800 
      3 C3          5.336363   -4.570093   16.050497 C.ar      4 NAPHTHALENE   -0.052500 
      4 C4          6.434760   -5.206263   15.464492 C.ar      4 NAPHTHALENE   -0.322400 
      5 ****        6.767060   -9.296238   10.400593 H         2 APM2        0.101900 
      6 ****        5.247123  -10.492301    8.660973 H         2 APM2        0.165700 
      7 ****        6.163154   -9.115184    8.044990 H         2 APM2        0.134900 
      8 ****        2.798910  -10.388457    8.511180 H         2 APM2        0.205600 
      9 ****        5.109441   -6.860016    7.738747 H         2 APM2        0.173000 
     10 ****        3.068186   -5.666839    7.041074 H         2 APM2        0.204200 
     11 ****        0.871700   -6.759896    7.207651 H         2 APM2        0.163500 
     12 ****        3.968121   -9.941796   10.989251 H         2 APM2        0.392600 
     13 ****       -1.577743   -9.366517    7.061911 H         2 APM2        0.572200 
     14 ****       -0.525418   -8.059449    6.506828 H         2 APM2        0.556000 
     15 ****        0.898223  -10.864651    9.086510 H         2 APM2        0.541100 
     16 ****       -0.755734  -10.983394    8.473487 H         2 APM2        0.572700 
     17 ****        7.515960   -6.200322    8.427456 H         3 PIP3        0.133200 
     18 ****        7.777094   -7.793378    9.126312 H         3 PIP3        0.062500 
     19 ****        9.180585   -4.325602   11.282521 H         3 PIP3        0.077400 
     20 ****        8.635046   -6.770132   11.239053 H         3 PIP3        0.106400 
     21 ****        8.411125   -4.107655    9.687129 H         3 PIP3        0.113700 
     22 C22        11.791071   -7.790186    8.768944 C.3       6 CO2        -0.239300 
     23 ****        6.803656   -3.471175   11.481945 H         3 PIP3        0.040500 
     24 ****        7.013991   -5.060940   12.265600 H         3 PIP3        0.002000 
     25 ****        4.927577   -5.042748   10.913532 H         3 PIP3        0.079400 
     26 ****        5.835902   -4.581184    9.462952 H         3 PIP3        0.076000 
     27 S           5.685983  -10.418567   12.627629 S.o2      1 TOS1        2.252500 
     28 O1          6.974529  -11.006446   12.314100 O.2       1 TOS1       -0.923900 
     29 O2          4.704259  -11.196743   13.357276 O.2       1 TOS1       -0.948100 
     30 C5          7.367514   -7.068200   14.205180 C.ar      4 NAPHTHALENE   -0.226600 
     31 C6          7.197991   -8.283779   13.537669 C.ar      4 NAPHTHALENE   -0.155000 
     32 C7          5.933221   -8.873856   13.469029 C.ar      4 NAPHTHALENE   -0.413900 
     33 C8          4.836791   -8.225806   14.043704 C.ar      4 NAPHTHALENE   -0.225300 
     34 C9          5.000235   -7.007298   14.711404 C.ar      4 NAPHTHALENE    0.201800 
     35 C10         6.271783   -6.424437   14.794703 C.ar      4 NAPHTHALENE    0.178700 
     36 H1          2.911223   -6.806790   15.240790 H         4 NAPHTHALENE    0.189300 
     37 C           5.470911   -7.557359   10.497304 C.2       2 APM2        0.519600 
     38 CA          5.720893   -9.022932   10.200197 C.3       2 APM2        0.337600 
     39 CB          5.353709   -9.398519    8.733835 C.3       2 APM2       -0.427000 
     40 CG          4.077226   -8.690717    8.244293 C.ar      2 APM2        0.164300 
     41 CD1         2.838722   -9.344249    8.224802 C.ar      2 APM2       -0.139500 
     42 CD2         4.154204   -7.369505    7.790352 C.ar      2 APM2       -0.034700 
     43 CE1         1.669601   -8.677680    7.829047 C.ar      2 APM2       -0.363000 
     44 CE2         3.000316   -6.691643    7.393860 C.ar      2 APM2       -0.177200 
     45 CZ          1.760332   -7.331358    7.452905 C.ar      2 APM2       -0.060800 
     46 CF          0.326325   -9.388613    7.800672 C.cat     2 APM2        1.108900 
     47 O           4.457458   -7.341842   11.143662 O.2       2 APM2       -0.606100 
     48 N           4.949094   -9.820798   11.145469 N.am      2 APM2       -0.988200 
     49 NG1        -0.655950   -8.904272    7.080548 N.pl3     2 APM2       -1.046300 
     50 NG2         0.146883  -10.484926    8.494658 N.pl3     2 APM2       -1.001000 
     51 N1          6.276359   -6.531674   10.090199 N.am      3 PIP3       -0.406700 
     52 C2          7.536302   -6.756471    9.378002 C.3       3 PIP3       -0.041400 
     53 C3          8.657426   -6.204819   10.292447 C.3       3 PIP3       -0.187900 
     54 C4          8.389784   -4.706233   10.613813 C.3       3 PIP3       -0.203200 
     55 C5          7.007583   -4.539272   11.295888 C.3       3 PIP3        0.069200 
     56 C6          5.898328   -5.150330   10.404278 C.3       3 PIP3        0.007600 
     57 ****       11.716637   -7.372363    7.752211 H         6 CO2         0.179900 
     58 ****       10.031683   -8.462538    9.763195 H         6 CO2         0.404600 
     59 ****       12.545287   -7.203088    9.315391 H         6 CO2         0.136400 
     60 H2          3.214427   -4.658288   16.421589 H         4 NAPHTHALENE    0.165500 
     61 H3          5.467263   -3.625913   16.570166 H         4 NAPHTHALENE    0.163900 
     62 H4          7.413884   -4.742537   15.536620 H         4 NAPHTHALENE    0.201300 
     63 H5          8.358561   -6.628058   14.260991 H         4 NAPHTHALENE    0.196500 
     64 H6          8.051337   -8.767841   13.074807 H         4 NAPHTHALENE    0.201900 
     65 H8          3.856041   -8.682684   13.963927 H         4 NAPHTHALENE    0.223800 
     66 C          10.001784   -6.392563    9.624890 C.2       6 CO2         0.801600 
     67 O          10.604193   -5.396734    9.256150 O.2       6 CO2        -0.608300 
     68 N          10.506690   -7.638801    9.446513 N.am      6 CO2        -0.693700 
     69 C          12.274126   -9.248903    8.693870 C.ar      5 PHENYL      0.120100 
     70 C          13.042408   -9.783033    9.733883 C.ar      5 PHENYL     -0.182800 
     71 C          13.530834  -11.090877    9.660492 C.ar      5 PHENYL     -0.155400 
     72 C          13.236299  -11.885174    8.550282 C.ar      5 PHENYL     -0.113800 
     73 C          12.453634  -11.365548    7.514974 C.ar      5 PHENYL     -0.139600 
     74 C          11.969303  -10.055314    7.590159 C.ar      5 PHENYL     -0.218800 
     75 ****       13.267579   -9.180815   10.607223 H         5 PHENYL      0.169200 
     76 ****       14.140423  -11.488177   10.465906 H         5 PHENYL      0.157700 
     77 ****       13.615384  -12.901222    8.494073 H         5 PHENYL      0.151700 
     78 ****       12.226181  -11.984821    6.652596 H         5 PHENYL      0.148900 
     79 ****       11.355949   -9.662020    6.785950 H         5 PHENYL      0.174000 
@<TRIPOS>BOND
     1   27   32 1    
     2   30   31 ar   
     3   30   35 ar   
     4   30   63 1    
     5   35    4 ar   
     6   35   34 ar   
     7   34    1 ar   
     8   38    5 1    
     9   39    6 1    
    10   39    7 1    
    11   41    8 1    
    12   42    9 1    
    13   44   10 1    
    14   45   11 1    
    15   48   12 1    
    16   49   13 1    
    17   49   14 1    
    18   50   15 1    
    19   50   16 1    
    20   52   17 1    
    21   52   18 1    
    22   53   66 1    
    23   53   20 1    
    24   54   21 1    
    25   54   19 1    
    26   55   23 1    
    27   55   24 1    
    28   56   25 1    
    29   56   26 1    
    30   34   33 ar   
    31   27   29 2    
    32   27   28 2    
    33   33   32 ar   
    34   33   65 1    
    35   32   31 ar   
    36   31   64 1    
    37    1    2 ar   
    38    1   36 1    
    39   37   47 2    
    40   38   37 1    
    41   38   48 1    
    42   39   38 1    
    43   40   39 1    
    44   40   42 ar   
    45   41   40 ar   
    46   43   41 ar   
    47   46   43 1    
    48   43   45 ar   
    49   45   44 ar   
    50   44   42 ar   
    51   46   50 ar   
    52   46   49 ar   
    53   51   56 1    
    54   52   51 1    
    55   53   52 1    
    56   54   53 1    
    57   54   55 1    
    58   55   56 1    
    59   37   51 am   
    60   48   27 1    
    61   68   22 1    
    62   22   57 1    
    63   22   69 1    
    64    2    3 ar   
    65    2   60 1    
    66    3    4 ar   
    67    3   61 1    
    68    4   62 1    
    69   22   59 1    
    70   66   67 2    
    71   66   68 am   
    72   69   70 ar   
    73   69   74 ar   
    74   74   73 ar   
    75   73   72 ar   
    76   72   71 ar   
    77   71   70 ar   
    78   68   58 1    
    79   70   75 1    
    80   71   76 1    
    81   72   77 1    
    82   73   78 1    
    83   74   79 1    
@<TRIPOS>SUBSTRUCTURE
     1 TOS1       27 GROUP             0 I     ****    2  
     2 APM2       37 GROUP             0 I     ****    2 ROOT 
     3 PIP3       51 GROUP             0 I     ****    2  
     4 NAPHTHALENE    30 PERM              0 ****  ****    1  
     5 PHENYL     69 PERM              0 ****  ****    1  
     6 CO2        66 PERM              0 ****  ****    2  
@<TRIPOS>SET
UNK_ATOMS       STATIC     ATOMS    AMSOM    **** 
30 27 28 29 0 0 0 0 0 0 0 37 38 39 40 41 42 43 44 45 \
 46 47 48 49 50 51 52 53 54 55 56
LAB$B_TYPE      STATIC     BONDS    LABELGROUP SYSTEM 
0
@<TRIPOS>NORMAL
@<TRIPOS>FF_PBC
FORCE_FIELD_SETUP_FEATURE Force Field Setup information
v1.0  0 0.000000 0.000000 0.000000 0.000000 0.000000 0.000000 NONE 0 0 0 0 0 0 0 0 0 0 0 0 0
