#	Name:			43
#	Creating user name:	jeff
#	Creation time:		Fri Dec 13 10:09:33 2002

#	Modifying user name:	jeff
#	Modification time:	Fri Dec 13 10:09:37 2002

@<TRIPOS>MOLECULE
43
   69    73     4     1     3
SMALL
USER_CHARGES


@<TRIPOS>ATOM
      1 C1          3.845589   -6.331683   15.260323 C.ar      4 NAPHTHALENE   -0.239100 
      2 C2          4.035144   -5.119726   15.931313 C.ar      4 NAPHTHALENE   -0.133500 
      3 C3          5.316391   -4.570877   16.024035 C.ar      4 NAPHTHALENE   -0.055900 
      4 C4          6.406694   -5.242118   15.465891 C.ar      4 NAPHTHALENE   -0.297300 
      5 ****        6.512403   -9.664950   10.453195 H         2 APM2        0.025600 
      6 ****        5.146709  -10.575886    8.541339 H         2 APM2        0.137800 
      7 ****        6.071900   -9.145782    8.083284 H         2 APM2        0.074900 
      8 ****        2.764497  -10.423411    8.476606 H         2 APM2        0.201800 
      9 ****        5.051340   -6.910355    7.763239 H         2 APM2        0.182600 
     10 ****        3.011180   -5.673504    7.133611 H         2 APM2        0.201000 
     11 ****        0.836852   -6.725295    7.292866 H         2 APM2        0.161300 
     12 ****        3.726445  -10.027322   11.024192 H         2 APM2        0.394600 
     13 ****       -1.658052   -9.378742    7.108943 H         2 APM2        0.570100 
     14 ****       -0.638890   -8.064306    6.564246 H         2 APM2        0.551900 
     15 ****        0.814352  -10.936527    9.076046 H         2 APM2        0.544600 
     16 ****       -0.816310  -11.031490    8.455393 H         2 APM2        0.571400 
     17 C1          8.567956   -8.482882    9.444012 C.3       3 CYCLOHEXANE_CHAIR   -0.176500 
     18 C2          7.683669   -7.207461    9.311773 C.3       3 CYCLOHEXANE_CHAIR    0.150400 
     19 C3          8.540885   -5.997989    9.764510 C.3       3 CYCLOHEXANE_CHAIR    0.046800 
     20 C4          9.800082   -5.819998    8.880631 C.3       3 CYCLOHEXANE_CHAIR   -0.261500 
     21 C5         10.690315   -7.080981    9.038059 C.3       3 CYCLOHEXANE_CHAIR   -0.030100 
     22 C6          9.894892   -8.350745    8.648007 C.3       3 CYCLOHEXANE_CHAIR   -0.149900 
     23 H1          8.109348   -9.368750    8.986177 H         3 CYCLOHEXANE_CHAIR    0.064900 
     24 S           5.516909  -10.502462   12.738246 S.o2      1 TOS1        2.254000 
     25 O1          6.785448  -11.127807   12.409864 O.2       1 TOS1       -0.912600 
     26 O2          4.545195  -11.241906   13.516474 O.2       1 TOS1       -0.946300 
     27 C5          7.315362   -7.189809   14.312753 C.ar      4 NAPHTHALENE   -0.269500 
     28 C6          7.124262   -8.442331   13.716565 C.ar      4 NAPHTHALENE   -0.102700 
     29 C7          5.831054   -8.948622   13.550424 C.ar      4 NAPHTHALENE   -0.477600 
     30 C8          4.742049   -8.215282   14.021028 C.ar      4 NAPHTHALENE   -0.123700 
     31 C9          4.934908   -7.005476   14.701028 C.ar      4 NAPHTHALENE    0.119400 
     32 C10         6.226473   -6.476598   14.824042 C.ar      4 NAPHTHALENE    0.225200 
     33 H1          2.843559   -6.742859   15.184095 H         4 NAPHTHALENE    0.187900 
     34 C           5.545844   -7.755143   10.529019 C.2       2 APM2        0.716000 
     35 CA          5.544763   -9.228913   10.214525 C.3       2 APM2        0.459900 
     36 CB          5.245222   -9.493525    8.714642 C.3       2 APM2       -0.306700 
     37 CG          4.002264   -8.734502    8.241579 C.ar      2 APM2        0.102300 
     38 CD1         2.764681   -9.376186    8.216022 C.ar      2 APM2       -0.126200 
     39 CD2         4.092968   -7.406927    7.816715 C.ar      2 APM2       -0.027600 
     40 CE1         1.593869   -8.695342    7.852468 C.ar      2 APM2       -0.365200 
     41 CE2         2.942575   -6.707955    7.454783 C.ar      2 APM2       -0.183600 
     42 CZ          1.700201   -7.338348    7.512579 C.ar      2 APM2       -0.048200 
     43 CF          0.253584   -9.411837    7.823714 C.cat     2 APM2        1.100600 
     44 O           4.598166   -7.366042   11.194653 O.2       2 APM2       -0.689500 
     45 N           4.710410   -9.927369   11.180002 N.am      2 APM2       -1.052100 
     46 NG1        -0.741687   -8.915589    7.126456 N.pl3     2 APM2       -1.036400 
     47 NG2         0.078835  -10.530268    8.489541 N.pl3     2 APM2       -0.998500 
     48 H2          8.770692   -8.686485   10.506643 H         3 CYCLOHEXANE_CHAIR    0.122200 
     49 N3          6.501074   -6.874379   10.122953 N.am      3 CYCLOHEXANE_CHAIR   -0.750000 
     50 H4          7.414993   -7.082204    8.250669 H         3 CYCLOHEXANE_CHAIR    0.130400 
     51 H5          8.867163   -6.150405   10.809396 H         3 CYCLOHEXANE_CHAIR    0.131000 
     52 C6          7.540553   -4.820817    9.768924 C.3       3 CYCLOHEXANE_CHAIR   -0.326900 
     53 H7         10.363349   -4.926917    9.195974 H         3 CYCLOHEXANE_CHAIR    0.095900 
     54 H2          3.188588   -4.608678   16.378645 H         4 NAPHTHALENE    0.165000 
     55 H3          5.461582   -3.622112   16.532782 H         4 NAPHTHALENE    0.159200 
     56 H4          7.394816   -4.798221   15.538424 H         4 NAPHTHALENE    0.188600 
     57 H5          8.320025   -6.781500   14.378687 H         4 NAPHTHALENE    0.200400 
     58 H6          7.983139   -9.018012   13.389535 H         4 NAPHTHALENE    0.179900 
     59 H8          3.741489   -8.599286   13.855903 H         4 NAPHTHALENE    0.207600 
     60 H8          9.508071   -5.692451    7.825888 H         3 CYCLOHEXANE_CHAIR    0.097000 
     61 H9         11.034312   -7.173345   10.081781 H         3 CYCLOHEXANE_CHAIR    0.043900 
     62 H10        11.580243   -6.998938    8.392029 H         3 CYCLOHEXANE_CHAIR    0.056200 
     63 H11         9.671072   -8.309321    7.568189 H         3 CYCLOHEXANE_CHAIR    0.062500 
     64 H12        10.517422   -9.244270    8.830874 H         3 CYCLOHEXANE_CHAIR    0.073400 
     65 ****        7.913761   -3.925357   10.292359 H         3 CYCLOHEXANE_CHAIR    0.136100 
     66 C22         6.325810   -5.467542   10.476412 C.3       3 CYCLOHEXANE_CHAIR    0.162600 
     67 ****        7.282348   -4.549026    8.732046 H         3 CYCLOHEXANE_CHAIR    0.115000 
     68 ****        5.370712   -5.049929   10.116293 H         3 CYCLOHEXANE_CHAIR    0.086200 
     69 ****        6.394305   -5.349479   11.570605 H         3 CYCLOHEXANE_CHAIR    0.050800 
@<TRIPOS>BOND
     1   24   29 1    
     2   27   28 ar   
     3   27   32 ar   
     4   27   57 1    
     5   32    4 ar   
     6   32   31 ar   
     7   31    1 ar   
     8   35    5 1    
     9   36    6 1    
    10   36    7 1    
    11   38    8 1    
    12   39    9 1    
    13   41   10 1    
    14   42   11 1    
    15   45   12 1    
    16   46   13 1    
    17   46   14 1    
    18   47   15 1    
    19   47   16 1    
    20   34   49 am   
    21   17   18 1    
    22   17   22 1    
    23   17   23 1    
    24   17   48 1    
    25   22   21 1    
    26   22   63 1    
    27   22   64 1    
    28   21   20 1    
    29   21   61 1    
    30   31   30 ar   
    31   24   26 2    
    32   24   25 2    
    33   30   29 ar   
    34   30   59 1    
    35   29   28 ar   
    36   28   58 1    
    37    1    2 ar   
    38    1   33 1    
    39   34   44 2    
    40   35   34 1    
    41   35   45 1    
    42   36   35 1    
    43   37   36 1    
    44   37   39 ar   
    45   38   37 ar   
    46   40   38 ar   
    47   43   40 1    
    48   40   42 ar   
    49   42   41 ar   
    50   41   39 ar   
    51   43   47 ar   
    52   43   46 ar   
    53   21   62 1    
    54   20   19 1    
    55   20   53 1    
    56   20   60 1    
    57   19   18 1    
    58   19   51 1    
    59   45   24 1    
    60   19   52 1    
    61   52   67 1    
    62    2    3 ar   
    63    2   54 1    
    64    3    4 ar   
    65    3   55 1    
    66    4   56 1    
    67   52   66 1    
    68   52   65 1    
    69   66   49 1    
    70   66   69 1    
    71   66   68 1    
    72   49   18 1    
    73   18   50 1    
@<TRIPOS>SUBSTRUCTURE
     1 TOS1       24 GROUP             0 I     ****    2  
     2 APM2       34 GROUP             0 I     ****    2 ROOT 
     3 CYCLOHEXANE_CHAIR    17 PERM              0 ****  ****    1  
     4 NAPHTHALENE    27 PERM              0 ****  ****    1  
@<TRIPOS>SET
UNK_ATOMS       STATIC     ATOMS    AMSOM    **** 
30 24 25 26 0 0 0 0 0 0 0 34 35 36 37 38 39 40 41 42 \
 43 44 45 46 47 0 0 0 0 0 0
LAB$B_TYPE      STATIC     BONDS    LABELGROUP SYSTEM 
0
ATOM$BY_TYPE    STATIC     ATOMS    COLORGROUP SYSTEM 
66 1 2 3 4 5 6 7 8 9 10 11 12 13 14 15 16 0 0 0 \
 0 0 0 0 0 24 25 26 27 28 29 30 31 32 33 34 35 36 \
 37 38 39 40 41 42 43 44 45 46 47 0 0 0 0 0 0 54 \
 55 56 57 58 59 0 0 0 0 0 0
@<TRIPOS>NORMAL
@<TRIPOS>FF_PBC
FORCE_FIELD_SETUP_FEATURE Force Field Setup information
v1.0  0 0.000000 0.000000 0.000000 0.000000 0.000000 0.000000 NONE 0 0 0 0 0 0 0 0 0 0 0 0 0
