#	Name:			44
#	Creating user name:	jeff
#	Creation time:		Fri Dec 13 10:09:37 2002

#	Modifying user name:	jeff
#	Modification time:	Fri Dec 13 10:09:41 2002

@<TRIPOS>MOLECULE
44
   64    67     3     1     1
SMALL
USER_CHARGES


@<TRIPOS>ATOM
      1 N1          4.650860   -7.888995   13.879816 N.ar      1 TOS1       -0.737100 
      2 C2          6.127965   -5.811790   14.948658 C.ar      1 TOS1        0.009000 
      3 ****        9.859934   -7.929485   13.372828 H         1 TOS1        0.205100 
      4 ****        8.524966   -9.806760   12.490901 H         1 TOS1        0.158100 
      5 ****        4.016328   -6.872277   14.505276 C.ar      1 TOS1        0.431900 
      6 ****        4.737103   -5.817518   15.069457 C.ar      1 TOS1       -0.417700 
      7 ****        6.806464   -9.229423   10.352288 H         2 APM2        0.086100 
      8 ****        5.290886  -10.411889    8.631454 H         2 APM2        0.212100 
      9 ****        6.142020   -8.998215    7.999652 H         2 APM2        0.159700 
     10 ****        2.822003  -10.364720    8.666609 H         2 APM2        0.222500 
     11 ****        5.004665   -6.771581    7.767190 H         2 APM2        0.188500 
     12 ****        2.897152   -5.632160    7.178884 H         2 APM2        0.193300 
     13 ****        0.748437   -6.848721    7.304406 H         2 APM2        0.164200 
     14 ****        3.987737   -9.791709   11.006818 H         2 APM2        0.400800 
     15 ****       -1.573111   -9.503398    7.232385 H         2 APM2        0.571300 
     16 ****       -0.558476   -8.162637    6.672060 H         2 APM2        0.552900 
     17 ****        1.006672  -10.891951    9.243876 H         2 APM2        0.551300 
     18 ****       -0.663346  -11.090006    8.682873 H         2 APM2        0.573100 
     19 ****        7.458590   -6.160250    8.330510 H         3 PIP3        0.122200 
     20 ****        7.800633   -7.733594    9.044106 H         3 PIP3        0.104400 
     21 ****        9.657417   -6.187803    9.463574 H         3 PIP3        0.103000 
     22 ****        8.897157   -6.711285   10.987636 H         3 PIP3        0.084200 
     23 ****        8.404156   -4.037079    9.513884 H         3 PIP3        0.066200 
     24 C25         9.650866   -4.078469   11.299527 C.3       3 PIP3       -0.506200 
     25 ****        6.936776   -3.415196   11.435690 H         3 PIP3        0.076100 
     26 ****        7.209296   -4.997939   12.203956 H         3 PIP3        0.076200 
     27 ****        5.056598   -4.992953   11.039407 H         3 PIP3        0.098400 
     28 ****        5.814004   -4.512241    9.510000 H         3 PIP3        0.077300 
     29 S           5.739896  -10.418866   12.524850 S.o2      1 TOS1        2.400200 
     30 O1          6.687798  -11.412161   12.053666 O.2       1 TOS1       -0.967200 
     31 O2          4.722182  -10.804288   13.481454 O.2       1 TOS1       -0.954900 
     32 C1          6.634101   -9.009476   13.154440 C.ar      1 TOS1       -0.966700 
     33 C2          5.995743   -7.925507   13.772245 C.ar      1 TOS1        0.708400 
     34 C3          6.760142   -6.867995   14.287473 C.ar      1 TOS1       -0.193900 
     35 C4          8.150696   -6.869343   14.143729 C.ar      1 TOS1        0.002700 
     36 C5          8.781864   -7.930004   13.493410 C.ar      1 TOS1       -0.333400 
     37 C6          8.022920   -8.991843   12.998573 C.ar      1 TOS1        0.295600 
     38 ****        6.702537   -4.991197   15.369177 H         1 TOS1        0.175900 
     39 C           5.516903   -7.483911   10.470074 C.2       2 APM2        0.735300 
     40 CA          5.758800   -8.946744   10.170759 C.3       2 APM2        0.308900 
     41 CB          5.367462   -9.316429    8.712830 C.3       2 APM2       -0.552800 
     42 CG          4.052931   -8.639539    8.294214 C.ar      2 APM2        0.240000 
     43 CD1         2.836853   -9.330647    8.340260 C.ar      2 APM2       -0.165000 
     44 CD2         4.068825   -7.312903    7.847898 C.ar      2 APM2       -0.085500 
     45 CE1         1.644637   -8.704735    7.955914 C.ar      2 APM2       -0.333200 
     46 CE2         2.879692   -6.669681    7.498462 C.ar      2 APM2       -0.159400 
     47 CZ          1.669023   -7.362916    7.560623 C.ar      2 APM2       -0.074100 
     48 CF          0.332822   -9.464835    7.958823 C.cat     2 APM2        1.094000 
     49 O           4.498624   -7.263771   11.107539 O.2       2 APM2       -0.617400 
     50 N           4.977343   -9.716158   11.130547 N.am      2 APM2       -1.034300 
     51 NG1        -0.666701   -9.012443    7.245450 N.pl3     2 APM2       -1.048700 
     52 NG2         0.218734  -10.556201    8.670878 N.pl3     2 APM2       -0.997700 
     53 N1          6.332739   -6.465844   10.073542 N.am      3 PIP3       -0.614900 
     54 C2          7.551201   -6.694516    9.288470 C.3       3 PIP3       -0.033300 
     55 C3          8.744411   -6.110053   10.077763 C.3       3 PIP3       -0.216100 
     56 C4          8.476336   -4.625001   10.447628 C.3       3 PIP3        0.183200 
     57 C5          7.143804   -4.479493   11.234737 C.3       3 PIP3       -0.155500 
     58 C6          5.972159   -5.090914   10.432910 C.3       3 PIP3        0.044300 
     59 ****       10.609625   -4.216710   10.777092 H         3 PIP3        0.134200 
     60 ****        9.696993   -4.614632   12.259383 H         3 PIP3        0.118500 
     61 ****        9.511022   -3.005817   11.501703 H         3 PIP3        0.132300 
     62 ****        2.934202   -6.878621   14.569663 H         1 TOS1        0.128500 
     63 ****        4.232242   -5.012077   15.595270 H         1 TOS1        0.216000 
     64 ****        8.747471   -6.050966   14.533527 H         1 TOS1        0.181200 
@<TRIPOS>BOND
     1   33    1 ar   
     2   34    2 ar   
     3   36    3 1    
     4   37    4 1    
     5    1    5 ar   
     6    2    6 ar   
     7    6    5 ar   
     8   40    7 1    
     9   41    8 1    
    10   41    9 1    
    11   43   10 1    
    12   44   11 1    
    13   46   12 1    
    14   47   13 1    
    15   50   14 1    
    16   51   15 1    
    17   51   16 1    
    18   52   17 1    
    19   52   18 1    
    20   54   19 1    
    21   54   20 1    
    22   55   21 1    
    23   55   22 1    
    24   56   23 1    
    25   56   24 1    
    26   57   25 1    
    27   57   26 1    
    28   58   27 1    
    29   58   28 1    
    30   32   29 1    
    31   29   31 2    
    32   29   30 2    
    33   32   37 ar   
    34   33   32 ar   
    35   34   33 ar   
    36   35   34 ar   
    37   35   36 ar   
    38   36   37 ar   
    39   39   49 2    
    40   40   39 1    
    41   40   50 1    
    42   41   40 1    
    43   42   41 1    
    44   42   44 ar   
    45   43   42 ar   
    46   45   43 ar   
    47   48   45 1    
    48   45   47 ar   
    49   47   46 ar   
    50   46   44 ar   
    51   48   52 ar   
    52   48   51 ar   
    53   53   58 1    
    54   54   53 1    
    55   55   54 1    
    56   56   55 1    
    57   56   57 1    
    58   57   58 1    
    59   39   53 am   
    60   50   29 1    
    61   24   59 1    
    62   24   60 1    
    63   24   61 1    
    64    2   38 1    
    65    5   62 1    
    66    6   63 1    
    67   35   64 1    
@<TRIPOS>SUBSTRUCTURE
     1 TOS1       29 GROUP             0 I     ****    1  
     2 APM2       39 GROUP             0 I     ****    2 ROOT 
     3 PIP3       53 GROUP             0 I     ****    1  
@<TRIPOS>SET
UNK_ATOMS       STATIC     ATOMS    AMSOM    **** 
30 29 30 31 32 33 34 35 36 37 0 39 40 41 42 43 44 45 46 47 \
 48 49 50 51 52 53 54 55 56 57 58
@<TRIPOS>NORMAL
@<TRIPOS>FF_PBC
FORCE_FIELD_SETUP_FEATURE Force Field Setup information
v1.0  0 0.000000 0.000000 0.000000 0.000000 0.000000 0.000000 NONE 0 0 0 0 0 0 0 0 0 0 0 0 0
