#	Name:			45
#	Creating user name:	jeff
#	Creation time:		Fri Dec 13 10:09:41 2002

#	Modifying user name:	jeff
#	Modification time:	Fri Dec 13 10:09:44 2002

@<TRIPOS>MOLECULE
45
   59    61     3     1     1
SMALL
USER_CHARGES


@<TRIPOS>ATOM
      1 ****        3.868721   -8.694176   14.066264 H         1 TOS1        0.188800 
      2 ****        4.066680   -6.533577   15.242471 H         1 TOS1        0.199800 
      3 ****        8.282103   -6.467466   14.396366 H         1 TOS1        0.198200 
      4 ****        8.076616   -8.631094   13.216427 H         1 TOS1        0.184200 
      5 ****        6.317636   -4.950227   15.543749 C.3       1 TOS1       -0.345000 
      6 ****        5.353078   -4.584516   15.927585 H         1 TOS1        0.111900 
      7 ****        6.697555   -4.219028   14.814483 H         1 TOS1        0.108600 
      8 ****        6.759915   -9.290330   10.428935 H         2 APM2        0.148400 
      9 ****        5.229223  -10.456807    8.670588 H         2 APM2        0.175100 
     10 ****        6.153210   -9.072902    8.097044 H         2 APM2        0.139300 
     11 ****        2.789063  -10.316178    8.566164 H         2 APM2        0.206300 
     12 ****        5.107243   -6.818973    7.747788 H         2 APM2        0.171700 
     13 ****        3.097152   -5.684203    6.892933 H         2 APM2        0.200300 
     14 ****        0.902855   -6.749007    7.041588 H         2 APM2        0.164700 
     15 ****        4.029878  -10.065235   11.053692 H         2 APM2        0.366800 
     16 ****       -1.605077   -9.434825    7.020022 H         2 APM2        0.569900 
     17 ****       -0.585023   -8.144155    6.392574 H         2 APM2        0.555300 
     18 ****        0.808657  -10.797000    9.144428 H         2 APM2        0.539400 
     19 ****       -0.809168  -10.944447    8.467931 H         2 APM2        0.572300 
     20 ****        7.568497   -6.270419    8.436204 H         3 PIP3        0.121800 
     21 ****        7.828847   -7.839146    9.187390 H         3 PIP3        0.078000 
     22 ****        9.680187   -6.310513    9.777101 H         3 PIP3        0.051800 
     23 ****        8.758153   -6.780276   11.231015 H         3 PIP3        0.019300 
     24 ****        8.450210   -4.136729    9.662520 H         3 PIP3        0.089600 
     25 ****        9.220932   -4.319266   11.263873 H         3 PIP3        0.066300 
     26 ****        6.837859   -3.501678   11.479018 H         3 PIP3        0.027300 
     27 ****        7.032469   -5.109146   12.229926 H         3 PIP3        0.023700 
     28 ****        4.952778   -5.036489   10.859506 H         3 PIP3        0.089100 
     29 ****        5.889010   -4.597454    9.422341 H         3 PIP3        0.086800 
     30 S           5.752307  -10.347109   12.686630 S.o2      1 TOS1        2.226600 
     31 O1          7.061907  -10.885106   12.370614 O.2       1 TOS1       -0.921200 
     32 O2          4.822990  -11.168235   13.438302 O.2       1 TOS1       -0.950600 
     33 C1          5.952775   -8.804150   13.552121 C.ar      1 TOS1       -0.483200 
     34 C2          4.833121   -8.202239   14.129951 C.ar      1 TOS1       -0.055000 
     35 C3          4.948066   -6.975112   14.790036 C.ar      1 TOS1       -0.242700 
     36 C4          6.184172   -6.323765   14.867482 C.ar      1 TOS1        0.267400 
     37 C5          7.310283   -6.943660   14.313018 C.ar      1 TOS1       -0.227000 
     38 C6          7.195931   -8.170522   13.650734 C.ar      1 TOS1       -0.070500 
     39 ****        7.024552   -5.013969   16.384754 H         1 TOS1        0.112800 
     40 C           5.476748   -7.555691   10.514423 C.2       2 APM2        0.679100 
     41 CA          5.710148   -9.025577   10.244332 C.3       2 APM2        0.187600 
     42 CB          5.332330   -9.365549    8.769082 C.3       2 APM2       -0.442700 
     43 CG          4.064235   -8.647656    8.254760 C.ar      2 APM2        0.172500 
     44 CD1         2.817835   -9.288218    8.233802 C.ar      2 APM2       -0.140700 
     45 CD2         4.154641   -7.338071    7.769390 C.ar      2 APM2       -0.036900 
     46 CE1         1.646504   -8.652014    7.785481 C.ar      2 APM2       -0.361400 
     47 CE2         3.013521   -6.688804    7.298631 C.ar      2 APM2       -0.174100 
     48 CZ          1.767946   -7.325110    7.348031 C.ar      2 APM2       -0.061900 
     49 CF          0.299897   -9.374006    7.767414 C.cat     2 APM2        1.108800 
     50 O           4.456791   -7.323257   11.144567 O.2       2 APM2       -0.627300 
     51 N           4.989570   -9.836006   11.224748 N.am      2 APM2       -0.905400 
     52 NG1        -0.690736   -8.954103    7.014464 N.pl3     2 APM2       -1.043400 
     53 NG2         0.090896  -10.439893    8.503932 N.pl3     2 APM2       -0.998400 
     54 N1          6.302914   -6.549035   10.093147 N.am      3 PIP3       -0.521900 
     55 C2          7.576693   -6.796086    9.404396 C.3       3 PIP3       -0.051100 
     56 C3          8.708040   -6.210504   10.288454 C.3       3 PIP3        0.021600 
     57 C4          8.431988   -4.716391   10.600822 C.3       3 PIP3       -0.210900 
     58 C5          7.041387   -4.565010   11.273127 C.3       3 PIP3        0.074200 
     59 C6          5.932115   -5.158727   10.369850 C.3       3 PIP3       -0.012100 
@<TRIPOS>BOND
     1   34    1 1    
     2   35    2 1    
     3   37    3 1    
     4   38    4 1    
     5   36    5 1    
     6    5    6 1    
     7    5    7 1    
     8   41    8 1    
     9   42    9 1    
    10   42   10 1    
    11   44   11 1    
    12   45   12 1    
    13   47   13 1    
    14   48   14 1    
    15   51   15 1    
    16   52   16 1    
    17   52   17 1    
    18   53   18 1    
    19   53   19 1    
    20   55   20 1    
    21   55   21 1    
    22   56   22 1    
    23   56   23 1    
    24   57   24 1    
    25   57   25 1    
    26   58   26 1    
    27   58   27 1    
    28   59   28 1    
    29   59   29 1    
    30   33   30 1    
    31   30   32 2    
    32   30   31 2    
    33   33   38 ar   
    34   34   33 ar   
    35   35   34 ar   
    36   36   35 ar   
    37    5   39 1    
    38   36   37 ar   
    39   37   38 ar   
    40   40   50 2    
    41   41   40 1    
    42   41   51 1    
    43   42   41 1    
    44   43   42 1    
    45   43   45 ar   
    46   44   43 ar   
    47   46   44 ar   
    48   49   46 1    
    49   46   48 ar   
    50   48   47 ar   
    51   47   45 ar   
    52   49   53 ar   
    53   49   52 ar   
    54   54   59 1    
    55   55   54 1    
    56   56   55 1    
    57   57   56 1    
    58   57   58 1    
    59   58   59 1    
    60   40   54 am   
    61   51   30 1    
@<TRIPOS>SUBSTRUCTURE
     1 TOS1       30 GROUP             0 I     ****    1  
     2 APM2       40 GROUP             0 I     ****    2 ROOT 
     3 PIP3       54 GROUP             0 I     ****    1  
@<TRIPOS>SET
UNK_ATOMS       STATIC     ATOMS    AMSOM    **** 
30 30 31 32 33 34 35 36 37 38 0 40 41 42 43 44 45 46 47 48 \
 49 50 51 52 53 54 55 56 57 58 59
@<TRIPOS>NORMAL
@<TRIPOS>FF_PBC
FORCE_FIELD_SETUP_FEATURE Force Field Setup information
v1.0  0 0.000000 0.000000 0.000000 0.000000 0.000000 0.000000 NONE 0 0 0 0 0 0 0 0 0 0 0 0 0
