#	Name:			46
#	Creating user name:	jeff
#	Creation time:		Fri Dec 13 10:09:44 2002

#	Modifying user name:	jeff
#	Modification time:	Fri Dec 13 10:09:47 2002

@<TRIPOS>MOLECULE
46
   56    58     3     1     1
SMALL
USER_CHARGES


@<TRIPOS>ATOM
      1 ****        3.857497   -8.686560   14.058434 H         1 TOS1        0.191600 
      2 ****        4.061024   -6.526498   15.235861 H         1 TOS1        0.204600 
      3 ****        8.277164   -6.464286   14.381184 H         1 TOS1        0.218500 
      4 ****        8.067314   -8.628005   13.200422 H         1 TOS1        0.185000 
      5 ****        6.319156   -4.957396   15.539191 C.3       1 TOS1       -0.419500 
      6 ****        5.356473   -4.590058   15.925887 H         1 TOS1        0.122800 
      7 ****        6.702220   -4.229545   14.808110 H         1 TOS1        0.134300 
      8 ****        6.772985   -9.250774   10.344362 H         2 APM2        0.007600 
      9 ****        5.147645  -10.510210    8.730134 H         2 APM2        0.160600 
     10 ****        6.085699   -9.208932    8.032344 H         2 APM2        0.160500 
     11 ****        2.773928  -10.341151    8.552549 H         2 APM2        0.203000 
     12 ****        5.101739   -6.844359    7.752667 H         2 APM2        0.186600 
     13 ****        3.088815   -5.689047    6.918119 H         2 APM2        0.196200 
     14 ****        0.894861   -6.749017    7.069314 H         2 APM2        0.161100 
     15 ****        4.028059  -10.033551   11.060030 H         2 APM2        0.445700 
     16 ****       -1.600542   -9.409953    7.019195 H         2 APM2        0.566800 
     17 ****       -0.566271   -8.120029    6.410214 H         2 APM2        0.554200 
     18 ****        0.828738  -10.808841    9.131985 H         2 APM2        0.568200 
     19 ****       -0.798632  -10.949711    8.475223 H         2 APM2        0.574400 
     20 N1          6.325319   -6.600713   10.105576 N.am      3 PYRROLIDINE   -0.392500 
     21 C1          6.042004   -5.201922   10.392928 C.3       3 PYRROLIDINE   -0.050400 
     22 C2          7.407968   -4.573011   10.025746 C.3       3 PYRROLIDINE   -0.017900 
     23 C3          7.924289   -5.480035    8.888804 C.3       3 PYRROLIDINE   -0.248700 
     24 C4          7.560526   -6.895301    9.385546 C.3       3 PYRROLIDINE    0.210100 
     25 H2          5.768015   -5.009827   11.443568 H         3 PYRROLIDINE    0.095900 
     26 H3          5.242802   -4.843457    9.724134 H         3 PYRROLIDINE    0.096600 
     27 H4          8.098340   -4.664045   10.880601 H         3 PYRROLIDINE    0.042100 
     28 S           5.752873  -10.345404   12.682245 S.o2      1 TOS1        2.326600 
     29 O1          7.062432  -10.883616   12.369868 O.2       1 TOS1       -0.930300 
     30 O2          4.811411  -11.165264   13.421000 O.2       1 TOS1       -0.991400 
     31 C1          5.944599   -8.801435   13.546177 C.ar      1 TOS1       -0.571200 
     32 C2          4.824031   -8.198610   14.123073 C.ar      1 TOS1       -0.023200 
     33 C3          4.940853   -6.972130   14.783332 C.ar      1 TOS1       -0.272900 
     34 C4          6.179728   -6.325818   14.859113 C.ar      1 TOS1        0.367000 
     35 C5          7.305374   -6.941795   14.300685 C.ar      1 TOS1       -0.329700 
     36 C6          7.188291   -8.168440   13.639200 C.ar      1 TOS1        0.012400 
     37 ****        7.028056   -5.031968   16.377447 H         1 TOS1        0.132200 
     38 C           5.463207   -7.565346   10.517944 C.2       2 APM2        0.460300 
     39 CA          5.703607   -9.026627   10.216129 C.3       2 APM2        0.553500 
     40 CB          5.294465   -9.419165    8.763116 C.3       2 APM2       -0.484400 
     41 CG          4.049976   -8.671343    8.251878 C.ar      2 APM2        0.137200 
     42 CD1         2.806573   -9.309480    8.230667 C.ar      2 APM2       -0.091500 
     43 CD2         4.147791   -7.358458    7.776105 C.ar      2 APM2       -0.033800 
     44 CE1         1.642180   -8.658764    7.791729 C.ar      2 APM2       -0.393400 
     45 CE2         3.007439   -6.697128    7.315718 C.ar      2 APM2       -0.182500 
     46 CZ          1.762280   -7.327256    7.365255 C.ar      2 APM2       -0.042400 
     47 CF          0.299910   -9.375547    7.772589 C.cat     2 APM2        1.104100 
     48 O           4.456320   -7.286009   11.150727 O.2       2 APM2       -0.606500 
     49 N           4.996296   -9.829445   11.210625 N.am      2 APM2       -1.149600 
     50 NG1        -0.684213   -8.936872    7.022609 N.pl3     2 APM2       -1.041200 
     51 NG2         0.101094  -10.447498    8.503442 N.pl3     2 APM2       -1.008900 
     52 H5          7.335559   -3.514535    9.728522 H         3 PYRROLIDINE    0.074500 
     53 H6          9.000866   -5.372701    8.681204 H         3 PYRROLIDINE    0.103600 
     54 H7          7.359248   -5.248067    7.969343 H         3 PYRROLIDINE    0.110800 
     55 H8          7.484006   -7.543148    8.504936 H         3 PYRROLIDINE    0.009600 
     56 H9          8.317203   -7.289225   10.082563 H         3 PYRROLIDINE    0.025900 
@<TRIPOS>BOND
     1   32    1 1    
     2   33    2 1    
     3   35    3 1    
     4   36    4 1    
     5   34    5 1    
     6    5    6 1    
     7    5    7 1    
     8   39    8 1    
     9   40    9 1    
    10   40   10 1    
    11   42   11 1    
    12   43   12 1    
    13   45   13 1    
    14   46   14 1    
    15   49   15 1    
    16   50   16 1    
    17   50   17 1    
    18   51   18 1    
    19   51   19 1    
    20   38   20 am   
    21   20   21 1    
    22   20   24 1    
    23   24   23 1    
    24   24   55 1    
    25   24   56 1    
    26   23   22 1    
    27   23   53 1    
    28   23   54 1    
    29   31   28 1    
    30   28   30 2    
    31   28   29 2    
    32   31   36 ar   
    33   32   31 ar   
    34   33   32 ar   
    35   34   33 ar   
    36    5   37 1    
    37   34   35 ar   
    38   35   36 ar   
    39   38   48 2    
    40   39   38 1    
    41   39   49 1    
    42   40   39 1    
    43   41   40 1    
    44   41   43 ar   
    45   42   41 ar   
    46   44   42 ar   
    47   47   44 1    
    48   44   46 ar   
    49   46   45 ar   
    50   45   43 ar   
    51   47   51 ar   
    52   47   50 ar   
    53   22   21 1    
    54   22   27 1    
    55   22   52 1    
    56   21   25 1    
    57   21   26 1    
    58   49   28 1    
@<TRIPOS>SUBSTRUCTURE
     1 TOS1       28 GROUP             0 I     ****    1  
     2 APM2       38 GROUP             0 I     ****    2 ROOT 
     3 PYRROLIDINE    20 PERM              0 ****  ****    1  
@<TRIPOS>SET
UNK_ATOMS       STATIC     ATOMS    AMSOM    **** 
30 28 29 30 31 32 33 34 35 36 0 38 39 40 41 42 43 44 45 46 \
 47 48 49 50 51 0 0 0 0 0 0
@<TRIPOS>NORMAL
@<TRIPOS>FF_PBC
FORCE_FIELD_SETUP_FEATURE Force Field Setup information
v1.0  0 0.000000 0.000000 0.000000 0.000000 0.000000 0.000000 NONE 0 0 0 0 0 0 0 0 0 0 0 0 0
