#	Name:			47
#	Creating user name:	jeff
#	Creation time:		Fri Dec 13 10:09:47 2002

#	Modifying user name:	jeff
#	Modification time:	Fri Dec 13 10:09:51 2002

@<TRIPOS>MOLECULE
47
   71    74     5     1     2
SMALL
USER_CHARGES


@<TRIPOS>ATOM
      1 C1          3.903018   -6.363593   15.290377 C.ar      4 NAPHTHALENE   -0.272300 
      2 C2          4.073186   -5.148805   15.959632 C.ar      4 NAPHTHALENE   -0.107700 
      3 C3          5.342240   -4.570271   16.040239 C.ar      4 NAPHTHALENE   -0.079700 
      4 C4          6.437824   -5.207568   15.452412 C.ar      4 NAPHTHALENE   -0.285100 
      5 ****        6.787749   -9.334415   10.366329 H         2 APM2        0.185600 
      6 ****        5.259551  -10.519553    8.622075 H         2 APM2        0.205100 
      7 ****        6.160513   -9.122703    8.010904 H         2 APM2        0.175800 
      8 ****        2.775183  -10.427984    8.525890 H         2 APM2        0.212000 
      9 ****        5.066858   -6.913119    7.695301 H         2 APM2        0.197700 
     10 ****        3.017194   -5.691461    7.081954 H         2 APM2        0.202200 
     11 ****        0.821521   -6.797247    7.266841 H         2 APM2        0.163500 
     12 ****        3.970950   -9.924219   10.953336 H         2 APM2        0.380600 
     13 ****       -1.602376   -9.381890    7.082521 H         2 APM2        0.570500 
     14 ****       -0.542716   -8.069940    6.548570 H         2 APM2        0.555700 
     15 ****        0.886165  -10.913570    9.080813 H         2 APM2        0.539400 
     16 ****       -0.775272  -11.025816    8.481215 H         2 APM2        0.573400 
     17 C           7.587587   -6.050336    8.044586 C.2       5 CO2         1.055600 
     18 ****        7.794168   -7.753459    9.211797 H         3 PIP3        0.094200 
     19 ****        9.655122   -6.241336    9.783888 H         3 PIP3        0.082200 
     20 ****        8.732583   -6.738581   11.228139 H         3 PIP3        0.091300 
     21 ****        8.396026   -4.056008    9.726361 H         3 PIP3        0.061200 
     22 ****        9.221845   -4.285972   11.290244 H         3 PIP3        0.083300 
     23 ****        6.873223   -3.478500   11.603237 H         3 PIP3        0.074500 
     24 ****        7.141712   -5.073292   12.350153 H         3 PIP3        0.069000 
     25 C25         4.578213   -4.948347   11.407199 C.3       3 PIP3       -0.469600 
     26 ****        5.743446   -4.529729    9.689848 H         3 PIP3        0.045500 
     27 S           5.675573  -10.423357   12.611098 S.o2      1 TOS1        2.260200 
     28 O1          6.962837  -11.021983   12.315268 O.2       1 TOS1       -0.928900 
     29 O2          4.680438  -11.190154   13.335111 O.2       1 TOS1       -0.959000 
     30 C5          7.364377   -7.074102   14.193301 C.ar      4 NAPHTHALENE   -0.273600 
     31 C6          7.189331   -8.285535   13.518489 C.ar      4 NAPHTHALENE   -0.097800 
     32 C7          5.923539   -8.874347   13.451173 C.ar      4 NAPHTHALENE   -0.447900 
     33 C8          4.830975   -8.223005   14.028123 C.ar      4 NAPHTHALENE   -0.218700 
     34 C9          4.998910   -7.006007   14.701168 C.ar      4 NAPHTHALENE    0.206700 
     35 C10         6.271445   -6.427623   14.783426 C.ar      4 NAPHTHALENE    0.179400 
     36 H1          2.911200   -6.801449   15.233848 H         4 NAPHTHALENE    0.193800 
     37 C           5.472107   -7.591877   10.460929 C.2       2 APM2        0.568000 
     38 CA          5.745043   -9.051784   10.157171 C.3       2 APM2        0.189200 
     39 CB          5.355253   -9.424792    8.697734 C.3       2 APM2       -0.583000 
     40 CG          4.057169   -8.733105    8.233261 C.ar      2 APM2        0.246900 
     41 CD1         2.816985   -9.385057    8.234827 C.ar      2 APM2       -0.173100 
     42 CD2         4.114401   -7.412658    7.776634 C.ar      2 APM2       -0.047400 
     43 CE1         1.645019   -8.715396    7.852428 C.ar      2 APM2       -0.363700 
     44 CE2         2.956137   -6.722899    7.416926 C.ar      2 APM2       -0.175000 
     45 CZ          1.718798   -7.365227    7.490172 C.ar      2 APM2       -0.066700 
     46 CF          0.301465   -9.424319    7.819562 C.cat     2 APM2        1.124900 
     47 O           4.408793   -7.473559   11.044783 O.2       2 APM2       -0.586800 
     48 N           4.957827   -9.840734   11.100062 N.am      2 APM2       -0.920300 
     49 NG1        -0.678563   -8.924035    7.108334 N.pl3     2 APM2       -1.050900 
     50 NG2         0.127917  -10.528240    8.500787 N.pl3     2 APM2       -1.006900 
     51 N1          6.269546   -6.519117   10.144295 N.am      3 PIP3       -0.477200 
     52 C2          7.539123   -6.705809    9.411002 C.3       3 PIP3       -0.221500 
     53 C3          8.682979   -6.150698   10.296403 C.3       3 PIP3       -0.079900 
     54 C4          8.412814   -4.666924   10.643742 C.3       3 PIP3       -0.144400 
     55 C5          7.061766   -4.543958   11.389914 C.3       3 PIP3       -0.146300 
     56 C6          5.883954   -5.156748   10.581871 C.3       3 PIP3        0.388000 
     57 ****        4.429173   -3.888738   11.665544 H         3 PIP3        0.132500 
     58 ****        4.636140   -5.509056   12.352142 H         3 PIP3        0.122200 
     59 ****        3.692261   -5.264349   10.833256 H         3 PIP3        0.128500 
     60 H2          3.220784   -4.655118   16.416479 H         4 NAPHTHALENE    0.163900 
     61 H3          5.475365   -3.626011   16.559834 H         4 NAPHTHALENE    0.167700 
     62 H4          7.417684   -4.745007   15.520691 H         4 NAPHTHALENE    0.192500 
     63 H5          8.357873   -6.639567   14.252809 H         4 NAPHTHALENE    0.210500 
     64 H6          8.040051   -8.767916   13.049860 H         4 NAPHTHALENE    0.188400 
     65 H8          3.847901   -8.674103   13.948482 H         4 NAPHTHALENE    0.224500 
     66 O           6.790230   -5.192121    7.703132 O.2       5 CO2        -0.661700 
     67 O           8.577795   -6.494977    7.249908 O.3       5 CO2        -0.500000 
     68 ****        8.627358   -5.943250    5.913570 C.3       5 CO2        -0.023400 
     69 ****        9.603423   -5.451965    5.788142 H         5 CO2         0.092100 
     70 ****        7.844314   -5.225141    5.624213 H         5 CO2         0.058700 
     71 ****        8.578174   -6.790910    5.214247 H         5 CO2         0.133400 
@<TRIPOS>BOND
     1   27   32 1    
     2   30   31 ar   
     3   30   35 ar   
     4   30   63 1    
     5   35    4 ar   
     6   35   34 ar   
     7   34    1 ar   
     8   38    5 1    
     9   39    6 1    
    10   39    7 1    
    11   41    8 1    
    12   42    9 1    
    13   44   10 1    
    14   45   11 1    
    15   48   12 1    
    16   49   13 1    
    17   49   14 1    
    18   50   15 1    
    19   50   16 1    
    20   17   66 2    
    21   52   18 1    
    22   53   19 1    
    23   53   20 1    
    24   54   21 1    
    25   54   22 1    
    26   55   23 1    
    27   55   24 1    
    28   56   25 1    
    29   56   26 1    
    30   34   33 ar   
    31   27   29 2    
    32   27   28 2    
    33   33   32 ar   
    34   33   65 1    
    35   32   31 ar   
    36   31   64 1    
    37    1    2 ar   
    38    1   36 1    
    39   37   47 2    
    40   38   37 1    
    41   38   48 1    
    42   39   38 1    
    43   40   39 1    
    44   40   42 ar   
    45   41   40 ar   
    46   43   41 ar   
    47   46   43 1    
    48   43   45 ar   
    49   45   44 ar   
    50   44   42 ar   
    51   46   50 ar   
    52   46   49 ar   
    53   51   56 1    
    54   52   51 1    
    55   53   52 1    
    56   54   53 1    
    57   54   55 1    
    58   55   56 1    
    59   37   51 am   
    60   48   27 1    
    61   25   57 1    
    62   25   58 1    
    63   25   59 1    
    64    2    3 ar   
    65    2   60 1    
    66    3    4 ar   
    67    3   61 1    
    68    4   62 1    
    69   17   67 1    
    70   52   17 1    
    71   67   68 1    
    72   68   69 1    
    73   68   70 1    
    74   68   71 1    
@<TRIPOS>SUBSTRUCTURE
     1 TOS1       27 GROUP             0 I     ****    2  
     2 APM2       37 GROUP             0 I     ****    2 ROOT 
     3 PIP3       51 GROUP             0 I     ****    2  
     4 NAPHTHALENE    30 PERM              0 ****  ****    1  
     5 CO2        17 PERM              0 ****  ****    1  
@<TRIPOS>SET
UNK_ATOMS       STATIC     ATOMS    AMSOM    **** 
30 27 28 29 0 0 0 0 0 0 0 37 38 39 40 41 42 43 44 45 \
 46 47 48 49 50 51 52 53 54 55 56
LAB$B_TYPE      STATIC     BONDS    LABELGROUP SYSTEM 
0
@<TRIPOS>NORMAL
@<TRIPOS>FF_PBC
FORCE_FIELD_SETUP_FEATURE Force Field Setup information
v1.0  0 0.000000 0.000000 0.000000 0.000000 0.000000 0.000000 NONE 0 0 0 0 0 0 0 0 0 0 0 0 0
