#	Name:			48
#	Creating user name:	jeff
#	Creation time:		Fri Dec 13 10:09:52 2002

#	Modifying user name:	jeff
#	Modification time:	Fri Dec 13 10:09:55 2002

@<TRIPOS>MOLECULE
48
   62    65     4     1     4
SMALL
USER_CHARGES


@<TRIPOS>ATOM
      1 C1          3.900149   -6.364532   15.296809 C.ar      4 NAPHTHALENE   -0.238400 
      2 C2          4.067942   -5.148847   15.966390 C.ar      4 NAPHTHALENE   -0.120600 
      3 C3          5.336516   -4.569558   16.048283 C.ar      4 NAPHTHALENE   -0.074700 
      4 C4          6.433400   -5.204519   15.461499 C.ar      4 NAPHTHALENE   -0.335300 
      5 ****        6.719239   -9.380030   10.429494 H         2 APM2        0.078700 
      6 ****        5.245690  -10.504003    8.643696 H         2 APM2        0.169800 
      7 ****        6.169361   -9.112494    8.064877 H         2 APM2        0.096800 
      8 ****        2.798347  -10.392802    8.509482 H         2 APM2        0.206800 
      9 ****        5.098941   -6.860740    7.731010 H         2 APM2        0.164900 
     10 ****        3.063338   -5.663944    7.053786 H         2 APM2        0.213300 
     11 ****        0.866368   -6.760715    7.217421 H         2 APM2        0.168700 
     12 ****        3.921072   -9.946454   11.005572 H         2 APM2        0.407100 
     13 ****       -1.575483   -9.364202    7.065699 H         2 APM2        0.576300 
     14 ****       -0.522140   -8.055245    6.515534 H         2 APM2        0.550100 
     15 ****        0.905802  -10.868628    9.083581 H         2 APM2        0.536300 
     16 ****       -0.750155  -10.987496    8.474596 H         2 APM2        0.579100 
     17 N1          8.355148   -4.704744    9.978298 N.4       3 PIPERAZINE   -0.317600 
     18 C1          7.186226   -4.442334   10.844009 C.3       3 PIPERAZINE    0.091000 
     19 C2          5.961619   -5.214631   10.300169 C.3       3 PIPERAZINE   -0.030400 
     20 N2          6.330838   -6.617686   10.075817 N.am      3 PIPERAZINE   -0.396000 
     21 C3          7.549088   -6.926575    9.314078 C.3       3 PIPERAZINE   -0.171200 
     22 C4          8.727735   -6.131951    9.913469 C.3       3 PIPERAZINE    0.136400 
     23 H1          9.201698   -4.113513   10.296112 H         3 PIPERAZINE    0.411300 
     24 H2          6.970720   -3.358589   10.858140 H         3 PIPERAZINE    0.137800 
     25 H3          7.401164   -4.766453   11.876131 H         3 PIPERAZINE    0.112200 
     26 S           5.661238  -10.428017   12.640296 S.o2      1 TOS1        2.284400 
     27 O1          6.947321  -11.019395   12.320613 O.2       1 TOS1       -0.900400 
     28 O2          4.685162  -11.202059   13.380284 O.2       1 TOS1       -0.905100 
     29 C5          7.362717   -7.068736   14.200181 C.ar      4 NAPHTHALENE   -0.318800 
     30 C6          7.191464   -8.289352   13.538473 C.ar      4 NAPHTHALENE   -0.066000 
     31 C7          5.924704   -8.877590   13.471795 C.ar      4 NAPHTHALENE   -0.488000 
     32 C8          4.831324   -8.224789   14.042398 C.ar      4 NAPHTHALENE   -0.204400 
     33 C9          4.997096   -7.003989   14.709869 C.ar      4 NAPHTHALENE    0.157600 
     34 C10         6.269747   -6.424407   14.789711 C.ar      4 NAPHTHALENE    0.218400 
     35 H1          2.909029   -6.804323   15.240079 H         4 NAPHTHALENE    0.199800 
     36 C           5.477953   -7.595581   10.494383 C.2       2 APM2        0.461000 
     37 CA          5.690420   -9.066272   10.211002 C.3       2 APM2        0.356400 
     38 CB          5.347889   -9.411554    8.733604 C.3       2 APM2       -0.376400 
     39 CG          4.076131   -8.695319    8.243401 C.ar      2 APM2        0.116200 
     40 CD1         2.838223   -9.348082    8.224853 C.ar      2 APM2       -0.110500 
     41 CD2         4.148507   -7.373136    7.790041 C.ar      2 APM2       -0.027100 
     42 CE1         1.669861   -8.678698    7.832293 C.ar      2 APM2       -0.352500 
     43 CE2         2.995310   -6.690962    7.400691 C.ar      2 APM2       -0.205800 
     44 CZ          1.756229   -7.331481    7.459758 C.ar      2 APM2       -0.011900 
     45 CF          0.327971   -9.390296    7.803635 C.cat     2 APM2        1.062600 
     46 O           4.462199   -7.332671   11.119801 O.2       2 APM2       -0.524200 
     47 N           4.904278   -9.840437   11.158237 N.am      2 APM2       -1.035400 
     48 NG1        -0.653753   -8.902439    7.085804 N.pl3     2 APM2       -1.003900 
     49 NG2         0.151948  -10.488476    8.494871 N.pl3     2 APM2       -0.985000 
     50 H4          5.663425   -4.779365    9.332451 H         3 PIPERAZINE    0.108500 
     51 H5          5.129896   -5.057061   11.005566 H         3 PIPERAZINE    0.172600 
     52 H7          7.405979   -6.618802    8.267027 H         3 PIPERAZINE    0.153200 
     53 H8          7.897911   -7.963820    9.304497 H         3 PIPERAZINE    0.202000 
     54 H9          9.619724   -6.265779    9.274617 H         3 PIPERAZINE    0.137000 
     55 H10         8.962687   -6.510207   10.923025 H         3 PIPERAZINE    0.118400 
     56 H2          3.214291   -4.656690   16.421738 H         4 NAPHTHALENE    0.184700 
     57 H3          5.467835   -3.625447   16.568907 H         4 NAPHTHALENE    0.186400 
     58 H4          7.413112   -4.742285   15.532816 H         4 NAPHTHALENE    0.200800 
     59 H5          8.354353   -6.628534   14.252117 H         4 NAPHTHALENE    0.208700 
     60 H6          8.045569   -8.776116   13.080414 H         4 NAPHTHALENE    0.199200 
     61 H8          3.849319   -8.677825   13.961649 H         4 NAPHTHALENE    0.233100 
     62 ****        8.122999   -4.370430    8.977865 H         3 PIPERAZINE    0.445700 
@<TRIPOS>BOND
     1   26   31 1    
     2   29   30 ar   
     3   29   34 ar   
     4   29   59 1    
     5   34    4 ar   
     6   34   33 ar   
     7   33    1 ar   
     8   37    5 1    
     9   38    6 1    
    10   38    7 1    
    11   40    8 1    
    12   41    9 1    
    13   43   10 1    
    14   44   11 1    
    15   47   12 1    
    16   48   13 1    
    17   48   14 1    
    18   49   15 1    
    19   49   16 1    
    20   36   20 am   
    21   17   18 1    
    22   17   22 1    
    23   17   23 1    
    24   22   21 1    
    25   22   54 1    
    26   22   55 1    
    27   21   20 1    
    28   21   52 1    
    29   21   53 1    
    30   33   32 ar   
    31   26   28 2    
    32   26   27 2    
    33   32   31 ar   
    34   32   61 1    
    35   31   30 ar   
    36   30   60 1    
    37    1    2 ar   
    38    1   35 1    
    39   36   46 2    
    40   37   36 1    
    41   37   47 1    
    42   38   37 1    
    43   39   38 1    
    44   39   41 ar   
    45   40   39 ar   
    46   42   40 ar   
    47   45   42 1    
    48   42   44 ar   
    49   44   43 ar   
    50   43   41 ar   
    51   45   49 ar   
    52   45   48 ar   
    53   20   19 1    
    54   19   18 1    
    55   19   50 1    
    56   19   51 1    
    57   18   24 1    
    58   18   25 1    
    59   47   26 1    
    60    2    3 ar   
    61    2   56 1    
    62    3    4 ar   
    63    3   57 1    
    64    4   58 1    
    65   17   62 1    
@<TRIPOS>SUBSTRUCTURE
     1 TOS1       26 GROUP             0 I     ****    2  
     2 APM2       36 GROUP             0 I     ****    2 ROOT 
     3 PIPERAZINE    17 PERM              0 ****  ****    1  
     4 NAPHTHALENE    29 PERM              0 ****  ****    1  
@<TRIPOS>SET
UNK_ATOMS       STATIC     ATOMS    AMSOM    **** 
30 26 27 28 0 0 0 0 0 0 0 36 37 38 39 40 41 42 43 44 \
 45 46 47 48 49 0 0 0 0 0 0
LAB$B_TYPE      STATIC     BONDS    LABELGROUP SYSTEM 
0
ATOM$WHITE      STATIC     ATOMS    COLORGROUP SYSTEM 
0
ATOM$BY_TYPE    STATIC     ATOMS    COLORGROUP SYSTEM 
62 1 2 3 4 5 6 7 8 9 10 11 12 13 14 15 16 17 18 19 \
 20 21 22 23 24 25 26 27 28 29 30 31 32 33 34 35 36 37 \
 38 39 40 41 42 43 44 45 46 47 48 49 50 51 52 53 54 55 \
 56 57 58 59 60 61 62
@<TRIPOS>NORMAL
@<TRIPOS>FF_PBC
FORCE_FIELD_SETUP_FEATURE Force Field Setup information
v1.0  0 0.000000 0.000000 0.000000 0.000000 0.000000 0.000000 NONE 0 0 0 0 0 0 0 0 0 0 0 0 0
