#	Name:			49
#	Creating user name:	jeff
#	Creation time:		Fri Dec 13 10:09:55 2002

#	Modifying user name:	jeff
#	Modification time:	Fri Dec 13 10:09:59 2002

@<TRIPOS>MOLECULE
49
   74    77     5     1     2
SMALL
USER_CHARGES


@<TRIPOS>ATOM
      1 C1          3.902068   -6.366813   15.298376 C.ar      4 NAPHTHALENE   -0.251600 
      2 C2          4.068366   -5.150538   15.967586 C.ar      4 NAPHTHALENE   -0.120400 
      3 C3          5.336315   -4.570263   16.050686 C.ar      4 NAPHTHALENE   -0.069600 
      4 C4          6.434214   -5.205250   15.465600 C.ar      4 NAPHTHALENE   -0.306600 
      5 ****        6.769889   -9.305377   10.400499 H         2 APM2        0.097100 
      6 ****        5.248806  -10.492681    8.660104 H         2 APM2        0.171100 
      7 ****        6.165166   -9.114767    8.045415 H         2 APM2        0.134400 
      8 ****        2.846035  -10.381284    8.497271 H         2 APM2        0.209600 
      9 ****        5.114470   -6.857317    7.742513 H         2 APM2        0.181700 
     10 ****        3.072490   -5.666011    7.038759 H         2 APM2        0.199800 
     11 ****        0.906088   -6.721617    7.226474 H         2 APM2        0.162700 
     12 ****        3.968410   -9.940029   10.989532 H         2 APM2        0.379500 
     13 ****       -1.588663   -9.373456    7.080120 H         2 APM2        0.569400 
     14 ****       -0.567459   -8.075139    6.502062 H         2 APM2        0.554400 
     15 ****        0.863936  -10.890939    9.085391 H         2 APM2        0.539300 
     16 ****       -0.766369  -10.987968    8.454267 H         2 APM2        0.572100 
     17 ****        7.547143   -6.212077    8.444959 H         3 PIP3        0.149400 
     18 ****        7.801740   -7.810251    9.136551 H         3 PIP3        0.133400 
     19 ****        9.202350   -4.338914   11.290172 H         3 PIP3        0.095000 
     20 ****        8.703538   -6.789671   11.236270 H         3 PIP3        0.097300 
     21 ****        8.431981   -4.129135    9.692470 H         3 PIP3        0.127900 
     22 C22        11.804169   -7.836772    8.993932 C.3       5 CO2         0.610400 
     23 ****        6.828677   -3.486730   11.482082 H         3 PIP3        0.044700 
     24 ****        7.029328   -5.077426   12.268771 H         3 PIP3        0.008600 
     25 ****        4.948879   -5.048189   10.913659 H         3 PIP3        0.108800 
     26 ****        5.858513   -4.594117    9.461493 H         3 PIP3        0.103400 
     27 S           5.686712  -10.419077   12.628727 S.o2      1 TOS1        2.246400 
     28 O1          6.975432  -11.006679   12.314935 O.2       1 TOS1       -0.922500 
     29 O2          4.704259  -11.197255   13.357275 O.2       1 TOS1       -0.951900 
     30 C5          7.367122   -7.067457   14.206761 C.ar      4 NAPHTHALENE   -0.267200 
     31 C6          7.198231   -8.284126   13.538417 C.ar      4 NAPHTHALENE   -0.129500 
     32 C7          5.933138   -8.873651   13.470109 C.ar      4 NAPHTHALENE   -0.429500 
     33 C8          4.837097   -8.226498   14.043587 C.ar      4 NAPHTHALENE   -0.202600 
     34 C9          4.999665   -7.006209   14.712466 C.ar      4 NAPHTHALENE    0.175800 
     35 C10         6.272161   -6.425288   14.794695 C.ar      4 NAPHTHALENE    0.203600 
     36 H1          2.911050   -6.806900   15.241123 H         4 NAPHTHALENE    0.191300 
     37 C           5.481746   -7.562347   10.497050 C.2       2 APM2        0.583900 
     38 CA          5.725061   -9.027871   10.200430 C.3       2 APM2        0.317400 
     39 CB          5.356517   -9.398965    8.734072 C.3       2 APM2       -0.455800 
     40 CG          4.083777   -8.686206    8.243374 C.ar      2 APM2        0.194700 
     41 CD1         2.847328   -9.338140    8.217425 C.ar      2 APM2       -0.154900 
     42 CD2         4.161179   -7.366043    7.791932 C.ar      2 APM2       -0.057800 
     43 CE1         1.669304   -8.677477    7.829089 C.ar      2 APM2       -0.347500 
     44 CE2         3.008797   -6.689416    7.395250 C.ar      2 APM2       -0.166600 
     45 CZ          1.770918   -7.326873    7.461868 C.ar      2 APM2       -0.065100 
     46 CF          0.324009   -9.389037    7.800408 C.cat     2 APM2        1.093600 
     47 O           4.463699   -7.341757   11.134676 O.2       2 APM2       -0.615000 
     48 N           4.949748   -9.821656   11.145642 N.am      2 APM2       -0.965600 
     49 NG1        -0.670529   -8.911044    7.086815 N.pl3     2 APM2       -1.038700 
     50 NG2         0.133816  -10.492327    8.486689 N.pl3     2 APM2       -0.993900 
     51 N1          6.297777   -6.542470   10.097214 N.am      3 PIP3       -0.412500 
     52 C2          7.563030   -6.772826    9.392898 C.3       3 PIP3       -0.176400 
     53 C3          8.692928   -6.215020   10.294414 C.3       3 PIP3        0.038300 
     54 C4          8.413912   -4.722596   10.621341 C.3       3 PIP3       -0.307200 
     55 C5          7.029436   -4.555787   11.299062 C.3       3 PIP3        0.105900 
     56 C6          5.919658   -5.160268   10.404797 C.3       3 PIP3       -0.089500 
     57 C57        12.852285   -8.242186   10.063570 C.3       5 CO2        -0.447700 
     58 ****       12.202967   -6.964406    8.447060 H         5 CO2         0.019400 
     59 C59        11.611554   -8.971775    7.955024 C.3       5 CO2        -0.504100 
     60 H2          3.214048   -4.658376   16.421801 H         4 NAPHTHALENE    0.165300 
     61 H3          5.466740   -3.625678   16.570587 H         4 NAPHTHALENE    0.166600 
     62 H4          7.413595   -4.742326   15.537269 H         4 NAPHTHALENE    0.196300 
     63 H5          8.358725   -6.628121   14.262356 H         4 NAPHTHALENE    0.210300 
     64 H6          8.051494   -8.767682   13.075809 H         4 NAPHTHALENE    0.197800 
     65 H8          3.856064   -8.682467   13.963970 H         4 NAPHTHALENE    0.224900 
     66 C          10.025064   -6.383996    9.603272 C.2       5 CO2         0.779000 
     67 O          10.563412   -5.434740    9.054564 O.2       5 CO2        -0.608400 
     68 O          10.528377   -7.630787    9.649562 O.3       5 CO2        -0.632800 
     69 ****       13.838059   -8.406262    9.599849 H         5 CO2         0.126900 
     70 ****       12.544130   -9.168883   10.571636 H         5 CO2         0.134000 
     71 ****       12.947567   -7.446050   10.818106 H         5 CO2         0.102800 
     72 ****       12.548580   -9.165112    7.409436 H         5 CO2         0.139000 
     73 ****       10.835365   -8.683515    7.228734 H         5 CO2         0.111100 
     74 ****       11.294090   -9.900562    8.453169 H         5 CO2         0.139200 
@<TRIPOS>BOND
     1   27   32 1    
     2   30   31 ar   
     3   30   35 ar   
     4   30   63 1    
     5   35    4 ar   
     6   35   34 ar   
     7   34    1 ar   
     8   38    5 1    
     9   39    6 1    
    10   39    7 1    
    11   41    8 1    
    12   42    9 1    
    13   44   10 1    
    14   45   11 1    
    15   48   12 1    
    16   49   13 1    
    17   49   14 1    
    18   50   15 1    
    19   50   16 1    
    20   52   17 1    
    21   52   18 1    
    22   53   66 1    
    23   53   20 1    
    24   54   21 1    
    25   54   19 1    
    26   55   23 1    
    27   55   24 1    
    28   56   25 1    
    29   56   26 1    
    30   34   33 ar   
    31   27   29 2    
    32   27   28 2    
    33   33   32 ar   
    34   33   65 1    
    35   32   31 ar   
    36   31   64 1    
    37    1    2 ar   
    38    1   36 1    
    39   37   47 2    
    40   38   37 1    
    41   38   48 1    
    42   39   38 1    
    43   40   39 1    
    44   40   42 ar   
    45   41   40 ar   
    46   43   41 ar   
    47   46   43 1    
    48   43   45 ar   
    49   45   44 ar   
    50   44   42 ar   
    51   46   50 ar   
    52   46   49 ar   
    53   51   56 1    
    54   52   51 1    
    55   53   52 1    
    56   54   53 1    
    57   54   55 1    
    58   55   56 1    
    59   37   51 am   
    60   48   27 1    
    61   68   22 1    
    62   22   57 1    
    63   22   58 1    
    64    2    3 ar   
    65    2   60 1    
    66    3    4 ar   
    67    3   61 1    
    68    4   62 1    
    69   22   59 1    
    70   66   67 2    
    71   66   68 1    
    72   57   69 1    
    73   57   70 1    
    74   57   71 1    
    75   59   72 1    
    76   59   73 1    
    77   59   74 1    
@<TRIPOS>SUBSTRUCTURE
     1 TOS1       27 GROUP             0 I     ****    2  
     2 APM2       37 GROUP             0 I     ****    2 ROOT 
     3 PIP3       51 GROUP             0 I     ****    2  
     4 NAPHTHALENE    30 PERM              0 ****  ****    1  
     5 CO2        66 PERM              0 ****  ****    1  
@<TRIPOS>SET
UNK_ATOMS       STATIC     ATOMS    AMSOM    **** 
30 27 28 29 0 0 0 0 0 0 0 37 38 39 40 41 42 43 44 45 \
 46 47 48 49 50 51 52 53 54 55 56
LAB$B_TYPE      STATIC     BONDS    LABELGROUP SYSTEM 
0
@<TRIPOS>NORMAL
@<TRIPOS>FF_PBC
FORCE_FIELD_SETUP_FEATURE Force Field Setup information
v1.0  0 0.000000 0.000000 0.000000 0.000000 0.000000 0.000000 NONE 0 0 0 0 0 0 0 0 0 0 0 0 0
