#	Name:			50
#	Creating user name:	jeff
#	Creation time:		Fri Dec 13 10:10:00 2002

#	Modifying user name:	jeff
#	Modification time:	Fri Dec 13 10:10:03 2002

@<TRIPOS>MOLECULE
50
   64    67     5     1     4
SMALL
USER_CHARGES


@<TRIPOS>ATOM
      1 C1          3.901171   -6.366581   15.304552 C.ar      4 NAPHTHALENE   -0.294300 
      2 C2          4.067122   -5.150355   15.971848 C.ar      4 NAPHTHALENE   -0.105500 
      3 C3          5.334227   -4.568333   16.056023 C.ar      4 NAPHTHALENE   -0.106800 
      4 C4          6.433377   -5.204423   15.472008 C.ar      4 NAPHTHALENE   -0.240900 
      5 ****        6.774671   -9.307366   10.397732 H         2 APM2        0.167900 
      6 ****        5.239580  -10.490259    8.664646 H         2 APM2        0.182100 
      7 ****        6.158253   -9.112551    8.052693 H         2 APM2        0.181500 
      8 ****        2.796068  -10.379002    8.516074 H         2 APM2        0.203700 
      9 ****        5.108364   -6.854528    7.745443 H         2 APM2        0.188700 
     10 ****        3.075016   -5.675116    7.003266 H         2 APM2        0.193700 
     11 ****        0.878228   -6.757066    7.175600 H         2 APM2        0.154900 
     12 ****        3.981435   -9.951913   11.009067 H         2 APM2        0.348500 
     13 ****       -1.584382   -9.373557    7.050906 H         2 APM2        0.557500 
     14 ****       -0.535410   -8.072152    6.481014 H         2 APM2        0.547700 
     15 ****        0.878738  -10.852202    9.094417 H         2 APM2        0.535900 
     16 ****       -0.769572  -10.972486    8.470937 H         2 APM2        0.564000 
     17 ****        7.547941   -6.225742    8.421638 H         3 PIP3        0.120200 
     18 ****        7.813222   -7.816968    9.131420 H         3 PIP3        0.044100 
     19 ****        9.663987   -6.308511    9.772115 H         3 PIP3        0.041600 
     20 ****        8.716560   -6.809295   11.203758 H         3 PIP3        0.010000 
     21 ****        8.447853   -4.133134    9.688562 H         3 PIP3        0.053200 
     22 C           9.476954   -4.238220   11.577611 C.2       5 CO2         0.751300 
     23 ****        6.820520   -3.491461   11.463833 H         3 PIP3        0.058100 
     24 ****        7.003036   -5.089102   12.242783 H         3 PIP3        0.032300 
     25 ****        4.945822   -5.050650   10.885611 H         3 PIP3        0.088400 
     26 ****        5.858399   -4.600411    9.433335 H         3 PIP3        0.107300 
     27 S           5.704429  -10.416952   12.632630 S.o2      1 TOS1        2.268500 
     28 O1          6.998615  -10.990870   12.315513 O.2       1 TOS1       -0.957200 
     29 O2          4.733342  -11.207272   13.363281 O.2       1 TOS1       -1.009800 
     30 C5          7.369514   -7.067673   14.221036 C.ar      4 NAPHTHALENE   -0.257700 
     31 C6          7.203100   -8.282215   13.551527 C.ar      4 NAPHTHALENE   -0.094100 
     32 C7          5.939114   -8.872963   13.478398 C.ar      4 NAPHTHALENE   -0.487600 
     33 C8          4.840084   -8.227498   14.051380 C.ar      4 NAPHTHALENE   -0.176500 
     34 C9          5.000258   -7.008054   14.719142 C.ar      4 NAPHTHALENE    0.125700 
     35 C10         6.271200   -6.424083   14.804714 C.ar      4 NAPHTHALENE    0.241200 
     36 H1          2.910700   -6.807556   15.246717 H         4 NAPHTHALENE    0.174100 
     37 C           5.488050   -7.565214   10.497216 C.2       2 APM2        0.784200 
     38 CA          5.727708   -9.031734   10.206258 C.3       2 APM2        0.209500 
     39 CB          5.348404   -9.397142    8.740480 C.3       2 APM2       -0.542000 
     40 CG          4.073940   -8.685719    8.246806 C.ar      2 APM2        0.210700 
     41 CD1         2.833803   -9.336692    8.224137 C.ar      2 APM2       -0.125800 
     42 CD2         4.153849   -7.366478    7.787613 C.ar      2 APM2       -0.055300 
     43 CE1         1.664958   -8.674396    7.818418 C.ar      2 APM2       -0.369100 
     44 CE2         3.003514   -6.694289    7.371644 C.ar      2 APM2       -0.174600 
     45 CZ          1.762031   -7.331388    7.430622 C.ar      2 APM2       -0.076700 
     46 CF          0.319858   -9.384610    7.791564 C.cat     2 APM2        1.090300 
     47 O           4.476846   -7.342002   11.144657 O.2       2 APM2       -0.684400 
     48 N           4.962631   -9.826815   11.160045 N.am      2 APM2       -0.896000 
     49 NG1        -0.663005   -8.909947    7.064814 N.pl3     2 APM2       -1.044300 
     50 NG2         0.133630  -10.474987    8.493962 N.pl3     2 APM2       -0.973900 
     51 N1          6.298535   -6.547157   10.081057 N.am      3 PIP3       -0.595000 
     52 C2          7.562661   -6.778358    9.374122 C.3       3 PIP3       -0.077200 
     53 C3          8.687102   -6.214849   10.276172 C.3       3 PIP3        0.066800 
     54 C4          8.417141   -4.726048   10.619967 C.3       3 PIP3       -0.191600 
     55 C5          7.021671   -4.559792   11.277542 C.3       3 PIP3        0.030900 
     56 C6          5.917345   -5.163832   10.378164 C.3       3 PIP3       -0.080900 
     57 O           9.571877   -4.813895   12.695306 O.co2     5 CO2        -0.980600 
     58 O          10.220879   -3.282576   11.228435 O.co2     5 CO2        -0.945300 
     59 H2          3.212369   -4.657349   16.425201 H         4 NAPHTHALENE    0.145000 
     60 H3          5.464502   -3.623475   16.574648 H         4 NAPHTHALENE    0.163300 
     61 H4          7.412453   -4.740406   15.543509 H         4 NAPHTHALENE    0.238300 
     62 H5          8.360442   -6.629583   14.283656 H         4 NAPHTHALENE    0.289400 
     63 H6          8.058581   -8.764746   13.091379 H         4 NAPHTHALENE    0.170100 
     64 H8          3.860359   -8.686597   13.970669 H         4 NAPHTHALENE    0.202300 
@<TRIPOS>BOND
     1   27   32 1    
     2   30   31 ar   
     3   30   35 ar   
     4   30   62 1    
     5   35    4 ar   
     6   35   34 ar   
     7   34    1 ar   
     8   38    5 1    
     9   39    6 1    
    10   39    7 1    
    11   41    8 1    
    12   42    9 1    
    13   44   10 1    
    14   45   11 1    
    15   48   12 1    
    16   49   13 1    
    17   49   14 1    
    18   50   15 1    
    19   50   16 1    
    20   52   17 1    
    21   52   18 1    
    22   53   19 1    
    23   53   20 1    
    24   54   21 1    
    25   22   57 ar   
    26   55   23 1    
    27   55   24 1    
    28   56   25 1    
    29   56   26 1    
    30   34   33 ar   
    31   27   29 2    
    32   27   28 2    
    33   33   32 ar   
    34   33   64 1    
    35   32   31 ar   
    36   31   63 1    
    37    1    2 ar   
    38    1   36 1    
    39   37   47 2    
    40   38   37 1    
    41   38   48 1    
    42   39   38 1    
    43   40   39 1    
    44   40   42 ar   
    45   41   40 ar   
    46   43   41 ar   
    47   46   43 1    
    48   43   45 ar   
    49   45   44 ar   
    50   44   42 ar   
    51   46   50 ar   
    52   46   49 ar   
    53   51   56 1    
    54   52   51 1    
    55   53   52 1    
    56   54   53 1    
    57   54   55 1    
    58   55   56 1    
    59   37   51 am   
    60   48   27 1    
    61   22   58 ar   
    62   54   22 1    
    63    2    3 ar   
    64    2   59 1    
    65    3    4 ar   
    66    3   60 1    
    67    4   61 1    
@<TRIPOS>SUBSTRUCTURE
     1 TOS1       27 GROUP             0 I     ****    2  
     2 APM2       37 GROUP             0 I     ****    2 ROOT 
     3 PIP3       51 GROUP             0 I     ****    2  
     4 NAPHTHALENE    30 PERM              0 ****  ****    1  
     5 CO2        22 PERM              0 ****  ****    1  
@<TRIPOS>SET
UNK_ATOMS       STATIC     ATOMS    AMSOM    **** 
30 27 28 29 0 0 0 0 0 0 0 37 38 39 40 41 42 43 44 45 \
 46 47 48 49 50 51 52 53 54 55 56
LAB$B_TYPE      STATIC     BONDS    LABELGROUP SYSTEM 
0
ATOM$WHITE      STATIC     ATOMS    COLORGROUP SYSTEM 
0
ATOM$BY_TYPE    STATIC     ATOMS    COLORGROUP SYSTEM 
64 1 2 3 4 5 6 7 8 9 10 11 12 13 14 15 16 17 18 19 \
 20 21 22 23 24 25 26 27 28 29 30 31 32 33 34 35 36 37 \
 38 39 40 41 42 43 44 45 46 47 48 49 50 51 52 53 54 55 \
 56 57 58 59 60 61 62 63 64
@<TRIPOS>NORMAL
@<TRIPOS>FF_PBC
FORCE_FIELD_SETUP_FEATURE Force Field Setup information
v1.0  0 0.000000 0.000000 0.000000 0.000000 0.000000 0.000000 NONE 0 0 0 0 0 0 0 0 0 0 0 0 0
