#	Name:			51
#	Creating user name:	jeff
#	Creation time:		Fri Dec 13 10:10:03 2002

#	Modifying user name:	jeff
#	Modification time:	Fri Dec 13 10:10:08 2002

@<TRIPOS>MOLECULE
51
   75    79     6     1     2
SMALL
USER_CHARGES


@<TRIPOS>ATOM
      1 C1          3.892184   -6.355588   15.304276 C.ar      4 NAPHTHALENE   -0.266100 
      2 C2          4.061751   -5.141463   15.973350 C.ar      4 NAPHTHALENE   -0.115100 
      3 C3          5.329991   -4.562315   16.054712 C.ar      4 NAPHTHALENE   -0.061400 
      4 C4          6.427068   -5.200864   15.466606 C.ar      4 NAPHTHALENE   -0.292800 
      5 ****        6.638371   -9.478583   10.248866 H         2 APM2        0.031200 
      6 ****        5.064459  -10.569496    8.621238 H         2 APM2        0.205300 
      7 ****        6.042283   -9.259539    7.980438 H         2 APM2        0.232600 
      8 ****        2.699747  -10.395216    8.458362 H         2 APM2        0.203900 
      9 ****        5.079800   -6.902248    7.727328 H         2 APM2        0.210200 
     10 ****        3.058374   -5.663184    7.030694 H         2 APM2        0.189100 
     11 ****        0.837751   -6.723362    7.185389 H         2 APM2        0.168200 
     12 ****        3.860034   -9.943381   11.033463 H         2 APM2        0.376100 
     13 ****       -1.634341   -9.360138    7.052054 H         2 APM2        0.567200 
     14 ****       -0.585117   -8.044128    6.506534 H         2 APM2        0.550900 
     15 ****        0.862138  -10.856244    9.067425 H         2 APM2        0.537900 
     16 ****       -0.789335  -10.992513    8.454617 H         2 APM2        0.565600 
     17 C           8.643825   -7.491524   10.276281 C.2       5 CO2         1.030200 
     18 N1          6.375053   -6.653906   10.085859 N.am      3 PYRROLIDINE   -0.299100 
     19 C1          6.083961   -5.261770   10.411414 C.3       3 PYRROLIDINE   -0.127300 
     20 C2          7.417422   -4.576081   10.037459 C.3       3 PYRROLIDINE   -0.062200 
     21 C3          7.920462   -5.463607    8.876120 C.3       3 PYRROLIDINE   -0.290600 
     22 C4          7.605976   -6.915085    9.344194 C.3       3 PYRROLIDINE    0.023300 
     23 O           8.579395   -7.266229   11.472626 O.2       5 CO2        -0.662300 
     24 H2          5.827748   -5.099791   11.470084 H         3 PYRROLIDINE    0.128500 
     25 H3          5.267707   -4.896351    9.766020 H         3 PYRROLIDINE    0.125900 
     26 H4          8.126340   -4.640964   10.879434 H         3 PYRROLIDINE    0.084900 
     27 S           5.645382  -10.405303   12.607987 S.o2      1 TOS1        2.218900 
     28 O1          6.927478  -10.975719   12.239569 O.2       1 TOS1       -0.925600 
     29 O2          4.710291  -11.204415   13.374753 O.2       1 TOS1       -0.977700 
     30 C5          7.356519   -7.078423   14.223268 C.ar      4 NAPHTHALENE   -0.256200 
     31 C6          7.186016   -8.321162   13.606646 C.ar      4 NAPHTHALENE   -0.159700 
     32 C7          5.911505   -8.878003   13.481364 C.ar      4 NAPHTHALENE   -0.391100 
     33 C8          4.817827   -8.212922   14.041926 C.ar      4 NAPHTHALENE   -0.187600 
     34 C9          4.988421   -6.998799   14.714240 C.ar      4 NAPHTHALENE    0.160600 
     35 C10         6.262347   -6.420641   14.801323 C.ar      4 NAPHTHALENE    0.216100 
     36 H1          2.901169   -6.795045   15.247793 H         4 NAPHTHALENE    0.191800 
     37 C           5.494292   -7.623690   10.462024 C.2       2 APM2        0.308200 
     38 CA          5.613840   -9.105288   10.142661 C.3       2 APM2        0.558200 
     39 CB          5.229308   -9.482305    8.684889 C.3       2 APM2       -0.706900 
     40 CG          3.998671   -8.713112    8.205090 C.ar      2 APM2        0.265800 
     41 CD1         2.753377   -9.347739    8.186029 C.ar      2 APM2       -0.140700 
     42 CD2         4.111015   -7.389349    7.768732 C.ar      2 APM2       -0.120200 
     43 CE1         1.602791   -8.654180    7.804284 C.ar      2 APM2       -0.348600 
     44 CE2         2.969720   -6.688638    7.377397 C.ar      2 APM2       -0.137500 
     45 CZ          1.716383   -7.308392    7.432546 C.ar      2 APM2       -0.085900 
     46 CF          0.266192   -9.378419    7.789197 C.cat     2 APM2        1.075600 
     47 O           4.506367   -7.312039   11.109091 O.2       2 APM2       -0.566400 
     48 N           4.849802   -9.838914   11.148457 N.am      2 APM2       -0.935600 
     49 NG1        -0.715495   -8.893321    7.074158 N.pl3     2 APM2       -1.034000 
     50 NG2         0.105301  -10.480773    8.478535 N.pl3     2 APM2       -0.967200 
     51 H5          7.291796   -3.514031    9.764348 H         3 PYRROLIDINE    0.092400 
     52 H6          8.978422   -5.282175    8.629267 H         3 PYRROLIDINE    0.123000 
     53 H7          7.309607   -5.217990    7.988558 H         3 PYRROLIDINE    0.141100 
     54 H8          7.469343   -7.561698    8.470621 H         3 PYRROLIDINE    0.053200 
     55 C1         10.509759   -8.743100   10.785542 C.3       6 BENZYL     -0.013700 
     56 O           9.616535   -8.257299    9.759095 O.3       5 CO2        -0.527600 
     57 C2         11.559356   -9.648256   10.145993 C.ar      6 BENZYL      0.058600 
     58 C3         12.754487   -9.101141    9.668848 C.ar      6 BENZYL     -0.211800 
     59 C4         13.742496   -9.936138    9.141330 C.ar      6 BENZYL     -0.145800 
     60 H2          3.208555   -4.648036   16.429932 H         4 NAPHTHALENE    0.161100 
     61 H3          5.462771   -3.618463   16.574501 H         4 NAPHTHALENE    0.159500 
     62 H4          7.406356   -4.736983   15.536782 H         4 NAPHTHALENE    0.197100 
     63 H5          8.345515   -6.630250   14.253515 H         4 NAPHTHALENE    0.221200 
     64 H6          8.047025   -8.859561   13.228237 H         4 NAPHTHALENE    0.207600 
     65 H8          3.833675   -8.658701   13.949406 H         4 NAPHTHALENE    0.207700 
     66 C5         13.527110  -11.315300    9.066034 C.ar      6 BENZYL     -0.086900 
     67 C6         12.319510  -11.858575    9.513683 C.ar      6 BENZYL     -0.156000 
     68 C7         11.330910  -11.024540   10.041877 C.ar      6 BENZYL     -0.192300 
     69 ****       11.010802   -7.902855   11.297368 H         6 BENZYL      0.110400 
     70 ****        9.960646   -9.325450   11.545057 H         6 BENZYL      0.093000 
     71 ****       12.916598   -8.028060    9.707348 H         6 BENZYL      0.185300 
     72 ****       14.677492   -9.512055    8.790460 H         6 BENZYL      0.155900 
     73 ****       14.296545  -11.963874    8.659207 H         6 BENZYL      0.145000 
     74 ****       12.148704  -12.928475    9.451722 H         6 BENZYL      0.153700 
     75 ****       10.386748  -11.449152   10.370296 H         6 BENZYL      0.181900 
@<TRIPOS>BOND
     1   27   32 1    
     2   30   31 ar   
     3   30   35 ar   
     4   30   63 1    
     5   35    4 ar   
     6   35   34 ar   
     7   34    1 ar   
     8   38    5 1    
     9   39    6 1    
    10   39    7 1    
    11   41    8 1    
    12   42    9 1    
    13   44   10 1    
    14   45   11 1    
    15   48   12 1    
    16   49   13 1    
    17   49   14 1    
    18   50   15 1    
    19   50   16 1    
    20   37   18 am   
    21   18   19 1    
    22   18   22 1    
    23   17   23 2    
    24   22   21 1    
    25   22   54 1    
    26   22   17 1    
    27   21   20 1    
    28   21   52 1    
    29   21   53 1    
    30   34   33 ar   
    31   27   29 2    
    32   27   28 2    
    33   33   32 ar   
    34   33   65 1    
    35   32   31 ar   
    36   31   64 1    
    37    1    2 ar   
    38    1   36 1    
    39   37   47 2    
    40   38   37 1    
    41   38   48 1    
    42   39   38 1    
    43   40   39 1    
    44   40   42 ar   
    45   41   40 ar   
    46   43   41 ar   
    47   46   43 1    
    48   43   45 ar   
    49   45   44 ar   
    50   44   42 ar   
    51   46   50 ar   
    52   46   49 ar   
    53   20   19 1    
    54   20   26 1    
    55   20   51 1    
    56   19   24 1    
    57   19   25 1    
    58   17   56 1    
    59   55   57 1    
    60   48   27 1    
    61   57   58 ar   
    62   57   68 ar   
    63   68   67 ar   
    64    2    3 ar   
    65    2   60 1    
    66    3    4 ar   
    67    3   61 1    
    68    4   62 1    
    69   67   66 ar   
    70   66   59 ar   
    71   59   58 ar   
    72   56   55 1    
    73   55   69 1    
    74   55   70 1    
    75   58   71 1    
    76   59   72 1    
    77   66   73 1    
    78   67   74 1    
    79   68   75 1    
@<TRIPOS>SUBSTRUCTURE
     1 TOS1       27 GROUP             0 I     ****    2  
     2 APM2       37 GROUP             0 I     ****    2 ROOT 
     3 PYRROLIDINE    18 PERM              0 ****  ****    2  
     4 NAPHTHALENE    30 PERM              0 ****  ****    1  
     5 CO2        17 PERM              0 ****  ****    2  
     6 BENZYL     55 PERM              0 ****  ****    1  
@<TRIPOS>SET
UNK_ATOMS       STATIC     ATOMS    AMSOM    **** 
30 27 28 29 0 0 0 0 0 0 0 37 38 39 40 41 42 43 44 45 \
 46 47 48 49 50 0 0 0 0 0 0
LAB$B_TYPE      STATIC     BONDS    LABELGROUP SYSTEM 
0
@<TRIPOS>NORMAL
@<TRIPOS>FF_PBC
FORCE_FIELD_SETUP_FEATURE Force Field Setup information
v1.0  0 0.000000 0.000000 0.000000 0.000000 0.000000 0.000000 NONE 0 0 0 0 0 0 0 0 0 0 0 0 0
