#	Name:			52
#	Creating user name:	jeff
#	Creation time:		Fri Dec 13 10:10:08 2002

#	Modifying user name:	jeff
#	Modification time:	Fri Dec 13 10:10:11 2002

@<TRIPOS>MOLECULE
52
   65    68     6     1     2
SMALL
USER_CHARGES


@<TRIPOS>ATOM
      1 C1          3.891067   -6.355048   15.304207 C.ar      4 NAPHTHALENE   -0.254000 
      2 C2          4.060889   -5.141049   15.973409 C.ar      4 NAPHTHALENE   -0.121900 
      3 C3          5.329233   -4.562020   16.054726 C.ar      4 NAPHTHALENE   -0.064800 
      4 C4          6.425847   -5.201013   15.466507 C.ar      4 NAPHTHALENE   -0.301900 
      5 ****        6.657020   -9.456587   10.255917 H         2 APM2        0.018300 
      6 ****        5.060294  -10.569902    8.619082 H         2 APM2        0.217000 
      7 ****        6.041344   -9.260006    7.980976 H         2 APM2        0.206400 
      8 ****        2.694662  -10.396088    8.454567 H         2 APM2        0.219500 
      9 ****        5.078582   -6.905699    7.726701 H         2 APM2        0.222700 
     10 ****        3.057408   -5.663157    7.033849 H         2 APM2        0.191600 
     11 ****        0.835466   -6.721867    7.187222 H         2 APM2        0.166000 
     12 ****        3.860708   -9.938881   11.030249 H         2 APM2        0.398600 
     13 ****       -1.636748   -9.359318    7.052236 H         2 APM2        0.570900 
     14 ****       -0.587597   -8.042440    6.508273 H         2 APM2        0.555800 
     15 ****        0.861405  -10.856368    9.066127 H         2 APM2        0.545600 
     16 ****       -0.790261  -10.993438    8.453905 H         2 APM2        0.572200 
     17 C           8.677480   -7.474663   10.283794 C.2       5 CO2         1.007600 
     18 N1          6.387284   -6.659207   10.092170 N.am      3 PYRROLIDINE   -0.341100 
     19 C1          6.088048   -5.267262   10.412541 C.3       3 PYRROLIDINE   -0.113400 
     20 C2          7.418246   -4.577449   10.038460 C.3       3 PYRROLIDINE    0.004300 
     21 C3          7.923886   -5.469197    8.881761 C.3       3 PYRROLIDINE   -0.336400 
     22 C4          7.622796   -6.921480    9.355602 C.3       3 PYRROLIDINE    0.016200 
     23 O           8.592732   -7.206672   11.469611 O.2       5 CO2        -0.635500 
     24 H2          5.829908   -5.103898   11.470298 H         3 PYRROLIDINE    0.107600 
     25 H3          5.270551   -4.904786    9.766525 H         3 PYRROLIDINE    0.117500 
     26 H4          8.125943   -4.637303   10.881352 H         3 PYRROLIDINE    0.070700 
     27 S           5.643171  -10.405761   12.607905 S.o2      1 TOS1        2.252400 
     28 O1          6.923487  -10.977038   12.236906 O.2       1 TOS1       -0.921000 
     29 O2          4.706671  -11.204255   13.374123 O.2       1 TOS1       -0.946700 
     30 C5          7.354944   -7.079679   14.223638 C.ar      4 NAPHTHALENE   -0.345200 
     31 C6          7.186494   -8.322197   13.605996 C.ar      4 NAPHTHALENE   -0.051000 
     32 C7          5.911138   -8.878311   13.481130 C.ar      4 NAPHTHALENE   -0.495500 
     33 C8          4.817096   -8.212782   14.040984 C.ar      4 NAPHTHALENE   -0.139900 
     34 C9          4.987098   -6.998765   14.714057 C.ar      4 NAPHTHALENE    0.116400 
     35 C10         6.260919   -6.421186   14.801490 C.ar      4 NAPHTHALENE    0.275900 
     36 H1          2.899924   -6.794070   15.247691 H         4 NAPHTHALENE    0.187500 
     37 C           5.502102   -7.627312   10.460517 C.2       2 APM2        0.419500 
     38 CA          5.623781   -9.106662   10.142184 C.3       2 APM2        0.649300 
     39 CB          5.229389   -9.483484    8.685883 C.3       2 APM2       -0.743100 
     40 CG          3.996879   -8.715021    8.205675 C.ar      2 APM2        0.358200 
     41 CD1         2.750792   -9.348204    8.184768 C.ar      2 APM2       -0.208300 
     42 CD2         4.109132   -7.391338    7.769048 C.ar      2 APM2       -0.172300 
     43 CE1         1.600038   -8.653511    7.804048 C.ar      2 APM2       -0.355000 
     44 CE2         2.968015   -6.689058    7.378957 C.ar      2 APM2       -0.125700 
     45 CZ          1.714094   -7.307549    7.433574 C.ar      2 APM2       -0.078900 
     46 CF          0.263904   -9.378027    7.789229 C.cat     2 APM2        1.127300 
     47 O           4.508691   -7.316808   11.099321 O.2       2 APM2       -0.611900 
     48 N           4.851647   -9.838224   11.144774 N.am      2 APM2       -1.054400 
     49 NG1        -0.718072   -8.892320    7.074859 N.pl3     2 APM2       -1.048100 
     50 NG2         0.103934  -10.481040    8.477847 N.pl3     2 APM2       -1.007500 
     51 H5          7.288173   -3.516282    9.763564 H         3 PYRROLIDINE    0.076400 
     52 H6          8.979209   -5.279441    8.632045 H         3 PYRROLIDINE    0.134200 
     53 H7          7.308272   -5.228132    7.996848 H         3 PYRROLIDINE    0.147600 
     54 H8          7.482534   -7.573645    8.487965 H         3 PYRROLIDINE    0.063800 
     55 C1         10.608349   -8.740160   10.745857 C.3       6 BENZYL      0.018000 
     56 O           9.659910   -8.238761    9.763487 O.3       5 CO2        -0.547700 
     57 ****       10.582031   -9.838502   10.755341 H         6 BENZYL      0.124500 
     58 H2          3.207907   -4.647423   16.430101 H         4 NAPHTHALENE    0.161200 
     59 H3          5.462088   -3.618023   16.574381 H         4 NAPHTHALENE    0.160000 
     60 H4          7.405004   -4.736890   15.536262 H         4 NAPHTHALENE    0.194600 
     61 H5          8.343469   -6.631168   14.254403 H         4 NAPHTHALENE    0.238700 
     62 H6          8.049640   -8.858519   13.226691 H         4 NAPHTHALENE    0.180000 
     63 H8          3.832420   -8.657480   13.947486 H         4 NAPHTHALENE    0.205400 
     64 ****       11.627544   -8.416772   10.487795 H         6 BENZYL      0.077100 
     65 ****       10.442097   -8.427377   11.784459 H         6 BENZYL      0.066800 
@<TRIPOS>BOND
     1   27   32 1    
     2   30   31 ar   
     3   30   35 ar   
     4   30   61 1    
     5   35    4 ar   
     6   35   34 ar   
     7   34    1 ar   
     8   38    5 1    
     9   39    6 1    
    10   39    7 1    
    11   41    8 1    
    12   42    9 1    
    13   44   10 1    
    14   45   11 1    
    15   48   12 1    
    16   49   13 1    
    17   49   14 1    
    18   50   15 1    
    19   50   16 1    
    20   37   18 am   
    21   18   19 1    
    22   18   22 1    
    23   17   23 2    
    24   22   21 1    
    25   22   54 1    
    26   22   17 1    
    27   21   20 1    
    28   21   52 1    
    29   21   53 1    
    30   34   33 ar   
    31   27   29 2    
    32   27   28 2    
    33   33   32 ar   
    34   33   63 1    
    35   32   31 ar   
    36   31   62 1    
    37    1    2 ar   
    38    1   36 1    
    39   37   47 2    
    40   38   37 1    
    41   38   48 1    
    42   39   38 1    
    43   40   39 1    
    44   40   42 ar   
    45   41   40 ar   
    46   43   41 ar   
    47   46   43 1    
    48   43   45 ar   
    49   45   44 ar   
    50   44   42 ar   
    51   46   50 ar   
    52   46   49 ar   
    53   20   19 1    
    54   20   26 1    
    55   20   51 1    
    56   19   24 1    
    57   19   25 1    
    58   17   56 1    
    59   55   57 1    
    60   48   27 1    
    61    2    3 ar   
    62    2   58 1    
    63    3    4 ar   
    64    3   59 1    
    65    4   60 1    
    66   56   55 1    
    67   55   64 1    
    68   55   65 1    
@<TRIPOS>SUBSTRUCTURE
     1 TOS1       27 GROUP             0 I     ****    2  
     2 APM2       37 GROUP             0 I     ****    2 ROOT 
     3 PYRROLIDINE    18 PERM              0 ****  ****    2  
     4 NAPHTHALENE    30 PERM              0 ****  ****    1  
     5 CO2        17 PERM              0 ****  ****    2  
     6 BENZYL     55 PERM              0 ****  ****    1  
@<TRIPOS>SET
UNK_ATOMS       STATIC     ATOMS    AMSOM    **** 
30 27 28 29 0 0 0 0 0 0 0 37 38 39 40 41 42 43 44 45 \
 46 47 48 49 50 0 0 0 0 0 0
LAB$B_TYPE      STATIC     BONDS    LABELGROUP SYSTEM 
0
@<TRIPOS>NORMAL
@<TRIPOS>FF_PBC
FORCE_FIELD_SETUP_FEATURE Force Field Setup information
v1.0  0 0.000000 0.000000 0.000000 0.000000 0.000000 0.000000 NONE 0 0 0 0 0 0 0 0 0 0 0 0 0
