#	Name:			54
#	Creating user name:	jeff
#	Creation time:		Fri Dec 13 10:10:16 2002

#	Modifying user name:	jeff
#	Modification time:	Fri Dec 13 10:10:22 2002

@<TRIPOS>MOLECULE
54
   99   102     5     1     1
SMALL
USER_CHARGES


@<TRIPOS>ATOM
      1 C1          3.804040   -8.008374   13.738427 C.3       1 TOS1        0.356800 
      2 ****        5.076399   -5.791759   14.511424 H         1 TOS1        0.206800 
      3 C3          7.559895   -5.032532   15.270247 C.3       1 TOS1        0.079000 
      4 C4          8.790583   -9.563595   13.478078 C.3       1 TOS1        0.259700 
      5 ****        9.099880   -6.967753   14.020125 H         1 TOS1        0.225800 
      6 ****        3.529538   -8.857013   13.100324 H         1 TOS1       -0.025900 
      7 C7          8.393784   -4.026785   14.432559 C.3       1 TOS1       -0.128900 
      8 ****        6.789243   -9.316928   10.186973 H         2 APM2        0.141000 
      9 ****        5.264962  -10.585966    8.516099 H         2 APM2        0.220400 
     10 ****        6.191105   -9.238449    7.821732 H         2 APM2        0.159000 
     11 ****        2.801794  -10.463771    8.395098 H         2 APM2        0.200000 
     12 ****        5.140805   -7.006016    7.401856 H         2 APM2        0.147200 
     13 ****        3.075824   -5.726065    6.956619 H         2 APM2        0.210200 
     14 ****        0.868157   -6.786899    7.261352 H         2 APM2        0.158200 
     15 ****        3.940681   -9.715499   10.839419 H         2 APM2        0.414400 
     16 ****       -1.472868   -9.593920    6.847742 H         2 APM2        0.579100 
     17 ****       -0.310071   -8.493694    6.092177 H         2 APM2        0.556800 
     18 ****        0.711460  -10.462624    9.499814 H         2 APM2        0.566400 
     19 ****       -0.873613  -10.750038    8.765043 H         2 APM2        0.580700 
     20 ****        7.720829   -6.342414    8.188859 H         3 PIP3        0.121500 
     21 ****        7.984337   -7.869583    9.023548 H         3 PIP3        0.083200 
     22 C          10.212241   -6.306255    9.340478 C.2       4 CO2         0.837900 
     23 ****        8.900378   -6.674641   11.001493 H         3 PIP3        0.050700 
     24 ****        8.505573   -4.129483    9.320857 H         3 PIP3        0.132200 
     25 ****        9.300630   -4.216943   10.920795 H         3 PIP3        0.104600 
     26 ****        6.911089   -3.487382   11.169860 H         3 PIP3        0.045500 
     27 ****        7.142878   -5.107114   11.907658 H         3 PIP3       -0.007100 
     28 ****        5.082021   -5.042620   10.602561 H         3 PIP3        0.145100 
     29 ****        5.960319   -4.613229    9.118961 H         3 PIP3        0.144400 
     30 S           5.704668  -10.265267   12.476049 S.o2      1 TOS1        2.357600 
     31 O1          6.781924  -11.088742   11.974054 O.2       1 TOS1       -0.947000 
     32 O2          4.705433  -10.911680   13.305862 O.2       1 TOS1       -0.941100 
     33 C1          6.286982   -8.753945   13.319308 C.ar      1 TOS1       -0.815800 
     34 C2          5.342844   -7.790087   13.738262 C.ar      1 TOS1        0.326000 
     35 C3          5.783474   -6.564336   14.256630 C.ar      1 TOS1       -0.484700 
     36 C4          7.133804   -6.301832   14.491243 C.ar      1 TOS1        0.265200 
     37 C5          8.053409   -7.241605   14.027007 C.ar      1 TOS1       -0.296500 
     38 C6          7.652508   -8.513761   13.591110 C.ar      1 TOS1        0.141400 
     39 C39         8.321102   -5.428076   16.564039 C.3       1 TOS1       -0.372700 
     40 C           5.539999   -7.537243   10.089020 C.2       2 APM2        0.536700 
     41 CA          5.757494   -9.021253    9.956397 C.3       2 APM2        0.404700 
     42 CB          5.380774   -9.491079    8.523520 C.3       2 APM2       -0.581200 
     43 CG          4.097784   -8.786830    8.048985 C.ar      2 APM2        0.203100 
     44 CD1         2.851371   -9.421033    8.102737 C.ar      2 APM2       -0.120900 
     45 CD2         4.176639   -7.477368    7.559357 C.ar      2 APM2       -0.016600 
     46 CE1         1.678208   -8.726425    7.776222 C.ar      2 APM2       -0.403400 
     47 CE2         3.011577   -6.759955    7.280529 C.ar      2 APM2       -0.201100 
     48 CZ          1.765703   -7.374802    7.423625 C.ar      2 APM2       -0.032800 
     49 CF          0.326449   -9.414981    7.795223 C.cat     2 APM2        1.160100 
     50 O           4.416830   -7.267875   10.473720 O.2       2 APM2       -0.612600 
     51 N           4.929167   -9.650374   10.981151 N.am      2 APM2       -1.104100 
     52 NG1        -0.543898   -9.147140    6.853905 N.pl3     2 APM2       -1.067900 
     53 NG2         0.037624  -10.268391    8.745900 N.pl3     2 APM2       -1.056600 
     54 N1          6.432660   -6.545213    9.803894 N.am      3 PIP3       -0.244500 
     55 C2          7.731529   -6.815312    9.181827 C.3       3 PIP3       -0.117200 
     56 C3          8.864928   -6.162040   10.022462 C.3       3 PIP3       -0.001600 
     57 C4          8.525412   -4.668655   10.280387 C.3       3 PIP3       -0.387400 
     58 C5          7.139920   -4.544969   10.960896 C.3       3 PIP3        0.244000 
     59 C6          6.040574   -5.160949   10.069940 C.3       3 PIP3       -0.323700 
     60 ****        6.660647   -4.485159   15.601408 H         1 TOS1        0.066200 
     61 C64         2.896676   -6.833537   13.247070 C.3       1 TOS1       -0.396700 
     62 C65         3.409833   -8.341651   15.202781 C.3       1 TOS1       -0.401200 
     63 ****        8.387654  -10.578557   13.408147 H         1 TOS1        0.069300 
     64 C67         9.640408   -9.683242   14.775990 C.3       1 TOS1       -0.395400 
     65 C68         9.715022   -9.267746   12.262532 C.3       1 TOS1       -0.318900 
     66 ****        9.311965   -4.495449   14.050752 H         1 TOS1        0.054800 
     67 ****        8.676058   -3.159962   15.050575 H         1 TOS1        0.069800 
     68 ****        7.804246   -3.643236   13.590210 H         1 TOS1       -0.031200 
     69 ****        7.689686   -6.078204   17.189663 H         1 TOS1        0.091100 
     70 ****        8.576710   -4.529850   17.148609 H         1 TOS1        0.119100 
     71 ****        9.252406   -5.962831   16.325960 H         1 TOS1        0.089400 
     72 ****        2.941548   -5.939586   13.882440 H         1 TOS1        0.111000 
     73 ****        1.845631   -7.164040   13.250426 H         1 TOS1        0.082000 
     74 ****        3.131600   -6.521127   12.226192 H         1 TOS1        0.091200 
     75 ****        3.999482   -9.193358   15.575033 H         1 TOS1        0.107100 
     76 ****        2.341327   -8.596302   15.275351 H         1 TOS1        0.105500 
     77 ****        3.603411   -7.474273   15.854043 H         1 TOS1        0.099000 
     78 ****       10.179344   -8.755083   15.001986 H         1 TOS1        0.096700 
     79 ****       10.394037  -10.481252   14.664068 H         1 TOS1        0.114400 
     80 ****        9.001269   -9.936413   15.637546 H         1 TOS1        0.088800 
     81 ****        9.117615   -9.192439   11.344306 H         1 TOS1        0.032900 
     82 ****       10.441424  -10.083485   12.133911 H         1 TOS1        0.125600 
     83 ****       10.283688   -8.333664   12.388081 H         1 TOS1        0.063700 
     84 O          10.714468   -5.379717    8.718619 O.2       4 CO2        -0.609700 
     85 O          10.797879   -7.509394    9.467156 O.3       4 CO2        -0.388200 
     86 C          12.509071   -9.083891    9.031969 C.ar      5 PHENYL      0.117100 
     87 C93        12.037241   -7.650596    8.740373 C.3       4 CO2        -0.203100 
     88 ****       13.634776   -8.550306   10.796116 H         5 PHENYL      0.182400 
     89 ****       12.786441   -6.913712    9.078928 H         4 CO2         0.150300 
     90 ****       11.880409   -7.500415    7.655617 H         4 CO2         0.147900 
     91 C          13.320238   -9.352978   10.138928 C.ar      5 PHENYL     -0.206600 
     92 C          13.727578  -10.660394   10.412019 C.ar      5 PHENYL     -0.149000 
     93 C          13.335303  -11.708824    9.578234 C.ar      5 PHENYL     -0.106000 
     94 C          12.535417  -11.440419    8.466529 C.ar      5 PHENYL     -0.159200 
     95 C          12.126326  -10.134119    8.192519 C.ar      5 PHENYL     -0.201400 
     96 ****       14.351004  -10.864356   11.275441 H         5 PHENYL      0.157800 
     97 ****       13.650980  -12.724340    9.791006 H         5 PHENYL      0.153500 
     98 ****       12.230109  -12.249670    7.813150 H         5 PHENYL      0.157300 
     99 ****       11.505134   -9.943157    7.325361 H         5 PHENYL      0.170300 
@<TRIPOS>BOND
     1   34    1 1    
     2   35    2 1    
     3   36    3 1    
     4   38    4 1    
     5   37    5 1    
     6    1    6 1    
     7    3    7 1    
     8   41    8 1    
     9   42    9 1    
    10   42   10 1    
    11   44   11 1    
    12   45   12 1    
    13   47   13 1    
    14   48   14 1    
    15   51   15 1    
    16   52   16 1    
    17   52   17 1    
    18   53   18 1    
    19   53   19 1    
    20   55   20 1    
    21   55   21 1    
    22   22   84 2    
    23   56   23 1    
    24   57   24 1    
    25   57   25 1    
    26   58   26 1    
    27   58   27 1    
    28   59   28 1    
    29   59   29 1    
    30   33   30 1    
    31   30   32 2    
    32   30   31 2    
    33   33   38 ar   
    34   34   33 ar   
    35   35   34 ar   
    36   36   35 ar   
    37    3   39 1    
    38   36   37 ar   
    39   37   38 ar   
    40   40   50 2    
    41   41   40 1    
    42   41   51 1    
    43   42   41 1    
    44   43   42 1    
    45   43   45 ar   
    46   44   43 ar   
    47   46   44 ar   
    48   49   46 1    
    49   46   48 ar   
    50   48   47 ar   
    51   47   45 ar   
    52   49   53 ar   
    53   49   52 ar   
    54   54   59 1    
    55   55   54 1    
    56   56   55 1    
    57   57   56 1    
    58   57   58 1    
    59   58   59 1    
    60   40   54 am   
    61   51   30 1    
    62    3   60 1    
    63    1   61 1    
    64    1   62 1    
    65    4   63 1    
    66    4   64 1    
    67    4   65 1    
    68    7   66 1    
    69    7   67 1    
    70    7   68 1    
    71   39   69 1    
    72   39   70 1    
    73   39   71 1    
    74   61   72 1    
    75   61   73 1    
    76   61   74 1    
    77   62   75 1    
    78   62   76 1    
    79   62   77 1    
    80   64   78 1    
    81   64   79 1    
    82   64   80 1    
    83   65   81 1    
    84   65   82 1    
    85   65   83 1    
    86   22   85 1    
    87   56   22 1    
    88   86   91 ar   
    89   85   87 1    
    90   87   86 1    
    91   87   89 1    
    92   87   90 1    
    93   86   95 ar   
    94   95   94 ar   
    95   94   93 ar   
    96   93   92 ar   
    97   92   91 ar   
    98   91   88 1    
    99   92   96 1    
   100   93   97 1    
   101   94   98 1    
   102   95   99 1    
@<TRIPOS>SUBSTRUCTURE
     1 TOS1       30 GROUP             0 I     ****    1  
     2 APM2       40 GROUP             0 I     ****    2 ROOT 
     3 PIP3       54 GROUP             0 I     ****    2  
     4 CO2        22 PERM              0 ****  ****    2  
     5 PHENYL     86 PERM              0 ****  ****    1  
@<TRIPOS>SET
UNK_ATOMS       STATIC     ATOMS    AMSOM    **** 
30 30 31 32 33 34 35 36 37 38 0 40 41 42 43 44 45 46 47 48 \
 49 50 51 52 53 54 55 56 57 58 59
@<TRIPOS>NORMAL
@<TRIPOS>FF_PBC
FORCE_FIELD_SETUP_FEATURE Force Field Setup information
v1.0  0 0.000000 0.000000 0.000000 0.000000 0.000000 0.000000 NONE 0 0 0 0 0 0 0 0 0 0 0 0 0
