#	Name:			55
#	Creating user name:	jeff
#	Creation time:		Fri Dec 13 10:10:22 2002

#	Modifying user name:	jeff
#	Modification time:	Fri Dec 13 10:10:26 2002

@<TRIPOS>MOLECULE
55
   64    67     5     1     4
SMALL
USER_CHARGES


@<TRIPOS>ATOM
      1 C1          3.901921   -6.366865   15.299832 C.ar      4 NAPHTHALENE   -0.241600 
      2 C2          4.067833   -5.150788   15.968518 C.ar      4 NAPHTHALENE   -0.155200 
      3 C3          5.335428   -4.569796   16.052158 C.ar      4 NAPHTHALENE   -0.066300 
      4 C4          6.433880   -5.205047   15.467387 C.ar      4 NAPHTHALENE   -0.321700 
      5 ****        6.769037   -9.303859   10.400315 H         2 APM2        0.123800 
      6 ****        5.245647  -10.492331    8.661495 H         2 APM2        0.165900 
      7 ****        6.162583   -9.114783    8.046876 H         2 APM2        0.165800 
      8 ****        2.798566  -10.386674    8.511982 H         2 APM2        0.202800 
      9 ****        5.110190   -6.858695    7.742976 H         2 APM2        0.189500 
     10 ****        3.070556   -5.669010    7.032887 H         2 APM2        0.190100 
     11 ****        0.873892   -6.759303    7.200909 H         2 APM2        0.153100 
     12 ****        3.971411   -9.942492   10.994378 H         2 APM2        0.362000 
     13 ****       -1.578982   -9.367472    7.059441 H         2 APM2        0.564100 
     14 ****       -0.527130   -8.061862    6.501079 H         2 APM2        0.554000 
     15 ****        0.893884  -10.862024    9.088031 H         2 APM2        0.553000 
     16 ****       -0.758850  -10.980731    8.472637 H         2 APM2        0.570200 
     17 ****        7.541075   -6.211335    8.439572 H         3 PIP3        0.118400 
     18 ****        7.798609   -7.807389    9.135792 H         3 PIP3        0.081900 
     19 ****        9.201125   -4.338629   11.286753 H         3 PIP3        0.036700 
     20 ****        8.670225   -6.786393   11.244099 H         3 PIP3       -0.043500 
     21 ****        8.433641   -4.130312    9.689171 H         3 PIP3        0.086100 
     22 ****        6.826279   -3.483680   11.479732 H         3 PIP3        0.006600 
     23 ****        7.026172   -5.072709   12.266608 H         3 PIP3        0.019300 
     24 ****        4.944904   -5.045960   10.911368 H         3 PIP3        0.051800 
     25 ****        5.856340   -4.592687    9.460353 H         3 PIP3        0.081200 
     26 S           5.688664  -10.417410   12.626958 S.o2      1 TOS1        2.252500 
     27 O1          6.978357  -11.003154   12.313802 O.2       1 TOS1       -0.936700 
     28 O2          4.709159  -11.198193   13.356792 O.2       1 TOS1       -1.004200 
     29 C5          7.367757   -7.067146   14.209339 C.ar      4 NAPHTHALENE   -0.275600 
     30 C6          7.199291   -8.283387   13.541183 C.ar      4 NAPHTHALENE   -0.101300 
     31 C7          5.934386   -8.873184   13.470873 C.ar      4 NAPHTHALENE   -0.430000 
     32 C8          4.838010   -8.226434   14.045182 C.ar      4 NAPHTHALENE   -0.206300 
     33 C9          5.000208   -7.006758   14.713914 C.ar      4 NAPHTHALENE    0.133600 
     34 C10         6.271996   -6.424663   14.797163 C.ar      4 NAPHTHALENE    0.259300 
     35 H1          2.911218   -6.807421   15.242158 H         4 NAPHTHALENE    0.178400 
     36 C           5.479377   -7.561592   10.498420 C.2       2 APM2        0.719300 
     37 CA          5.723547   -9.027488   10.202104 C.3       2 APM2        0.309900 
     38 CB          5.353086   -9.398819    8.735500 C.3       2 APM2       -0.446800 
     39 CG          4.076976   -8.689847    8.245446 C.ar      2 APM2        0.184400 
     40 CD1         2.838190   -9.342813    8.224783 C.ar      2 APM2       -0.132300 
     41 CD2         4.154973   -7.368879    7.791147 C.ar      2 APM2       -0.046900 
     42 CE1         1.668931   -8.677086    7.826769 C.ar      2 APM2       -0.387900 
     43 CE2         3.001796   -6.692422    7.389508 C.ar      2 APM2       -0.165000 
     44 CZ          1.761503   -7.331465    7.448294 C.ar      2 APM2       -0.090600 
     45 CF          0.325274   -9.387570    7.798566 C.cat     2 APM2        1.138100 
     46 O           4.463108   -7.342003   11.139339 O.2       2 APM2       -0.694500 
     47 N           4.952695   -9.823092   11.149955 N.am      2 APM2       -0.945800 
     48 NG1        -0.657190   -8.905135    7.076993 N.pl3     2 APM2       -1.066100 
     49 NG2         0.143983  -10.482656    8.494291 N.pl3     2 APM2       -1.017200 
     50 N1          6.293225   -6.540755   10.095098 N.am      3 PIP3       -0.640500 
     51 C2          7.557787   -6.769818    9.388817 C.3       3 PIP3        0.003000 
     52 C3          8.685049   -6.218860   10.297432 C.3       3 PIP3        0.104400 
     53 C4          8.412432   -4.723171   10.619010 C.3       3 PIP3       -0.165000 
     54 C5          7.027499   -4.552539   11.296190 C.3       3 PIP3        0.007600 
     55 C6          5.916413   -5.158377   10.403818 C.3       3 PIP3        0.038500 
     56 H2          3.213222   -4.658526   16.422424 H         4 NAPHTHALENE    0.158000 
     57 H3          5.465553   -3.625164   16.571754 H         4 NAPHTHALENE    0.152600 
     58 H4          7.413003   -4.741525   15.539439 H         4 NAPHTHALENE    0.207000 
     59 H5          8.358939   -6.627121   14.265666 H         4 NAPHTHALENE    0.231200 
     60 H6          8.053267   -8.767081   13.079795 H         4 NAPHTHALENE    0.214500 
     61 H8          3.857398   -8.683338   13.965560 H         4 NAPHTHALENE    0.219000 
     62 C          10.028336   -6.401098    9.627368 C.2       5 CO2         0.670500 
     63 O          10.560912   -5.401103    9.074964 O.co2     5 CO2        -0.917900 
     64 O          10.572671   -7.539422    9.656202 O.co2     5 CO2        -0.958900 
@<TRIPOS>BOND
     1   26   31 1    
     2   29   30 ar   
     3   29   34 ar   
     4   29   59 1    
     5   34    4 ar   
     6   34   33 ar   
     7   33    1 ar   
     8   37    5 1    
     9   38    6 1    
    10   38    7 1    
    11   40    8 1    
    12   41    9 1    
    13   43   10 1    
    14   44   11 1    
    15   47   12 1    
    16   48   13 1    
    17   48   14 1    
    18   49   15 1    
    19   49   16 1    
    20   51   17 1    
    21   51   18 1    
    22   52   62 1    
    23   52   20 1    
    24   53   21 1    
    25   53   19 1    
    26   54   22 1    
    27   54   23 1    
    28   55   24 1    
    29   55   25 1    
    30   33   32 ar   
    31   26   28 2    
    32   26   27 2    
    33   32   31 ar   
    34   32   61 1    
    35   31   30 ar   
    36   30   60 1    
    37    1    2 ar   
    38    1   35 1    
    39   36   46 2    
    40   37   36 1    
    41   37   47 1    
    42   38   37 1    
    43   39   38 1    
    44   39   41 ar   
    45   40   39 ar   
    46   42   40 ar   
    47   45   42 1    
    48   42   44 ar   
    49   44   43 ar   
    50   43   41 ar   
    51   45   49 ar   
    52   45   48 ar   
    53   50   55 1    
    54   51   50 1    
    55   52   51 1    
    56   53   52 1    
    57   53   54 1    
    58   54   55 1    
    59   36   50 am   
    60   47   26 1    
    61    2    3 ar   
    62    2   56 1    
    63    3    4 ar   
    64    3   57 1    
    65    4   58 1    
    66   62   63 ar   
    67   62   64 ar   
@<TRIPOS>SUBSTRUCTURE
     1 TOS1       26 GROUP             0 I     ****    2  
     2 APM2       36 GROUP             0 I     ****    2 ROOT 
     3 PIP3       50 GROUP             0 I     ****    2  
     4 NAPHTHALENE    29 PERM              0 ****  ****    1  
     5 CO2        62 PERM              0 ****  ****    1  
@<TRIPOS>SET
UNK_ATOMS       STATIC     ATOMS    AMSOM    **** 
30 26 27 28 0 0 0 0 0 0 0 36 37 38 39 40 41 42 43 44 \
 45 46 47 48 49 50 51 52 53 54 55
LAB$B_TYPE      STATIC     BONDS    LABELGROUP SYSTEM 
0
ATOM$WHITE      STATIC     ATOMS    COLORGROUP SYSTEM 
0
ATOM$BY_TYPE    STATIC     ATOMS    COLORGROUP SYSTEM 
64 1 2 3 4 5 6 7 8 9 10 11 12 13 14 15 16 17 18 19 \
 20 21 22 23 24 25 26 27 28 29 30 31 32 33 34 35 36 37 \
 38 39 40 41 42 43 44 45 46 47 48 49 50 51 52 53 54 55 \
 56 57 58 59 60 61 62 63 64
@<TRIPOS>NORMAL
@<TRIPOS>FF_PBC
FORCE_FIELD_SETUP_FEATURE Force Field Setup information
v1.0  0 0.000000 0.000000 0.000000 0.000000 0.000000 0.000000 NONE 0 0 0 0 0 0 0 0 0 0 0 0 0
