#	Name:			56
#	Creating user name:	jeff
#	Creation time:		Fri Dec 13 10:10:26 2002

#	Modifying user name:	jeff
#	Modification time:	Fri Dec 13 10:10:30 2002

@<TRIPOS>MOLECULE
56
   61    62     4     1     1
SMALL
USER_CHARGES


@<TRIPOS>ATOM
      1 C           5.466281  -10.039664   12.363791 C.2       1 CO2         1.120800 
      2 O           4.850337  -10.711433   13.176205 O.2       1 CO2        -0.719700 
      3 O           6.674692   -9.475050   12.594734 O.3       1 CO2        -0.682300 
      4 C1          7.293235   -9.709036   13.883134 C.3       4 TBUTYL      0.802400 
      5 C2          6.431041   -9.060621   15.005785 C.3       4 TBUTYL     -0.497900 
      6 C3          7.597188  -11.224538   14.087684 C.3       4 TBUTYL     -0.439800 
      7 C4          8.671687   -8.977254   13.893153 C.3       4 TBUTYL     -0.465500 
      8 ****        6.760627   -9.341049   10.268986 H         2 APM2        0.116900 
      9 ****        5.190326  -10.460780    8.590682 H         2 APM2        0.193800 
     10 ****        6.115466   -9.086653    7.983024 H         2 APM2        0.164500 
     11 ****        2.775908  -10.312545    8.549144 H         2 APM2        0.216700 
     12 ****        5.085044   -6.811723    7.718269 H         2 APM2        0.195400 
     13 ****        3.064146   -5.666349    6.890094 H         2 APM2        0.203600 
     14 ****        0.879168   -6.740699    7.033626 H         2 APM2        0.169300 
     15 ****        4.054040  -10.148403   10.875811 H         2 APM2        0.448600 
     16 ****       -1.613675   -9.421406    7.019520 H         2 APM2        0.583400 
     17 ****       -0.589089   -8.131656    6.397292 H         2 APM2        0.566200 
     18 ****        0.818963  -10.800030    9.132559 H         2 APM2        0.577000 
     19 ****       -0.805098  -10.947899    8.472223 H         2 APM2        0.588800 
     20 ****        7.570524   -6.264164    8.408895 H         3 PIP3        0.105600 
     21 ****        7.839366   -7.832291    9.146158 H         3 PIP3        0.080500 
     22 ****        9.678003   -6.320264    9.751898 H         3 PIP3        0.082900 
     23 ****        8.754647   -6.796988   11.206899 H         3 PIP3        0.080400 
     24 ****        8.422605   -4.157051    9.641554 H         3 PIP3        0.053800 
     25 C25         9.553465   -4.135785   11.487868 C.3       3 PIP3       -0.535100 
     26 ****        6.832147   -3.517051   11.482010 H         3 PIP3        0.058900 
     27 ****        7.036458   -5.131581   12.224171 H         3 PIP3        0.074000 
     28 ****        4.959893   -5.029359   10.833978 H         3 PIP3        0.099500 
     29 ****        5.913773   -4.592715    9.405922 H         3 PIP3        0.047300 
     30 ****        6.915823   -9.176651   15.985884 H         4 TBUTYL      0.132400 
     31 ****        5.420104   -9.479449   15.076902 H         4 TBUTYL      0.133800 
     32 ****        6.330361   -7.983983   14.795005 H         4 TBUTYL      0.117600 
     33 ****        8.299931  -11.561690   13.309099 H         4 TBUTYL      0.100500 
     34 ****        6.707456  -11.862432   14.025987 H         4 TBUTYL      0.119300 
     35 ****        8.067361  -11.396182   15.067039 H         4 TBUTYL      0.121300 
     36 ****        8.552399   -7.891123   13.766795 H         4 TBUTYL      0.124000 
     37 ****        9.321780   -9.339338   13.082687 H         4 TBUTYL      0.106800 
     38 ****        9.191433   -9.152513   14.849182 H         4 TBUTYL      0.131900 
     39 C           5.480985   -7.557113   10.445061 C.2       2 APM2        0.683500 
     40 CA          5.714388   -9.024831   10.146203 C.3       2 APM2        0.533300 
     41 CB          5.313760   -9.370224    8.681744 C.3       2 APM2       -0.615900 
     42 CG          4.043605   -8.643688    8.207660 C.ar      2 APM2        0.298900 
     43 CD1         2.801750   -9.286117    8.210455 C.ar      2 APM2       -0.230600 
     44 CD2         4.132258   -7.328795    7.738827 C.ar      2 APM2       -0.117300 
     45 CE1         1.629519   -8.645633    7.772909 C.ar      2 APM2       -0.373800 
     46 CE2         2.986661   -6.675793    7.284509 C.ar      2 APM2       -0.142200 
     47 CZ          1.745729   -7.315964    7.336749 C.ar      2 APM2       -0.075300 
     48 CF          0.290871   -9.371879    7.764950 C.cat     2 APM2        1.204300 
     49 O           4.454355   -7.324348   11.064888 O.2       2 APM2       -0.642000 
     50 N           4.962775   -9.807410   11.125931 N.am      2 APM2       -1.065100 
     51 NG1        -0.699391   -8.944137    7.015892 N.pl3     2 APM2       -1.082700 
     52 NG2         0.093059  -10.442008    8.500599 N.pl3     2 APM2       -1.080600 
     53 N1          6.312912   -6.546696   10.058435 N.am      3 PIP3       -0.561700 
     54 C2          7.585154   -6.792688    9.373805 C.3       3 PIP3       -0.055300 
     55 C3          8.709827   -6.217556   10.269541 C.3       3 PIP3       -0.150200 
     56 C4          8.432648   -4.723281   10.589720 C.3       3 PIP3        0.171000 
     57 C5          7.043723   -4.578346   11.270487 C.3       3 PIP3       -0.103200 
     58 C6          5.942101   -5.159053   10.351168 C.3       3 PIP3        0.038500 
     59 ****       10.530893   -4.232103   10.989839 H         3 PIP3        0.135400 
     60 ****        9.594632   -4.666699   12.451239 H         3 PIP3        0.137200 
     61 ****        9.365329   -3.068191   11.680831 H         3 PIP3        0.138100 
@<TRIPOS>BOND
     1    1    2 2    
     2    1    3 1    
     3   50    1 am   
     4    4    5 1    
     5    4    6 1    
     6    4    7 1    
     7    3    4 1    
     8   40    8 1    
     9   41    9 1    
    10   41   10 1    
    11   43   11 1    
    12   44   12 1    
    13   46   13 1    
    14   47   14 1    
    15   50   15 1    
    16   51   16 1    
    17   51   17 1    
    18   52   18 1    
    19   52   19 1    
    20   54   20 1    
    21   54   21 1    
    22   55   22 1    
    23   55   23 1    
    24   56   24 1    
    25   56   25 1    
    26   57   26 1    
    27   57   27 1    
    28   58   28 1    
    29   58   29 1    
    30    5   30 1    
    31    5   31 1    
    32    5   32 1    
    33    6   33 1    
    34    6   34 1    
    35    6   35 1    
    36    7   36 1    
    37    7   37 1    
    38    7   38 1    
    39   39   49 2    
    40   40   39 1    
    41   40   50 1    
    42   41   40 1    
    43   42   41 1    
    44   42   44 ar   
    45   43   42 ar   
    46   45   43 ar   
    47   48   45 1    
    48   45   47 ar   
    49   47   46 ar   
    50   46   44 ar   
    51   48   52 ar   
    52   48   51 ar   
    53   53   58 1    
    54   54   53 1    
    55   55   54 1    
    56   56   55 1    
    57   56   57 1    
    58   57   58 1    
    59   39   53 am   
    60   25   59 1    
    61   25   60 1    
    62   25   61 1    
@<TRIPOS>SUBSTRUCTURE
     1 CO2         1 PERM              0 ****  ****    2  
     2 APM2       39 GROUP             0 I     ****    2 ROOT 
     3 PIP3       53 GROUP             0 I     ****    1  
     4 TBUTYL      4 PERM              0 ****  ****    1  
@<TRIPOS>SET
UNK_ATOMS       STATIC     ATOMS    AMSOM    **** 
30 0 0 0 0 0 0 0 0 0 0 39 40 41 42 43 44 45 46 47 \
 48 49 50 51 52 53 54 55 56 57 58
@<TRIPOS>NORMAL
@<TRIPOS>FF_PBC
FORCE_FIELD_SETUP_FEATURE Force Field Setup information
v1.0  0 0.000000 0.000000 0.000000 0.000000 0.000000 0.000000 NONE 0 0 0 0 0 0 0 0 0 0 0 0 0
