#	Name:			58
#	Creating user name:	jeff
#	Creation time:		Fri Dec 13 10:11:45 2002

#	Modifying user name:	jeff
#	Modification time:	Fri Dec 13 10:11:50 2002

@<TRIPOS>MOLECULE
58
   81    85     6     1     2
SMALL
USER_CHARGES


@<TRIPOS>ATOM
      1 C1          3.848127   -6.378607   15.293519 C.ar      4 NAPHTHALENE   -0.251200 
      2 C2          4.015171   -5.160601   15.965296 C.ar      4 NAPHTHALENE   -0.114700 
      3 C3          5.283418   -4.586229   16.043730 C.ar      4 NAPHTHALENE   -0.089300 
      4 C4          6.366641   -5.244800   15.460271 C.ar      4 NAPHTHALENE   -0.278900 
      5 ****        6.775732   -9.301342   10.396235 H         2 APM2        0.129100 
      6 ****        5.266329  -10.494909    8.648935 H         2 APM2        0.169900 
      7 ****        6.180704   -9.120665    8.025468 H         2 APM2        0.133800 
      8 ****        2.876339  -10.384384    8.456659 H         2 APM2        0.207300 
      9 ****        5.144203   -6.847542    7.725377 H         2 APM2        0.176000 
     10 ****        3.086615   -5.651697    7.073658 H         2 APM2        0.199300 
     11 ****        0.917736   -6.697019    7.308364 H         2 APM2        0.164700 
     12 ****        3.956785   -9.921860   10.957646 H         2 APM2        0.386100 
     13 ****       -1.611434   -9.392455    7.134353 H         2 APM2        0.569500 
     14 ****       -0.612126   -8.082783    6.555369 H         2 APM2        0.554200 
     15 ****        0.842873  -10.936551    9.047708 H         2 APM2        0.540300 
     16 ****       -0.784116  -11.010761    8.415007 H         2 APM2        0.571900 
     17 ****        7.552759   -6.188278    8.418178 H         3 PIP3        0.108500 
     18 ****        7.789122   -7.803071    9.086347 H         3 PIP3        0.084700 
     19 ****        9.649759   -6.327021    9.784018 H         3 PIP3        0.077200 
     20 ****        8.687605   -6.857881   11.194667 H         3 PIP3        0.052900 
     21 ****        8.451724   -4.148123    9.739157 H         3 PIP3        0.100600 
     22 C           9.478711   -4.295602   11.615803 C.2       5 CO2         0.753400 
     23 ****        6.814191   -3.505651   11.488022 H         3 PIP3        0.066200 
     24 ****        6.961966   -5.111211   12.259030 H         3 PIP3        0.072500 
     25 ****        4.927423   -5.045381   10.856610 H         3 PIP3        0.110000 
     26 ****        5.876413   -4.579642    9.431920 H         3 PIP3        0.085400 
     27 S           5.651895  -10.443597   12.614369 S.o2      1 TOS1        2.276700 
     28 O1          6.946131  -11.029465   12.320237 O.2       1 TOS1       -0.933800 
     29 O2          4.657704  -11.214289   13.334010 O.2       1 TOS1       -0.961900 
     30 C5          7.294162   -7.084606   14.159701 C.ar      4 NAPHTHALENE   -0.191300 
     31 C6          7.149074   -8.310849   13.511149 C.ar      4 NAPHTHALENE   -0.138800 
     32 C7          5.883639   -8.896059   13.454288 C.ar      4 NAPHTHALENE   -0.454400 
     33 C8          4.783432   -8.251881   14.028553 C.ar      4 NAPHTHALENE   -0.201500 
     34 C9          4.934717   -7.028728   14.696022 C.ar      4 NAPHTHALENE    0.183300 
     35 C10         6.207418   -6.451308   14.769736 C.ar      4 NAPHTHALENE    0.160200 
     36 H1          2.854797   -6.819992   15.240204 H         4 NAPHTHALENE    0.189400 
     37 C           5.482898   -7.560791   10.477060 C.2       2 APM2        0.575700 
     38 CA          5.730335   -9.027727   10.187330 C.3       2 APM2        0.275500 
     39 CB          5.371401   -9.399608    8.717077 C.3       2 APM2       -0.449600 
     40 CG          4.101642   -8.678150    8.227555 C.ar      2 APM2        0.184200 
     41 CD1         2.862870   -9.335642    8.199081 C.ar      2 APM2       -0.146000 
     42 CD2         4.187696   -7.356305    7.788972 C.ar      2 APM2       -0.041700 
     43 CE1         1.671825   -8.676085    7.840779 C.ar      2 APM2       -0.359800 
     44 CE2         3.024036   -6.677555    7.421654 C.ar      2 APM2       -0.171000 
     45 CZ          1.782489   -7.318275    7.507930 C.ar      2 APM2       -0.066400 
     46 CF          0.320713   -9.398294    7.810943 C.cat     2 APM2        1.110700 
     47 O           4.470181   -7.339836   11.123198 O.2       2 APM2       -0.612800 
     48 N           4.937341   -9.819890   11.121354 N.am      2 APM2       -0.967500 
     49 NG1        -0.694063   -8.922200    7.126612 N.pl3     2 APM2       -1.042800 
     50 NG2         0.120365  -10.517829    8.463866 N.pl3     2 APM2       -0.998300 
     51 N1          6.288628   -6.539129   10.060564 N.am      3 PIP3       -0.425400 
     52 C2          7.552166   -6.767309    9.354378 C.3       3 PIP3       -0.055800 
     53 C3          8.669545   -6.239926   10.283198 C.3       3 PIP3       -0.029200 
     54 C4          8.405369   -4.756024   10.658172 C.3       3 PIP3       -0.142300 
     55 C5          7.002921   -4.576886   11.298023 C.3       3 PIP3       -0.020700 
     56 C6          5.910110   -5.157719   10.369016 C.3       3 PIP3       -0.040900 
     57 O          10.221612   -3.373726   11.301515 O.2       5 CO2        -0.607000 
     58 O           9.564626   -4.974966   12.774244 O.3       5 CO2        -0.640900 
     59 C1         10.555396   -4.499393   13.716656 C.3       6 CYCLOHEXYL    0.468700 
     60 H2          3.165077   -4.667339   16.424904 H         4 NAPHTHALENE    0.164800 
     61 H3          5.431720   -3.643727   16.554052 H         4 NAPHTHALENE    0.172600 
     62 H4          7.345879   -4.818307   15.551449 H         4 NAPHTHALENE    0.204600 
     63 H5          8.265608   -6.629821   14.179137 H         4 NAPHTHALENE    0.171000 
     64 H6          8.010238   -8.791051   13.059368 H         4 NAPHTHALENE    0.199800 
     65 H8          3.803890   -8.711955   13.951984 H         4 NAPHTHALENE    0.224000 
     66 C2         11.148310   -5.725794   14.463629 C.3       6 CYCLOHEXYL   -0.225900 
     67 C3         12.243615   -5.272932   15.459143 C.3       6 CYCLOHEXYL   -0.121900 
     68 C4         11.631227   -4.284363   16.485283 C.3       6 CYCLOHEXYL   -0.041000 
     69 C5         11.017979   -3.050237   15.761736 C.3       6 CYCLOHEXYL   -0.044500 
     70 C6          9.950909   -3.494933   14.734670 C.3       6 CYCLOHEXYL   -0.258900 
     71 ****       11.417661   -4.036801   13.221925 H         6 CYCLOHEXYL    0.066200 
     72 ****       11.561682   -6.428701   13.716038 H         6 CYCLOHEXYL    0.058700 
     73 ****       10.397327   -6.265007   15.060704 H         6 CYCLOHEXYL    0.109900 
     74 ****       12.655120   -6.154728   15.980454 H         6 CYCLOHEXYL    0.057100 
     75 ****       13.067550   -4.783171   14.914672 H         6 CYCLOHEXYL    0.070800 
     76 ****       10.861730   -4.811680   17.081623 H         6 CYCLOHEXYL    0.033300 
     77 ****       12.418041   -3.949626   17.184586 H         6 CYCLOHEXYL    0.028400 
     78 ****       10.555254   -2.389906   16.512529 H         6 CYCLOHEXYL    0.040400 
     79 ****       11.800613   -2.493404   15.234995 H         6 CYCLOHEXYL    0.046700 
     80 ****        9.185963   -3.983047   15.341468 H         6 CYCLOHEXYL    0.076900 
     81 ****        9.476442   -2.648503   14.212104 H         6 CYCLOHEXYL    0.085300 
@<TRIPOS>BOND
     1   27   32 1    
     2   30   31 ar   
     3   30   35 ar   
     4   30   63 1    
     5   35    4 ar   
     6   35   34 ar   
     7   34    1 ar   
     8   38    5 1    
     9   39    6 1    
    10   39    7 1    
    11   41    8 1    
    12   42    9 1    
    13   44   10 1    
    14   45   11 1    
    15   48   12 1    
    16   49   13 1    
    17   49   14 1    
    18   50   15 1    
    19   50   16 1    
    20   52   17 1    
    21   52   18 1    
    22   53   19 1    
    23   53   20 1    
    24   54   21 1    
    25   22   57 2    
    26   55   23 1    
    27   55   24 1    
    28   56   25 1    
    29   56   26 1    
    30   34   33 ar   
    31   27   29 2    
    32   27   28 2    
    33   33   32 ar   
    34   33   65 1    
    35   32   31 ar   
    36   31   64 1    
    37    1    2 ar   
    38    1   36 1    
    39   37   47 2    
    40   38   37 1    
    41   38   48 1    
    42   39   38 1    
    43   40   39 1    
    44   40   42 ar   
    45   41   40 ar   
    46   43   41 ar   
    47   46   43 1    
    48   43   45 ar   
    49   45   44 ar   
    50   44   42 ar   
    51   46   50 ar   
    52   46   49 ar   
    53   51   56 1    
    54   52   51 1    
    55   53   52 1    
    56   54   53 1    
    57   54   55 1    
    58   55   56 1    
    59   37   51 am   
    60   48   27 1    
    61   22   58 1    
    62   54   22 1    
    63   59   66 1    
    64    2    3 ar   
    65    2   60 1    
    66    3    4 ar   
    67    3   61 1    
    68    4   62 1    
    69   59   70 1    
    70   70   69 1    
    71   69   68 1    
    72   68   67 1    
    73   67   66 1    
    74   58   59 1    
    75   59   71 1    
    76   66   72 1    
    77   66   73 1    
    78   67   74 1    
    79   67   75 1    
    80   68   76 1    
    81   68   77 1    
    82   69   78 1    
    83   69   79 1    
    84   70   80 1    
    85   70   81 1    
@<TRIPOS>SUBSTRUCTURE
     1 TOS1       27 GROUP             0 I     ****    2  
     2 APM2       37 GROUP             0 I     ****    2 ROOT 
     3 PIP3       51 GROUP             0 I     ****    2  
     4 NAPHTHALENE    30 PERM              0 ****  ****    1  
     5 CO2        22 PERM              0 ****  ****    2  
     6 CYCLOHEXYL    59 PERM              0 ****  ****    1  
@<TRIPOS>SET
UNK_ATOMS       STATIC     ATOMS    AMSOM    **** 
30 27 28 29 0 0 0 0 0 0 0 37 38 39 40 41 42 43 44 45 \
 46 47 48 49 50 51 52 53 54 55 56
LAB$B_TYPE      STATIC     BONDS    LABELGROUP SYSTEM 
0
@<TRIPOS>NORMAL
@<TRIPOS>FF_PBC
FORCE_FIELD_SETUP_FEATURE Force Field Setup information
v1.0  0 0.000000 0.000000 0.000000 0.000000 0.000000 0.000000 NONE 0 0 0 0 0 0 0 0 0 0 0 0 0
