#	Name:			59
#	Creating user name:	jeff
#	Creation time:		Fri Dec 13 10:11:50 2002

#	Modifying user name:	jeff
#	Modification time:	Fri Dec 13 10:11:54 2002

@<TRIPOS>MOLECULE
59
   69    72     5     1     2
SMALL
USER_CHARGES


@<TRIPOS>ATOM
      1 C1          3.900581   -6.357989   15.284226 C.ar      4 NAPHTHALENE   -0.239700 
      2 C2          4.076197   -5.144736   15.955078 C.ar      4 NAPHTHALENE   -0.125100 
      3 C3          5.347166   -4.570643   16.034157 C.ar      4 NAPHTHALENE   -0.065400 
      4 C4          6.440194   -5.211371   15.444421 C.ar      4 NAPHTHALENE   -0.313000 
      5 ****        6.763258   -9.282256   10.360381 H         2 APM2        0.151400 
      6 ****        5.250056  -10.516601    8.656615 H         2 APM2        0.151200 
      7 ****        6.132296   -9.123444    8.011765 H         2 APM2        0.116400 
      8 ****        2.750235  -10.462524    8.539919 H         2 APM2        0.204600 
      9 ****        5.033746   -6.939669    7.684065 H         2 APM2        0.186900 
     10 ****        2.969690   -5.716448    7.107376 H         2 APM2        0.204600 
     11 ****        0.776834   -6.834773    7.298853 H         2 APM2        0.160000 
     12 ****        3.948915   -9.879846   10.949307 H         2 APM2        0.397300 
     13 ****       -1.632514   -9.409525    7.096774 H         2 APM2        0.567500 
     14 ****       -0.570039   -8.094895    6.572593 H         2 APM2        0.554700 
     15 ****        0.860188  -10.952773    9.086411 H         2 APM2        0.539100 
     16 ****       -0.804357  -11.062953    8.491836 H         2 APM2        0.569300 
     17 C           7.708472   -5.923391    8.122894 C.2       5 CO2         0.999400 
     18 ****        7.837006   -7.722548    9.198953 H         3 PIP3        0.131800 
     19 ****        9.688163   -6.313632   10.092728 H         3 PIP3        0.026400 
     20 ****        8.557923   -6.743370   11.397761 H         3 PIP3        0.066200 
     21 ****        8.458543   -4.077758    9.825497 H         3 PIP3        0.095700 
     22 ****        9.189787   -4.280524   11.432595 H         3 PIP3        0.084000 
     23 ****        6.810827   -3.430089   11.598082 H         3 PIP3        0.045200 
     24 ****        7.022473   -5.013025   12.388998 H         3 PIP3        0.010800 
     25 ****        4.966404   -5.072945   11.104326 H         3 PIP3        0.090800 
     26 ****        5.741965   -4.462529    9.678559 H         3 PIP3        0.087700 
     27 S           5.658054  -10.414402   12.606208 S.o2      1 TOS1        2.258600 
     28 O1          6.940857  -11.017545   12.299341 O.2       1 TOS1       -0.927700 
     29 O2          4.657772  -11.180311   13.324119 O.2       1 TOS1       -0.955300 
     30 C5          7.360663   -7.080493   14.187382 C.ar      4 NAPHTHALENE   -0.283700 
     31 C6          7.182695   -8.293781   13.517066 C.ar      4 NAPHTHALENE   -0.101800 
     32 C7          5.913697   -8.873889   13.448885 C.ar      4 NAPHTHALENE   -0.450500 
     33 C8          4.821336   -8.219482   14.022510 C.ar      4 NAPHTHALENE   -0.187500 
     34 C9          4.993440   -7.003356   14.693834 C.ar      4 NAPHTHALENE    0.162600 
     35 C10         6.269535   -6.429990   14.775836 C.ar      4 NAPHTHALENE    0.213400 
     36 H1          2.907139   -6.792629   15.228287 H         4 NAPHTHALENE    0.188900 
     37 C           5.477738   -7.526375   10.440579 C.2       2 APM2        0.447600 
     38 CA          5.720233   -8.999687   10.156585 C.3       2 APM2        0.207500 
     39 CB          5.332677   -9.419266    8.708479 C.3       2 APM2       -0.359600 
     40 CG          4.023456   -8.755254    8.241614 C.ar      2 APM2        0.142400 
     41 CD1         2.787521   -9.418550    8.248464 C.ar      2 APM2       -0.145900 
     42 CD2         4.077639   -7.437973    7.779182 C.ar      2 APM2        0.009900 
     43 CE1         1.614023   -8.750392    7.869732 C.ar      2 APM2       -0.374500 
     44 CE2         2.913316   -6.750194    7.434268 C.ar      2 APM2       -0.192800 
     45 CZ          1.679112   -7.398869    7.513331 C.ar      2 APM2       -0.053600 
     46 CF          0.270369   -9.459896    7.833806 C.cat     2 APM2        1.105400 
     47 O           4.421595   -7.326816   11.020950 O.2       2 APM2       -0.582100 
     48 N           4.932970   -9.782740   11.103401 N.am      2 APM2       -0.957800 
     49 NG1        -0.707959   -8.953278    7.125706 N.pl3     2 APM2       -1.042600 
     50 NG2         0.099381  -10.566067    8.510278 N.pl3     2 APM2       -0.995700 
     51 N1          6.304363   -6.479816   10.116656 N.am      3 PIP3       -0.216000 
     52 C2          7.603747   -6.677603    9.441961 C.3       3 PIP3       -0.401700 
     53 C3          8.659847   -6.169333   10.460911 C.3       3 PIP3        0.061900 
     54 C4          8.410302   -4.666924   10.755740 C.3       3 PIP3       -0.246800 
     55 C5          7.019088   -4.498176   11.416929 C.3       3 PIP3        0.066200 
     56 C6          5.907452   -5.121414   10.537151 C.3       3 PIP3       -0.041700 
     57 ****        9.387093   -6.905743    7.426294 H         5 CO2         0.488500 
     58 ****        9.713100   -4.941979    5.895000 H         5 CO2         0.101500 
     59 H2          3.226242   -4.649247   16.414280 H         4 NAPHTHALENE    0.166000 
     60 H3          5.484518   -3.627307   16.553925 H         4 NAPHTHALENE    0.166000 
     61 H4          7.421745   -4.752173   15.511506 H         4 NAPHTHALENE    0.197700 
     62 H5          8.355280   -6.648473   14.244490 H         4 NAPHTHALENE    0.209000 
     63 H6          8.031182   -8.783318   13.051536 H         4 NAPHTHALENE    0.189800 
     64 H8          3.836887   -8.667869   13.940341 H         4 NAPHTHALENE    0.221100 
     65 O           6.892578   -5.056824    7.865003 O.2       5 CO2        -0.642300 
     66 N           8.693495   -6.209955    7.236741 N.am      5 CO2        -0.863800 
     67 ****        8.779465   -5.523015    5.944750 C.3       5 CO2        -0.030900 
     68 ****        7.940268   -4.839272    5.736808 H         5 CO2         0.113300 
     69 ****        8.800627   -6.278830    5.144767 H         5 CO2         0.061200 
@<TRIPOS>BOND
     1   27   32 1    
     2   30   31 ar   
     3   30   35 ar   
     4   30   62 1    
     5   35    4 ar   
     6   35   34 ar   
     7   34    1 ar   
     8   38    5 1    
     9   39    6 1    
    10   39    7 1    
    11   41    8 1    
    12   42    9 1    
    13   44   10 1    
    14   45   11 1    
    15   48   12 1    
    16   49   13 1    
    17   49   14 1    
    18   50   15 1    
    19   50   16 1    
    20   17   65 2    
    21   52   18 1    
    22   53   19 1    
    23   53   20 1    
    24   54   21 1    
    25   54   22 1    
    26   55   23 1    
    27   55   24 1    
    28   56   25 1    
    29   56   26 1    
    30   34   33 ar   
    31   27   29 2    
    32   27   28 2    
    33   33   32 ar   
    34   33   64 1    
    35   32   31 ar   
    36   31   63 1    
    37    1    2 ar   
    38    1   36 1    
    39   37   47 2    
    40   38   37 1    
    41   38   48 1    
    42   39   38 1    
    43   40   39 1    
    44   40   42 ar   
    45   41   40 ar   
    46   43   41 ar   
    47   46   43 1    
    48   43   45 ar   
    49   45   44 ar   
    50   44   42 ar   
    51   46   50 ar   
    52   46   49 ar   
    53   51   56 1    
    54   52   51 1    
    55   53   52 1    
    56   54   53 1    
    57   54   55 1    
    58   55   56 1    
    59   37   51 am   
    60   48   27 1    
    61   66   57 1    
    62   67   58 1    
    63    2    3 ar   
    64    2   59 1    
    65    3    4 ar   
    66    3   60 1    
    67    4   61 1    
    68   66   17 am   
    69   52   17 1    
    70   66   67 1    
    71   67   68 1    
    72   67   69 1    
@<TRIPOS>SUBSTRUCTURE
     1 TOS1       27 GROUP             0 I     ****    2  
     2 APM2       37 GROUP             0 I     ****    2 ROOT 
     3 PIP3       51 GROUP             0 I     ****    2  
     4 NAPHTHALENE    30 PERM              0 ****  ****    1  
     5 CO2        17 PERM              0 ****  ****    1  
@<TRIPOS>SET
UNK_ATOMS       STATIC     ATOMS    AMSOM    **** 
30 27 28 29 0 0 0 0 0 0 0 37 38 39 40 41 42 43 44 45 \
 46 47 48 49 50 51 52 53 54 55 56
LAB$B_TYPE      STATIC     BONDS    LABELGROUP SYSTEM 
0
@<TRIPOS>NORMAL
@<TRIPOS>FF_PBC
FORCE_FIELD_SETUP_FEATURE Force Field Setup information
v1.0  0 0.000000 0.000000 0.000000 0.000000 0.000000 0.000000 NONE 0 0 0 0 0 0 0 0 0 0 0 0 0
