#	Name:			60
#	Creating user name:	jeff
#	Creation time:		Fri Dec 13 10:11:54 2002

#	Modifying user name:	jeff
#	Modification time:	Fri Dec 13 10:11:58 2002

@<TRIPOS>MOLECULE
60
   61    64     5     1     4
SMALL
USER_CHARGES


@<TRIPOS>ATOM
      1 C1          3.891156   -6.355130   15.304393 C.ar      4 NAPHTHALENE   -0.252800 
      2 C2          4.060844   -5.141026   15.973552 C.ar      4 NAPHTHALENE   -0.135000 
      3 C3          5.329077   -4.561899   16.054928 C.ar      4 NAPHTHALENE   -0.102700 
      4 C4          6.425802   -5.200888   15.466726 C.ar      4 NAPHTHALENE   -0.286100 
      5 ****        6.652411   -9.460530   10.254744 H         2 APM2        0.154600 
      6 ****        5.059453  -10.569606    8.617763 H         2 APM2        0.246700 
      7 ****        6.041578   -9.259774    7.981959 H         2 APM2        0.276500 
      8 ****        2.694618  -10.396089    8.454699 H         2 APM2        0.214300 
      9 ****        5.079009   -6.905805    7.726561 H         2 APM2        0.197300 
     10 ****        3.057945   -5.663127    7.033297 H         2 APM2        0.182000 
     11 ****        0.835751   -6.721736    7.186822 H         2 APM2        0.143600 
     12 ****        3.859984   -9.939663   11.030811 H         2 APM2        0.391900 
     13 ****       -1.636337   -9.359443    7.052202 H         2 APM2        0.549900 
     14 ****       -0.586935   -8.042813    6.507976 H         2 APM2        0.544300 
     15 ****        0.861884  -10.856464    9.066423 H         2 APM2        0.545700 
     16 ****       -0.789738  -10.993684    8.454140 H         2 APM2        0.562100 
     17 C           8.695029   -7.487108   10.268880 C.2       5 CO2         0.658100 
     18 N1          6.386200   -6.658295   10.097520 N.am      3 PYRROLIDINE   -0.496100 
     19 C1          6.086968   -5.266090   10.412649 C.3       3 PYRROLIDINE   -0.090600 
     20 C2          7.417313   -4.575782   10.039288 C.3       3 PYRROLIDINE    0.058000 
     21 C3          7.921971   -5.467395    8.883521 C.3       3 PYRROLIDINE   -0.357100 
     22 C4          7.621029   -6.917771    9.366380 C.3       3 PYRROLIDINE    0.407200 
     23 O           8.669420   -7.250117   11.503730 O.co2     5 CO2        -0.888100 
     24 H2          5.829653   -5.103111   11.469804 H         3 PYRROLIDINE    0.092900 
     25 H3          5.270009   -4.903588    9.766086 H         3 PYRROLIDINE    0.072800 
     26 H4          8.125801   -4.636989   10.881401 H         3 PYRROLIDINE    0.060000 
     27 S           5.643002  -10.405530   12.608049 S.o2      1 TOS1        2.294800 
     28 O1          6.922788  -10.976651   12.235468 O.2       1 TOS1       -0.947000 
     29 O2          4.707299  -11.204011   13.375029 O.2       1 TOS1       -1.048100 
     30 C5          7.354921   -7.079411   14.223719 C.ar      4 NAPHTHALENE   -0.273100 
     31 C6          7.186358   -8.322101   13.606411 C.ar      4 NAPHTHALENE   -0.066300 
     32 C7          5.911244   -8.878277   13.481098 C.ar      4 NAPHTHALENE   -0.477000 
     33 C8          4.817330   -8.212807   14.041215 C.ar      4 NAPHTHALENE   -0.162800 
     34 C9          4.987236   -6.998851   14.714313 C.ar      4 NAPHTHALENE    0.109500 
     35 C10         6.260957   -6.421032   14.801742 C.ar      4 NAPHTHALENE    0.254300 
     36 H1          2.899995   -6.794090   15.247760 H         4 NAPHTHALENE    0.175400 
     37 C           5.501315   -7.627522   10.461809 C.2       2 APM2        0.591100 
     38 CA          5.620956   -9.106896   10.142200 C.3       2 APM2        0.506500 
     39 CB          5.228571   -9.483358    8.685643 C.3       2 APM2       -0.801700 
     40 CG          3.996683   -8.714753    8.205652 C.ar      2 APM2        0.304200 
     41 CD1         2.750627   -9.348100    8.184881 C.ar      2 APM2       -0.135800 
     42 CD2         4.109320   -7.391087    7.768946 C.ar      2 APM2       -0.076000 
     43 CE1         1.600309   -8.653393    7.804072 C.ar      2 APM2       -0.391100 
     44 CE2         2.968399   -6.688952    7.378710 C.ar      2 APM2       -0.177700 
     45 CZ          1.714323   -7.307363    7.433338 C.ar      2 APM2       -0.074400 
     46 CF          0.264205   -9.378208    7.789292 C.cat     2 APM2        1.092500 
     47 O           4.508068   -7.317016   11.100273 O.2       2 APM2       -0.725200 
     48 N           4.850439   -9.838376   11.145501 N.am      2 APM2       -1.035400 
     49 NG1        -0.717556   -8.892589    7.074748 N.pl3     2 APM2       -1.044300 
     50 NG2         0.104432  -10.481202    8.478044 N.pl3     2 APM2       -0.969700 
     51 H5          7.287942   -3.514765    9.764212 H         3 PYRROLIDINE    0.016600 
     52 H6          8.977229   -5.277671    8.631840 H         3 PYRROLIDINE    0.132100 
     53 H7          7.307070   -5.226274    7.997347 H         3 PYRROLIDINE    0.067700 
     54 H8          7.477525   -7.567177    8.493408 H         3 PYRROLIDINE   -0.081700 
     55 O           9.590784   -8.202673    9.748807 O.co2     5 CO2        -0.964600 
     56 H2          3.207775   -4.647374   16.430162 H         4 NAPHTHALENE    0.144900 
     57 H3          5.461930   -3.617879   16.574606 H         4 NAPHTHALENE    0.149200 
     58 H4          7.404909   -4.736666   15.536539 H         4 NAPHTHALENE    0.197300 
     59 H5          8.343366   -6.630740   14.254364 H         4 NAPHTHALENE    0.249500 
     60 H6          8.049437   -8.859111   13.228258 H         4 NAPHTHALENE    0.209500 
     61 H8          3.832789   -8.657647   13.947945 H         4 NAPHTHALENE    0.207400 
@<TRIPOS>BOND
     1   27   32 1    
     2   30   31 ar   
     3   30   35 ar   
     4   30   59 1    
     5   35    4 ar   
     6   35   34 ar   
     7   34    1 ar   
     8   38    5 1    
     9   39    6 1    
    10   39    7 1    
    11   41    8 1    
    12   42    9 1    
    13   44   10 1    
    14   45   11 1    
    15   48   12 1    
    16   49   13 1    
    17   49   14 1    
    18   50   15 1    
    19   50   16 1    
    20   37   18 am   
    21   18   19 1    
    22   18   22 1    
    23   17   23 ar   
    24   22   21 1    
    25   22   54 1    
    26   22   17 1    
    27   21   20 1    
    28   21   52 1    
    29   21   53 1    
    30   34   33 ar   
    31   27   29 2    
    32   27   28 2    
    33   33   32 ar   
    34   33   61 1    
    35   32   31 ar   
    36   31   60 1    
    37    1    2 ar   
    38    1   36 1    
    39   37   47 2    
    40   38   37 1    
    41   38   48 1    
    42   39   38 1    
    43   40   39 1    
    44   40   42 ar   
    45   41   40 ar   
    46   43   41 ar   
    47   46   43 1    
    48   43   45 ar   
    49   45   44 ar   
    50   44   42 ar   
    51   46   50 ar   
    52   46   49 ar   
    53   20   19 1    
    54   20   26 1    
    55   20   51 1    
    56   19   24 1    
    57   19   25 1    
    58   17   55 ar   
    59   48   27 1    
    60    2    3 ar   
    61    2   56 1    
    62    3    4 ar   
    63    3   57 1    
    64    4   58 1    
@<TRIPOS>SUBSTRUCTURE
     1 TOS1       27 GROUP             0 I     ****    2  
     2 APM2       37 GROUP             0 I     ****    2 ROOT 
     3 PYRROLIDINE    18 PERM              0 ****  ****    2  
     4 NAPHTHALENE    30 PERM              0 ****  ****    1  
     5 CO2        17 PERM              0 ****  ****    1  
@<TRIPOS>SET
UNK_ATOMS       STATIC     ATOMS    AMSOM    **** 
30 27 28 29 0 0 0 0 0 0 0 37 38 39 40 41 42 43 44 45 \
 46 47 48 49 50 0 0 0 0 0 0
LAB$B_TYPE      STATIC     BONDS    LABELGROUP SYSTEM 
0
ATOM$WHITE      STATIC     ATOMS    COLORGROUP SYSTEM 
0
ATOM$BY_TYPE    STATIC     ATOMS    COLORGROUP SYSTEM 
61 1 2 3 4 5 6 7 8 9 10 11 12 13 14 15 16 17 18 19 \
 20 21 22 23 24 25 26 27 28 29 30 31 32 33 34 35 36 37 \
 38 39 40 41 42 43 44 45 46 47 48 49 50 51 52 53 54 55 \
 56 57 58 59 60 61
@<TRIPOS>NORMAL
@<TRIPOS>FF_PBC
FORCE_FIELD_SETUP_FEATURE Force Field Setup information
v1.0  0 0.000000 0.000000 0.000000 0.000000 0.000000 0.000000 NONE 0 0 0 0 0 0 0 0 0 0 0 0 0
