#	Name:			61
#	Creating user name:	jeff
#	Creation time:		Fri Dec 13 10:11:58 2002

#	Modifying user name:	jeff
#	Modification time:	Fri Dec 13 10:12:02 2002

@<TRIPOS>MOLECULE
61
   79    83     6     1     2
SMALL
USER_CHARGES


@<TRIPOS>ATOM
      1 C1          3.901972   -6.364713   15.295701 C.ar      4 NAPHTHALENE   -0.250500 
      2 C2          4.070575   -5.149025   15.964900 C.ar      4 NAPHTHALENE   -0.133700 
      3 C3          5.338501   -4.569303   16.046135 C.ar      4 NAPHTHALENE   -0.074600 
      4 C4          6.435716   -5.205224   15.459776 C.ar      4 NAPHTHALENE   -0.230400 
      5 ****        6.777688   -9.301480   10.390913 H         2 APM2        0.095700 
      6 ****        5.249731  -10.495186    8.656765 H         2 APM2        0.164600 
      7 ****        6.165480   -9.119127    8.036042 H         2 APM2        0.131700 
      8 ****        2.799881  -10.391508    8.510369 H         2 APM2        0.211800 
      9 ****        5.110822   -6.862738    7.735984 H         2 APM2        0.188600 
     10 ****        3.066491   -5.664840    7.054299 H         2 APM2        0.200500 
     11 ****        0.869941   -6.761121    7.218653 H         2 APM2        0.160300 
     12 ****        3.972036   -9.930470   10.979551 H         2 APM2        0.431200 
     13 ****       -1.459654   -9.574359    6.834333 H         2 APM2        0.569100 
     14 ****       -0.313325   -8.434440    6.118772 H         2 APM2        0.556300 
     15 ****        0.695189  -10.490572    9.480747 H         2 APM2        0.564500 
     16 ****       -0.867073  -10.778302    8.703784 H         2 APM2        0.577300 
     17 ****        7.554522   -6.198109    8.419503 H         3 PIP3        0.096000 
     18 ****        7.806347   -7.804946    9.105662 H         3 PIP3        0.059100 
     19 ****        9.662449   -6.305297    9.777280 H         3 PIP3        0.097800 
     20 ****        8.711982   -6.825368   11.197999 H         3 PIP3        0.021300 
     21 ****        8.430821   -4.140830    9.694378 H         3 PIP3        0.163400 
     22 C           9.461072   -4.269241   11.600835 C.2       5 CO2         0.855700 
     23 ****        6.820145   -3.494189   11.476028 H         3 PIP3        0.060100 
     24 ****        6.985729   -5.092774   12.251995 H         3 PIP3        0.019600 
     25 ****        4.938544   -5.042944   10.873791 H         3 PIP3        0.096700 
     26 ****        5.869318   -4.584184    9.433695 H         3 PIP3        0.077900 
     27 S           5.680442  -10.416651   12.622318 S.o2      1 TOS1        2.306200 
     28 O1          6.967639  -11.009950   12.315411 O.2       1 TOS1       -0.938700 
     29 O2          4.692950  -11.190340   13.348610 O.2       1 TOS1       -0.975500 
     30 C5          7.367321   -7.072580   14.207558 C.ar      4 NAPHTHALENE   -0.230300 
     31 C6          7.195584   -8.285899   13.534344 C.ar      4 NAPHTHALENE   -0.099600 
     32 C7          5.929959   -8.873157   13.464987 C.ar      4 NAPHTHALENE   -0.460500 
     33 C8          4.834919   -8.224762   14.040103 C.ar      4 NAPHTHALENE   -0.215900 
     34 C9          4.999682   -7.006041   14.708849 C.ar      4 NAPHTHALENE    0.194400 
     35 C10         6.272022   -6.425730   14.792377 C.ar      4 NAPHTHALENE    0.145200 
     36 H1          2.911063   -6.804029   15.238559 H         4 NAPHTHALENE    0.193400 
     37 C           5.488813   -7.559591   10.482038 C.2       2 APM2        0.586300 
     38 CA          5.731892   -9.026953   10.192077 C.3       2 APM2        0.384800 
     39 CB          5.357922   -9.401611    8.727397 C.3       2 APM2       -0.468600 
     40 CG          4.080058   -8.693456    8.242745 C.ar      2 APM2        0.202100 
     41 CD1         2.840397   -9.347005    8.225352 C.ar      2 APM2       -0.135900 
     42 CD2         4.155477   -7.371507    7.791256 C.ar      2 APM2       -0.063700 
     43 CE1         1.672093   -8.678559    7.832971 C.ar      2 APM2       -0.400100 
     44 CE2         2.999928   -6.691281    7.401594 C.ar      2 APM2       -0.177100 
     45 CZ          1.760075   -7.332419    7.460951 C.ar      2 APM2       -0.046400 
     46 CF          0.328190   -9.390288    7.803914 C.cat     2 APM2        1.140000 
     47 O           4.476532   -7.336074   11.127683 O.2       2 APM2       -0.613100 
     48 N           4.953217   -9.816233   11.138707 N.am      2 APM2       -1.087700 
     49 NG1        -0.538419   -9.111439    6.861149 N.pl3     2 APM2       -1.050500 
     50 NG2         0.035742  -10.280003    8.719166 N.pl3     2 APM2       -1.027900 
     51 N1          6.297466   -6.538757   10.068936 N.am      3 PIP3       -0.480800 
     52 C2          7.563721   -6.767319    9.363663 C.3       3 PIP3        0.035600 
     53 C3          8.683798   -6.218536   10.277964 C.3       3 PIP3       -0.051700 
     54 C4          8.407288   -4.732265   10.624196 C.3       3 PIP3       -0.384500 
     55 C5          7.015399   -4.562826   11.286988 C.3       3 PIP3        0.040400 
     56 C6          5.915922   -5.155731   10.375667 C.3       3 PIP3        0.013300 
     57 O          10.175720   -3.339097   11.254154 O.2       5 CO2        -0.625500 
     58 N           9.596183   -4.867560   12.807043 N.am      5 CO2        -0.798200 
     59 ****       10.633324   -4.372915   13.701193 C.3       5 CO2        -0.137300 
     60 H2          3.216897   -4.656756   16.420673 H         4 NAPHTHALENE    0.175400 
     61 H3          5.470231   -3.624893   16.566336 H         4 NAPHTHALENE    0.165500 
     62 H4          7.415234   -4.741333   15.528235 H         4 NAPHTHALENE    0.152400 
     63 H5          8.360052   -6.639283   14.271355 H         4 NAPHTHALENE    0.192800 
     64 H6          8.047742   -8.768751   13.068833 H         4 NAPHTHALENE    0.193500 
     65 H8          3.853389   -8.679947   13.960435 H         4 NAPHTHALENE    0.232300 
     66 ****       10.427918   -3.315285   13.935385 H         5 CO2         0.116300 
     67 ****       11.610434   -4.431697   13.193648 H         5 CO2         0.168200 
     68 ****       12.081249   -6.641383   14.227902 H         6 PHENYL      0.178600 
     69 C          10.714256   -5.164090   15.010707 C.ar      6 PHENYL      0.102000 
     70 C          11.536800   -6.291287   15.100006 C.ar      6 PHENYL     -0.234600 
     71 C          11.668815   -6.971808   16.313757 C.ar      6 PHENYL     -0.113200 
     72 C          10.950895   -6.536960   17.433006 C.ar      6 PHENYL     -0.158800 
     73 C          10.101073   -5.432799   17.339384 C.ar      6 PHENYL     -0.146400 
     74 C           9.973706   -4.754434   16.124739 C.ar      6 PHENYL     -0.193500 
     75 ****       12.328294   -7.831396   16.387112 H         6 PHENYL      0.149700 
     76 ****       11.054332   -7.063331   18.378819 H         6 PHENYL      0.162900 
     77 ****        9.542118   -5.097754   18.207651 H         6 PHENYL      0.162100 
     78 ****        9.301320   -3.906612   16.052759 H         6 PHENYL      0.171400 
     79 ****        9.012108   -5.627135   13.111441 H         5 CO2         0.463500 
@<TRIPOS>BOND
     1   27   32 1    
     2   30   31 ar   
     3   30   35 ar   
     4   30   63 1    
     5   35    4 ar   
     6   35   34 ar   
     7   34    1 ar   
     8   38    5 1    
     9   39    6 1    
    10   39    7 1    
    11   41    8 1    
    12   42    9 1    
    13   44   10 1    
    14   45   11 1    
    15   48   12 1    
    16   49   13 1    
    17   49   14 1    
    18   50   15 1    
    19   50   16 1    
    20   52   17 1    
    21   52   18 1    
    22   53   19 1    
    23   53   20 1    
    24   54   21 1    
    25   22   57 2    
    26   55   23 1    
    27   55   24 1    
    28   56   25 1    
    29   56   26 1    
    30   34   33 ar   
    31   27   29 2    
    32   27   28 2    
    33   33   32 ar   
    34   33   65 1    
    35   32   31 ar   
    36   31   64 1    
    37    1    2 ar   
    38    1   36 1    
    39   37   47 2    
    40   38   37 1    
    41   38   48 1    
    42   39   38 1    
    43   40   39 1    
    44   40   42 ar   
    45   41   40 ar   
    46   43   41 ar   
    47   46   43 1    
    48   43   45 ar   
    49   45   44 ar   
    50   44   42 ar   
    51   46   50 ar   
    52   46   49 ar   
    53   51   56 1    
    54   52   51 1    
    55   53   52 1    
    56   54   53 1    
    57   54   55 1    
    58   55   56 1    
    59   37   51 am   
    60   48   27 1    
    61   22   58 am   
    62   54   22 1    
    63   58   59 1    
    64    2    3 ar   
    65    2   60 1    
    66    3    4 ar   
    67    3   61 1    
    68    4   62 1    
    69   59   66 1    
    70   59   67 1    
    71   59   69 1    
    72   69   70 ar   
    73   69   74 ar   
    74   74   73 ar   
    75   73   72 ar   
    76   72   71 ar   
    77   71   70 ar   
    78   70   68 1    
    79   71   75 1    
    80   72   76 1    
    81   73   77 1    
    82   74   78 1    
    83   58   79 1    
@<TRIPOS>SUBSTRUCTURE
     1 TOS1       27 GROUP             0 I     ****    2  
     2 APM2       37 GROUP             0 I     ****    2 ROOT 
     3 PIP3       51 GROUP             0 I     ****    2  
     4 NAPHTHALENE    30 PERM              0 ****  ****    1  
     5 CO2        22 PERM              0 ****  ****    2  
     6 PHENYL     69 PERM              0 ****  ****    1  
@<TRIPOS>SET
UNK_ATOMS       STATIC     ATOMS    AMSOM    **** 
30 27 28 29 0 0 0 0 0 0 0 37 38 39 40 41 42 43 44 45 \
 46 47 48 49 50 51 52 53 54 55 56
LAB$B_TYPE      STATIC     BONDS    LABELGROUP SYSTEM 
0
@<TRIPOS>NORMAL
@<TRIPOS>FF_PBC
FORCE_FIELD_SETUP_FEATURE Force Field Setup information
v1.0  0 0.000000 0.000000 0.000000 0.000000 0.000000 0.000000 NONE 0 0 0 0 0 0 0 0 0 0 0 0 0
