#	Name:			62
#	Creating user name:	jeff
#	Creation time:		Fri Dec 13 10:12:03 2002

#	Modifying user name:	jeff
#	Modification time:	Fri Dec 13 10:12:06 2002

@<TRIPOS>MOLECULE
62
   60    62     3     1     1
SMALL
USER_CHARGES


@<TRIPOS>ATOM
      1 C1          5.228862   -5.759643   15.092145 C.3       3 NAPHTHALENE   -0.090500 
      2 C2          5.869204   -4.352769   15.147915 C.3       3 NAPHTHALENE   -0.295300 
      3 C3          7.379787   -4.444000   15.498157 C.3       3 NAPHTHALENE    0.685000 
      4 ****        6.768998   -9.222105   10.353644 H         2 APM2        0.075000 
      5 ****        5.321352  -10.452344    8.604524 H         2 APM2        0.152300 
      6 ****        6.196118   -9.010742    8.056054 H         2 APM2        0.123100 
      7 ****        2.874742  -10.414123    8.379688 H         2 APM2        0.193700 
      8 ****        5.103025   -6.822838    7.698548 H         2 APM2        0.196700 
      9 ****        3.016208   -5.620248    7.144798 H         2 APM2        0.200400 
     10 ****        0.846129   -6.724570    7.429520 H         2 APM2        0.164100 
     11 ****        3.978524   -9.986422   10.955597 H         2 APM2        0.364900 
     12 ****       -1.581430   -9.334760    7.150880 H         2 APM2        0.567600 
     13 ****       -0.560961   -7.992387    6.634715 H         2 APM2        0.553000 
     14 ****        0.960093  -10.958097    8.991897 H         2 APM2        0.536500 
     15 ****       -0.704193  -11.041677    8.411863 H         2 APM2        0.570200 
     16 N16         6.341042   -6.626000   10.069939 N.am      2 APM2       -0.738300 
     17 ****        7.154026   -6.895248    9.549224 H         2 APM2        0.435400 
     18 C18         6.147117   -5.199892   10.329327 C.3       2 APM2       -0.054800 
     19 ****        7.016262   -4.803886   10.878748 H         2 APM2        0.106500 
     20 ****        5.244260   -4.978669   10.920004 H         2 APM2        0.106100 
     21 ****        6.064554   -4.664067    9.369971 H         2 APM2        0.087100 
     22 S           5.702736  -10.397307   12.614671 S.o2      1 TOS1        2.263300 
     23 O1          6.768432  -11.312743   12.256289 O.2       1 TOS1       -0.927500 
     24 O2          4.662325  -10.834608   13.525599 O.2       1 TOS1       -0.960800 
     25 O4          8.031264   -5.205453   14.467203 O.3       3 NAPHTHALENE   -0.544000 
     26 C5          8.293283   -7.371985   13.445558 C.ar      3 NAPHTHALENE   -0.420300 
     27 C6          7.764637   -8.591210   13.013043 C.ar      3 NAPHTHALENE    0.005800 
     28 C7          6.415192   -8.884714   13.229282 C.ar      3 NAPHTHALENE   -0.549000 
     29 C8          5.612454   -7.961359   13.902084 C.ar      3 NAPHTHALENE   -0.101000 
     30 C9          6.138111   -6.741590   14.344102 C.ar      3 NAPHTHALENE   -0.136300 
     31 C10         7.482882   -6.436319   14.095312 C.ar      3 NAPHTHALENE    0.542400 
     32 C           5.450924   -7.547323   10.506003 C.2       2 APM2        0.707700 
     33 CA          5.701425   -9.002092   10.187678 C.3       2 APM2        0.233500 
     34 CB          5.381520   -9.357550    8.708367 C.3       2 APM2       -0.379700 
     35 CG          4.100487   -8.668591    8.215068 C.ar      2 APM2        0.135400 
     36 CD1         2.877155   -9.349835    8.172223 C.ar      2 APM2       -0.105200 
     37 CD2         4.152916   -7.337970    7.787423 C.ar      2 APM2       -0.054700 
     38 CE1         1.686735   -8.677930    7.856912 C.ar      2 APM2       -0.366500 
     39 CE2         2.978362   -6.655205    7.466600 C.ar      2 APM2       -0.179000 
     40 CZ          1.748494   -7.309163    7.571045 C.ar      2 APM2       -0.056100 
     41 CF          0.346937   -9.396734    7.819827 C.cat     2 APM2        1.089000 
     42 O           4.448893   -7.261318   11.144555 O.2       2 APM2       -0.610000 
     43 N           4.946457   -9.810834   11.133268 N.am      2 APM2       -0.937700 
     44 NG1        -0.662984   -8.871118    7.163799 N.pl3     2 APM2       -1.033500 
     45 NG2         0.193816  -10.540295    8.444926 N.pl3     2 APM2       -0.984000 
     46 H5          9.339874   -7.145372   13.275702 H         3 NAPHTHALENE    0.249200 
     47 H6          8.405888   -9.304410   12.507422 H         3 NAPHTHALENE    0.202400 
     48 H8          4.568112   -8.195991   14.079505 H         3 NAPHTHALENE    0.210900 
     49 ****        5.061828   -6.152443   16.108414 H         3 NAPHTHALENE    0.072400 
     50 ****        4.248301   -5.697396   14.592406 H         3 NAPHTHALENE    0.091000 
     51 ****        5.772799   -3.887707   14.153203 H         3 NAPHTHALENE    0.085400 
     52 ****        5.332923   -3.722333   15.877114 H         3 NAPHTHALENE    0.113200 
     53 C18         8.005637   -3.021641   15.480868 C.3       3 NAPHTHALENE   -0.486400 
     54 C19         7.634517   -5.099252   16.885250 C.3       3 NAPHTHALENE   -0.360700 
     55 ****        7.532869   -2.380190   16.240978 H         3 NAPHTHALENE    0.128600 
     56 ****        7.867592   -2.555551   14.493370 H         3 NAPHTHALENE    0.108600 
     57 ****        9.085446   -3.072276   15.685817 H         3 NAPHTHALENE    0.146300 
     58 ****        7.098236   -4.546531   17.672560 H         3 NAPHTHALENE    0.105300 
     59 ****        8.710161   -5.080474   17.117798 H         3 NAPHTHALENE    0.101800 
     60 ****        7.312087   -6.149725   16.909136 H         3 NAPHTHALENE    0.083700 
@<TRIPOS>BOND
     1   22   28 1    
     2   26   27 ar   
     3   26   31 ar   
     4   26   46 1    
     5   31   25 1    
     6   31   30 ar   
     7   30    1 1    
     8   33    4 1    
     9   34    5 1    
    10   34    6 1    
    11   36    7 1    
    12   37    8 1    
    13   39    9 1    
    14   40   10 1    
    15   43   11 1    
    16   44   12 1    
    17   44   13 1    
    18   45   14 1    
    19   45   15 1    
    20   32   16 am   
    21   16   17 1    
    22   16   18 1    
    23   18   19 1    
    24   18   20 1    
    25   18   21 1    
    26   30   29 ar   
    27   22   24 2    
    28   22   23 2    
    29   29   48 1    
    30   29   28 ar   
    31   28   27 ar   
    32   27   47 1    
    33    1   50 1    
    34   32   42 2    
    35   33   32 1    
    36   33   43 1    
    37   34   33 1    
    38   35   34 1    
    39   35   37 ar   
    40   36   35 ar   
    41   38   36 ar   
    42   41   38 1    
    43   38   40 ar   
    44   40   39 ar   
    45   39   37 ar   
    46   41   45 ar   
    47   41   44 ar   
    48   43   22 1    
    49    1   49 1    
    50    1    2 1    
    51    2    3 1    
    52    2   52 1    
    53    2   51 1    
    54    3   54 1    
    55    3   53 1    
    56    3   25 1    
    57   53   57 1    
    58   53   56 1    
    59   53   55 1    
    60   54   60 1    
    61   54   59 1    
    62   54   58 1    
@<TRIPOS>SUBSTRUCTURE
     1 TOS1       22 GROUP             0 I     ****    2  
     2 APM2       32 GROUP             0 I     ****    1 ROOT 
     3 NAPHTHALENE    26 PERM              0 ****  ****    1  
@<TRIPOS>SET
UNK_ATOMS       STATIC     ATOMS    AMSOM    **** 
30 22 23 24 0 0 0 0 0 0 0 32 33 34 35 36 37 38 39 40 \
 41 42 43 44 45 0 0 0 0 0 0
@<TRIPOS>NORMAL
@<TRIPOS>FF_PBC
FORCE_FIELD_SETUP_FEATURE Force Field Setup information
v1.0  0 0.000000 0.000000 0.000000 0.000000 0.000000 0.000000 NONE 0 0 0 0 0 0 0 0 0 0 0 0 0
