#	Name:			63
#	Creating user name:	jeff
#	Creation time:		Fri Dec 13 10:12:06 2002

#	Modifying user name:	jeff
#	Modification time:	Fri Dec 13 10:12:09 2002

@<TRIPOS>MOLECULE
63
   52    54     3     1     2
SMALL
USER_CHARGES


@<TRIPOS>ATOM
      1 C1          3.901695   -6.368872   15.301475 C.ar      3 NAPHTHALENE   -0.251500 
      2 C2          4.065075   -5.152662   15.970159 C.ar      3 NAPHTHALENE   -0.122700 
      3 C3          5.330922   -4.569179   16.055622 C.ar      3 NAPHTHALENE   -0.041300 
      4 C4          6.430369   -5.205751   15.471864 C.ar      3 NAPHTHALENE   -0.320500 
      5 ****        6.763666   -9.232325   10.389132 H         2 APM2        0.060600 
      6 ****        5.275726  -10.470059    8.634432 H         2 APM2        0.140800 
      7 ****        6.177401   -9.062363    8.062733 H         2 APM2        0.111600 
      8 ****        2.804588  -10.385262    8.508469 H         2 APM2        0.188800 
      9 ****        5.111069   -6.850472    7.743143 H         2 APM2        0.199000 
     10 ****        3.071029   -5.666127    7.026785 H         2 APM2        0.197000 
     11 ****        0.873731   -6.760231    7.199050 H         2 APM2        0.153700 
     12 ****        3.989138   -9.999898   10.992738 H         2 APM2        0.384500 
     13 ****       -1.579352   -9.365773    7.061439 H         2 APM2        0.562500 
     14 ****       -0.527160   -8.062111    6.498841 H         2 APM2        0.545900 
     15 ****        0.893386  -10.862827    9.086569 H         2 APM2        0.556200 
     16 ****       -0.759792  -10.979156    8.471144 H         2 APM2        0.569500 
     17 N17         6.280506   -6.630478   10.123406 N.am      2 APM2       -0.702400 
     18 ****        7.098952   -6.870829    9.597963 H         2 APM2        0.436500 
     19 C19         6.052763   -5.216163   10.403066 C.3       2 APM2       -0.113000 
     20 ****        6.902020   -4.807122   10.972966 H         2 APM2        0.126600 
     21 ****        5.133242   -5.046986   10.985921 H         2 APM2        0.105200 
     22 ****        5.966519   -4.661956    9.454793 H         2 APM2        0.112800 
     23 S           5.706898  -10.420213   12.624641 S.o2      1 TOS1        2.276900 
     24 O1          7.001192  -10.996487   12.313774 O.2       1 TOS1       -0.926200 
     25 O2          4.730203  -11.205006   13.348902 O.2       1 TOS1       -0.985400 
     26 C5          7.365442   -7.064420   14.208449 C.ar      3 NAPHTHALENE   -0.301200 
     27 C6          7.201450   -8.282117   13.541778 C.ar      3 NAPHTHALENE   -0.125100 
     28 C7          5.938961   -8.875807   13.470697 C.ar      3 NAPHTHALENE   -0.436000 
     29 C8          4.840993   -8.230158   14.045731 C.ar      3 NAPHTHALENE   -0.188000 
     30 C9          4.999465   -7.009925   14.713607 C.ar      3 NAPHTHALENE    0.156900 
     31 C10         6.269711   -6.423668   14.799360 C.ar      3 NAPHTHALENE    0.239200 
     32 H1          2.911896   -6.809621   15.242995 H         3 NAPHTHALENE    0.192700 
     33 C           5.410812   -7.577107   10.550278 C.2       2 APM2        0.618700 
     34 CA          5.697607   -9.020009   10.211374 C.3       2 APM2        0.306200 
     35 CB          5.361253   -9.377280    8.732420 C.3       2 APM2       -0.345500 
     36 CG          4.079349   -8.683371    8.241053 C.ar      2 APM2        0.100300 
     37 CD1         2.842016   -9.341449    8.220722 C.ar      2 APM2       -0.071100 
     38 CD2         4.155954   -7.363175    7.787664 C.ar      2 APM2       -0.041000 
     39 CE1         1.672327   -8.677042    7.823618 C.ar      2 APM2       -0.382200 
     40 CE2         3.002099   -6.689418    7.384365 C.ar      2 APM2       -0.192700 
     41 CZ          1.762634   -7.331606    7.445114 C.ar      2 APM2       -0.019600 
     42 CF          0.326771   -9.387425    7.796820 C.cat     2 APM2        1.064600 
     43 O           4.405661   -7.324925   11.197271 O.2       2 APM2       -0.584000 
     44 N           4.964166   -9.844942   11.156937 N.am      2 APM2       -1.009600 
     45 NG1        -0.656324   -8.904422    7.076633 N.pl3     2 APM2       -1.015800 
     46 NG2         0.144199  -10.481836    8.492819 N.pl3     2 APM2       -0.984700 
     47 H2          3.210569   -4.661061   16.422915 H         3 NAPHTHALENE    0.167100 
     48 H3          5.459952   -3.624078   16.577347 H         3 NAPHTHALENE    0.161300 
     49 H4          7.408093   -4.740555   15.548212 H         3 NAPHTHALENE    0.199500 
     50 H5          8.354696   -6.621520   14.264722 H         3 NAPHTHALENE    0.217700 
     51 H6          8.056868   -8.768141   13.079972 H         3 NAPHTHALENE    0.204500 
     52 H8          3.862329   -8.691715   13.964899 H         3 NAPHTHALENE    0.224600 
@<TRIPOS>BOND
     1   23   28 1    
     2   26   27 ar   
     3   26   31 ar   
     4   26   50 1    
     5   31    4 ar   
     6   31   30 ar   
     7   30    1 ar   
     8   34    5 1    
     9   35    6 1    
    10   35    7 1    
    11   37    8 1    
    12   38    9 1    
    13   40   10 1    
    14   41   11 1    
    15   44   12 1    
    16   45   13 1    
    17   45   14 1    
    18   46   15 1    
    19   46   16 1    
    20   33   17 am   
    21   17   18 1    
    22   17   19 1    
    23   19   20 1    
    24   19   21 1    
    25   19   22 1    
    26   30   29 ar   
    27   23   25 2    
    28   23   24 2    
    29   29   28 ar   
    30   29   52 1    
    31   28   27 ar   
    32   27   51 1    
    33    1    2 ar   
    34    1   32 1    
    35   33   43 2    
    36   34   33 1    
    37   34   44 1    
    38   35   34 1    
    39   36   35 1    
    40   36   38 ar   
    41   37   36 ar   
    42   39   37 ar   
    43   42   39 1    
    44   39   41 ar   
    45   41   40 ar   
    46   40   38 ar   
    47   42   46 ar   
    48   42   45 ar   
    49   44   23 1    
    50    2    3 ar   
    51    2   47 1    
    52    3    4 ar   
    53    3   48 1    
    54    4   49 1    
@<TRIPOS>SUBSTRUCTURE
     1 TOS1       23 GROUP             0 I     ****    2  
     2 APM2       33 GROUP             0 I     ****    1 ROOT 
     3 NAPHTHALENE    26 PERM              0 ****  ****    1  
@<TRIPOS>SET
UNK_ATOMS       STATIC     ATOMS    AMSOM    **** 
30 23 24 25 0 0 0 0 0 0 0 33 34 35 36 37 38 39 40 41 \
 42 43 44 45 46 0 0 0 0 0 0
LAB$B_TYPE      STATIC     BONDS    LABELGROUP SYSTEM 
0
@<TRIPOS>NORMAL
@<TRIPOS>FF_PBC
FORCE_FIELD_SETUP_FEATURE Force Field Setup information
v1.0  0 0.000000 0.000000 0.000000 0.000000 0.000000 0.000000 NONE 0 0 0 0 0 0 0 0 0 0 0 0 0
