#	Name:			64
#	Creating user name:	jeff
#	Creation time:		Fri Dec 13 10:12:09 2002

#	Modifying user name:	jeff
#	Modification time:	Fri Dec 13 10:12:11 2002

@<TRIPOS>MOLECULE
64
   58    60     3     1     1
SMALL
USER_CHARGES


@<TRIPOS>ATOM
      1 C1          4.824934   -5.247660   14.679302 C.ar      2 NAPHTHALENE   -0.225800 
      2 C2          5.453322   -4.194222   15.349850 C.ar      2 NAPHTHALENE   -0.123900 
      3 C3          6.795493   -4.309376   15.722713 C.ar      2 NAPHTHALENE   -0.035300 
      4 C4          7.505749   -5.475443   15.425429 C.ar      2 NAPHTHALENE   -0.304000 
      5 C5          7.586519   -7.701561   14.460066 C.ar      2 NAPHTHALENE   -0.241400 
      6 C6          6.960933   -8.752859   13.784626 C.ar      2 NAPHTHALENE   -0.135300 
      7 C7          5.622849   -8.639960   13.397065 C.ar      2 NAPHTHALENE   -0.430700 
      8 ****        6.619155   -9.610196   10.393633 H         3 APM2        0.057000 
      9 ****        5.233504  -10.499131    8.625923 H         3 APM2        0.170300 
     10 ****        6.221493   -9.209556    7.903213 H         3 APM2        0.180100 
     11 ****        2.870372  -10.424067    8.257170 H         3 APM2        0.213700 
     12 ****        5.152623   -6.835986    7.688510 H         3 APM2        0.212700 
     13 ****        3.067844   -5.590427    7.205462 H         3 APM2        0.191600 
     14 ****        0.875631   -6.698136    7.453513 H         3 APM2        0.163800 
     15 ****        3.832816   -8.594541   10.763864 H         3 APM2        0.479300 
     16 ****       -1.560330   -9.293430    7.179702 H         3 APM2        0.563500 
     17 ****       -0.536100   -7.930955    6.703309 H         3 APM2        0.549200 
     18 ****        1.040894  -10.950887    8.921611 H         3 APM2        0.582800 
     19 ****       -0.650950  -11.033392    8.407669 H         3 APM2        0.552300 
     20 N20         7.563561   -7.314160    9.594026 N.am      3 APM2       -1.176100 
     21 ****        8.126615   -8.067520    9.246056 H         3 APM2        0.527600 
     22 C22         8.145907   -5.970313    9.560224 C.3       3 APM2        0.670800 
     23 ****        7.425219   -5.197783    9.879185 H         3 APM2        0.013900 
     24 C24         8.562119   -5.656204    8.098852 C.3       3 APM2       -0.456000 
     25 C25         9.367671   -5.913112   10.514719 C.3       3 APM2       -0.442700 
     26 S           4.828950   -9.941297   12.483879 S.o2      1 TOS1        2.351400 
     27 O1          5.740812  -11.057625   12.321251 O.2       1 TOS1       -0.912700 
     28 O2          3.505942  -10.170526   13.031082 O.2       1 TOS1       -1.038100 
     29 C8          4.910706   -7.477587   13.706495 C.ar      2 NAPHTHALENE   -0.177700 
     30 C9          5.532694   -6.417780   14.377376 C.ar      2 NAPHTHALENE    0.126300 
     31 C10         6.877712   -6.531424   14.753941 C.ar      2 NAPHTHALENE    0.210300 
     32 H1          3.780153   -5.142872   14.399415 H         2 NAPHTHALENE    0.185400 
     33 H2          4.903353   -3.286428   15.579711 H         2 NAPHTHALENE    0.170300 
     34 H3          7.289086   -3.492291   16.240742 H         2 NAPHTHALENE    0.162400 
     35 H4          8.547773   -5.553601   15.721213 H         2 NAPHTHALENE    0.197600 
     36 C           6.317069   -7.542857   10.079063 C.2       3 APM2        0.805300 
     37 CA          5.799353   -8.962094   10.046020 C.3       3 APM2        0.467700 
     38 CB          5.403555   -9.410425    8.613206 C.3       3 APM2       -0.551300 
     39 CG          4.133175   -8.685328    8.143219 C.ar      3 APM2        0.220400 
     40 CD1         2.901713   -9.351893    8.093477 C.ar      3 APM2       -0.165200 
     41 CD2         4.194834   -7.340165    7.764765 C.ar      3 APM2       -0.114800 
     42 CE1         1.715609   -8.655783    7.828756 C.ar      3 APM2       -0.312400 
     43 CE2         3.019751   -6.637497    7.486725 C.ar      3 APM2       -0.153400 
     44 CZ          1.782272   -7.280770    7.576619 C.ar      3 APM2       -0.077900 
     45 CF          0.377336   -9.373995    7.814341 C.cat     3 APM2        1.067600 
     46 O           5.598207   -6.669852   10.537970 O.2       3 APM2       -0.642800 
     47 N           4.674145   -9.097165   10.962208 N.am      3 APM2       -1.249300 
     48 NG1        -0.640269   -8.828836    7.196515 N.pl3     3 APM2       -1.049800 
     49 NG2         0.248919  -10.530029    8.415719 N.pl3     3 APM2       -0.982700 
     50 H5          8.624694   -7.806188   14.752993 H         2 NAPHTHALENE    0.210400 
     51 H6          7.519389   -9.655114   13.557992 H         2 NAPHTHALENE    0.203200 
     52 H8          3.867313   -7.401746   13.417732 H         2 NAPHTHALENE    0.225300 
     53 ****        8.995788   -4.647616    8.024169 H         3 APM2        0.116100 
     54 ****        7.678481   -5.710391    7.444643 H         3 APM2        0.116200 
     55 ****        9.305387   -6.386001    7.743400 H         3 APM2        0.120400 
     56 ****        9.830883   -4.914932   10.490636 H         3 APM2        0.130600 
     57 ****       10.122114   -6.657882   10.219874 H         3 APM2        0.124100 
     58 ****        9.046045   -6.128065   11.545334 H         3 APM2        0.081400 
@<TRIPOS>BOND
     1    5   50 1    
     2    5   31 ar   
     3    5    6 ar   
     4    6   51 1    
     5    6    7 ar   
     6    7   29 ar   
     7   29   52 1    
     8   37    8 1    
     9   38    9 1    
    10   38   10 1    
    11   40   11 1    
    12   41   12 1    
    13   43   13 1    
    14   44   14 1    
    15   47   15 1    
    16   48   16 1    
    17   48   17 1    
    18   49   18 1    
    19   49   19 1    
    20   36   20 am   
    21   20   21 1    
    22   20   22 1    
    23   22   23 1    
    24   22   24 1    
    25   22   25 1    
    26   29   30 ar   
    27   26   28 2    
    28   26   27 2    
    29   30    1 ar   
    30   30   31 ar   
    31   31    4 ar   
    32    4   35 1    
    33    4    3 ar   
    34    3   34 1    
    35    3    2 ar   
    36   36   46 2    
    37   37   36 1    
    38   37   47 1    
    39   38   37 1    
    40   39   38 1    
    41   39   41 ar   
    42   40   39 ar   
    43   42   40 ar   
    44   45   42 1    
    45   42   44 ar   
    46   44   43 ar   
    47   43   41 ar   
    48   45   49 ar   
    49   45   48 ar   
    50   47   26 1    
    51    2   33 1    
    52    2    1 ar   
    53    1   32 1    
    54   26    7 1    
    55   24   53 1    
    56   24   54 1    
    57   24   55 1    
    58   25   56 1    
    59   25   57 1    
    60   25   58 1    
@<TRIPOS>SUBSTRUCTURE
     1 TOS1       26 GROUP             0 I     ****    2  
     2 NAPHTHALENE     5 PERM              0 ****  ****    1  
     3 APM2       36 GROUP             0 I     ****    1 ROOT 
@<TRIPOS>SET
UNK_ATOMS       STATIC     ATOMS    AMSOM    **** 
30 26 27 28 0 0 0 0 0 0 0 36 37 38 39 40 41 42 43 44 \
 45 46 47 48 49 0 0 0 0 0 0
@<TRIPOS>NORMAL
@<TRIPOS>FF_PBC
FORCE_FIELD_SETUP_FEATURE Force Field Setup information
v1.0  0 0.000000 0.000000 0.000000 0.000000 0.000000 0.000000 NONE 0 0 0 0 0 0 0 0 0 0 0 0 0
