#	Name:			65
#	Creating user name:	jeff
#	Creation time:		Fri Dec 13 10:12:11 2002

#	Modifying user name:	jeff
#	Modification time:	Fri Dec 13 10:12:14 2002

@<TRIPOS>MOLECULE
65
   85    87     4     1     3
SMALL
USER_CHARGES


@<TRIPOS>ATOM
      1 C1          3.803006   -8.009689   13.741411 C.3       1 TOS1        0.403700 
      2 ****        5.074383   -5.787550   14.508467 H         1 TOS1        0.178000 
      3 C3          7.561402   -5.030757   15.271394 C.3       1 TOS1        0.119300 
      4 C4          8.791175   -9.553572   13.485226 C.3       1 TOS1        0.201100 
      5 ****        9.101593   -6.964461   14.022322 H         1 TOS1        0.238800 
      6 ****        3.530025   -8.854951   13.098471 H         1 TOS1       -0.011100 
      7 C7          8.398736   -4.029657   14.431365 C.3       1 TOS1       -0.253500 
      8 ****        6.786111   -9.313533   10.187316 H         2 APM2        0.151000 
      9 ****        5.265408  -10.585398    8.515502 H         2 APM2        0.187000 
     10 ****        6.191213   -9.237438    7.821278 H         2 APM2        0.158800 
     11 ****        2.802316  -10.464512    8.393256 H         2 APM2        0.205300 
     12 ****        5.140275   -7.006514    7.397566 H         2 APM2        0.178800 
     13 ****        3.074730   -5.726747    6.953377 H         2 APM2        0.195700 
     14 ****        0.867276   -6.788285    7.260343 H         2 APM2        0.151100 
     15 ****        3.939082   -9.711823   10.840201 H         2 APM2        0.337200 
     16 ****       -1.602194   -9.333508    7.133506 H         2 APM2        0.561800 
     17 ****       -0.539396   -8.032111    6.576062 H         2 APM2        0.549200 
     18 ****        0.942789  -10.925024    9.018607 H         2 APM2        0.546200 
     19 ****       -0.745276  -11.007089    8.490222 H         2 APM2        0.564100 
     20 ****        7.711922   -6.340983    8.181259 H         3 PIP3        0.080600 
     21 ****        7.973934   -7.867719    9.019007 H         3 PIP3        0.065600 
     22 C          10.176295   -6.298839    9.347670 C.2       4 CO2         0.656500 
     23 ****        8.870166   -6.670549   11.005068 H         3 PIP3       -0.049900 
     24 ****        8.496924   -4.114648    9.328785 H         3 PIP3        0.109000 
     25 ****        9.287617   -4.219619   10.929787 H         3 PIP3        0.067300 
     26 ****        6.900381   -3.481655   11.171529 H         3 PIP3       -0.000900 
     27 ****        7.131361   -5.101679   11.908869 H         3 PIP3       -0.014500 
     28 ****        5.072355   -5.037050   10.592032 H         3 PIP3        0.068700 
     29 ****        5.960401   -4.609449    9.111985 H         3 PIP3        0.098400 
     30 S           5.706331  -10.262769   12.477323 S.o2      1 TOS1        2.365400 
     31 O1          6.786245  -11.083876   11.977256 O.2       1 TOS1       -0.958700 
     32 O2          4.706070  -10.912155   13.303233 O.2       1 TOS1       -1.018900 
     33 C1          6.286220   -8.750262   13.320396 C.ar      1 TOS1       -0.857700 
     34 C2          5.341307   -7.786677   13.740362 C.ar      1 TOS1        0.228800 
     35 C3          5.782895   -6.561335   14.255917 C.ar      1 TOS1       -0.415000 
     36 C4          7.132082   -6.297060   14.491695 C.ar      1 TOS1        0.279200 
     37 C5          8.054341   -7.235297   14.028334 C.ar      1 TOS1       -0.351600 
     38 C6          7.651493   -8.506140   13.593676 C.ar      1 TOS1        0.277600 
     39 C39         8.322830   -5.434301   16.562700 C.3       1 TOS1       -0.347700 
     40 C           5.532273   -7.533950   10.088640 C.2       2 APM2        0.730500 
     41 CA          5.754523   -9.018927    9.955184 C.3       2 APM2        0.195900 
     42 CB          5.380410   -9.490102    8.522451 C.3       2 APM2       -0.431600 
     43 CG          4.097429   -8.786932    8.046727 C.ar      2 APM2        0.167300 
     44 CD1         2.852016   -9.421651    8.101223 C.ar      2 APM2       -0.126700 
     45 CD2         4.175873   -7.477710    7.556269 C.ar      2 APM2       -0.005200 
     46 CE1         1.678109   -8.727341    7.775402 C.ar      2 APM2       -0.372100 
     47 CE2         3.010951   -6.760991    7.277980 C.ar      2 APM2       -0.202300 
     48 CZ          1.765407   -7.375295    7.422013 C.ar      2 APM2       -0.067500 
     49 CF          0.326928   -9.416098    7.796224 C.cat     2 APM2        1.101800 
     50 O           4.410545   -7.266514   10.480203 O.2       2 APM2       -0.679500 
     51 N           4.928385   -9.648866   10.979567 N.am      2 APM2       -0.964000 
     52 NG1        -0.671013   -8.891213    7.129542 N.pl3     2 APM2       -1.055500 
     53 NG2         0.165427  -10.523821    8.475160 N.pl3     2 APM2       -0.994200 
     54 N1          6.421295   -6.544512    9.797634 N.am      3 PIP3       -0.622700 
     55 C2          7.721048   -6.812388    9.175566 C.3       3 PIP3        0.117200 
     56 C3          8.836487   -6.159039   10.029870 C.3       3 PIP3        0.143100 
     57 C4          8.511390   -4.664557   10.284261 C.3       3 PIP3       -0.293600 
     58 C5          7.127050   -4.540066   10.962309 C.3       3 PIP3        0.103700 
     59 C6          6.032994   -5.156806   10.064405 C.3       3 PIP3       -0.047200 
     60 ****        6.662243   -4.483325   15.604531 H         1 TOS1        0.043800 
     61 C64         2.895086   -6.833337   13.255851 C.3       1 TOS1       -0.411100 
     62 C65         3.408144   -8.352531   15.203304 C.3       1 TOS1       -0.411400 
     63 ****        8.387497  -10.566209   13.409986 H         1 TOS1        0.062400 
     64 C67         9.640273   -9.673429   14.785176 C.3       1 TOS1       -0.409400 
     65 C68         9.704129   -9.274582   12.259361 C.3       1 TOS1       -0.305900 
     66 ****        9.311532   -4.500673   14.038811 H         1 TOS1        0.093100 
     67 ****        8.687829   -3.166028   15.051016 H         1 TOS1        0.077500 
     68 ****        7.806723   -3.640770   13.593594 H         1 TOS1        0.053300 
     69 ****        7.691473   -6.090046   17.182549 H         1 TOS1        0.066900 
     70 ****        8.576141   -4.539487   17.153492 H         1 TOS1        0.105100 
     71 ****        9.255646   -5.966130   16.323944 H         1 TOS1        0.092900 
     72 ****        2.928724   -5.949127   13.905440 H         1 TOS1        0.106800 
     73 ****        1.845369   -7.168421   13.241553 H         1 TOS1        0.080400 
     74 ****        3.142467   -6.504902   12.242863 H         1 TOS1        0.110000 
     75 ****        3.997960   -9.206262   15.570353 H         1 TOS1        0.105300 
     76 ****        2.339625   -8.608265   15.274341 H         1 TOS1        0.088300 
     77 ****        3.601235   -7.489340   15.860029 H         1 TOS1        0.099600 
     78 ****       10.188811   -8.751037   15.016258 H         1 TOS1        0.108300 
     79 ****       10.385465  -10.479580   14.678459 H         1 TOS1        0.119800 
     80 ****        8.993034   -9.919636   15.642286 H         1 TOS1        0.071600 
     81 ****        9.096742   -9.204791   11.345268 H         1 TOS1        0.073900 
     82 ****       10.431050  -10.091709   12.132314 H         1 TOS1        0.100900 
     83 ****       10.269879   -8.338386   12.379735 H         1 TOS1        0.117100 
     84 O          10.644310   -5.299681    8.737813 O.co2     4 CO2        -0.915300 
     85 O          10.783048   -7.401090    9.427131 O.co2     4 CO2        -0.965900 
@<TRIPOS>BOND
     1   34    1 1    
     2   35    2 1    
     3   36    3 1    
     4   38    4 1    
     5   37    5 1    
     6    1    6 1    
     7    3    7 1    
     8   41    8 1    
     9   42    9 1    
    10   42   10 1    
    11   44   11 1    
    12   45   12 1    
    13   47   13 1    
    14   48   14 1    
    15   51   15 1    
    16   52   16 1    
    17   52   17 1    
    18   53   18 1    
    19   53   19 1    
    20   55   20 1    
    21   55   21 1    
    22   22   84 ar   
    23   56   23 1    
    24   57   24 1    
    25   57   25 1    
    26   58   26 1    
    27   58   27 1    
    28   59   28 1    
    29   59   29 1    
    30   33   30 1    
    31   30   32 2    
    32   30   31 2    
    33   33   38 ar   
    34   34   33 ar   
    35   35   34 ar   
    36   36   35 ar   
    37    3   39 1    
    38   36   37 ar   
    39   37   38 ar   
    40   40   50 2    
    41   41   40 1    
    42   41   51 1    
    43   42   41 1    
    44   43   42 1    
    45   43   45 ar   
    46   44   43 ar   
    47   46   44 ar   
    48   49   46 1    
    49   46   48 ar   
    50   48   47 ar   
    51   47   45 ar   
    52   49   53 ar   
    53   49   52 ar   
    54   54   59 1    
    55   55   54 1    
    56   56   55 1    
    57   57   56 1    
    58   57   58 1    
    59   58   59 1    
    60   40   54 am   
    61   51   30 1    
    62    3   60 1    
    63    1   61 1    
    64    1   62 1    
    65    4   63 1    
    66    4   64 1    
    67    4   65 1    
    68    7   66 1    
    69    7   67 1    
    70    7   68 1    
    71   39   69 1    
    72   39   70 1    
    73   39   71 1    
    74   61   72 1    
    75   61   73 1    
    76   61   74 1    
    77   62   75 1    
    78   62   76 1    
    79   62   77 1    
    80   64   78 1    
    81   64   79 1    
    82   64   80 1    
    83   65   81 1    
    84   65   82 1    
    85   65   83 1    
    86   22   85 ar   
    87   56   22 1    
@<TRIPOS>SUBSTRUCTURE
     1 TOS1       30 GROUP             0 I     ****    1  
     2 APM2       40 GROUP             0 I     ****    2 ROOT 
     3 PIP3       54 GROUP             0 I     ****    2  
     4 CO2        22 PERM              0 ****  ****    1  
@<TRIPOS>SET
UNK_ATOMS       STATIC     ATOMS    AMSOM    **** 
30 30 31 32 33 34 35 36 37 38 0 40 41 42 43 44 45 46 47 48 \
 49 50 51 52 53 54 55 56 57 58 59
ATOM$WHITE      STATIC     ATOMS    COLORGROUP SYSTEM 
0
ATOM$BY_TYPE    STATIC     ATOMS    COLORGROUP SYSTEM 
85 1 2 3 4 5 6 7 8 9 10 11 12 13 14 15 16 17 18 19 \
 20 21 22 23 24 25 26 27 28 29 30 31 32 33 34 35 36 37 \
 38 39 40 41 42 43 44 45 46 47 48 49 50 51 52 53 54 55 \
 56 57 58 59 60 61 62 63 64 65 66 67 68 69 70 71 72 73 \
 74 75 76 77 78 79 80 81 82 83 84 85
@<TRIPOS>NORMAL
@<TRIPOS>FF_PBC
FORCE_FIELD_SETUP_FEATURE Force Field Setup information
v1.0  0 0.000000 0.000000 0.000000 0.000000 0.000000 0.000000 NONE 0 0 0 0 0 0 0 0 0 0 0 0 0
