#	Name:			66
#	Creating user name:	jeff
#	Creation time:		Fri Dec 13 10:12:14 2002

#	Modifying user name:	jeff
#	Modification time:	Fri Dec 13 10:12:16 2002

@<TRIPOS>MOLECULE
66
   49    50     3     1     3
SMALL
USER_CHARGES


@<TRIPOS>ATOM
      1 ****        5.195901   -9.748466   12.134455 H         1 APM2        0.531200 
      2 ****        6.782298   -9.304682   10.395496 H         1 APM2        0.151300 
      3 ****        5.285475  -10.436409    8.559242 H         1 APM2        0.194600 
      4 ****        6.185967   -9.018762    8.044646 H         1 APM2        0.221300 
      5 ****        2.835408  -10.337939    8.509127 H         1 APM2        0.196800 
      6 ****        5.108627   -6.805934    7.735399 H         1 APM2        0.196700 
      7 ****        3.076779   -5.666766    6.933443 H         1 APM2        0.234300 
      8 ****        0.900625   -6.729070    7.129867 H         1 APM2        0.188800 
      9 ****        3.910246   -9.857446   10.972921 H         1 APM2        0.516800 
     10 ****       -1.606855   -9.403907    7.056662 H         1 APM2        0.598000 
     11 ****       -0.591121   -8.106470    6.445810 H         1 APM2        0.570000 
     12 ****        0.834383  -10.852077    9.094441 H         1 APM2        0.565800 
     13 ****       -0.798105  -10.960534    8.449640 H         1 APM2        0.591300 
     14 ****        7.587417   -6.235911    8.459612 H         2 PIP3        0.153400 
     15 ****        7.875629   -7.813606    9.187288 H         2 PIP3        0.061700 
     16 ****        9.684541   -6.202380    9.734518 H         2 PIP3        0.182900 
     17 ****        8.847846   -6.750637   11.215543 H         2 PIP3        0.169900 
     18 ****       10.873021   -3.785314   10.982941 C.3       3 SULFONYL   -0.733300 
     19 S1          9.313099   -3.518012   10.116412 S.o2      3 SULFONYL    2.284500 
     20 ****        6.882857   -3.503804   11.499880 H         2 PIP3        0.197000 
     21 ****        7.078747   -5.099721   12.275351 H         2 PIP3        0.147700 
     22 ****        4.984299   -5.031974   10.885417 H         2 PIP3        0.105400 
     23 ****        5.948570   -4.591044    9.462774 H         2 PIP3        0.093400 
     24 C           5.500089   -7.576736   10.489401 C.2       1 APM2        0.380200 
     25 CA          5.732256   -9.043560   10.185189 C.3       1 APM2        0.375500 
     26 CB          5.371375   -9.350558    8.703265 C.3       1 APM2       -0.638000 
     27 CG          4.086029   -8.648394    8.221177 C.ar      1 APM2        0.269600 
     28 CD1         2.846420   -9.301523    8.203542 C.ar      1 APM2       -0.254900 
     29 CD2         4.160382   -7.331161    7.761940 C.ar      1 APM2       -0.091500 
     30 CE1         1.661126   -8.661642    7.793098 C.ar      1 APM2       -0.362800 
     31 CE2         3.007827   -6.678006    7.324397 C.ar      1 APM2       -0.131500 
     32 CZ          1.769510   -7.320246    7.391507 C.ar      1 APM2       -0.018600 
     33 CF          0.312328   -9.378290    7.774472 C.cat     1 APM2        1.180200 
     34 O           4.472498   -7.345403   11.106925 O.2       1 APM2       -0.575700 
     35 N           4.976398   -9.936938   11.093768 N.4       1 APM2       -0.741900 
     36 NG1        -0.689205   -8.930665    7.049520 N.pl3     1 APM2       -1.065100 
     37 NG2         0.107189  -10.464996    8.482746 N.pl3     1 APM2       -1.054900 
     38 N1          6.335154   -6.555869   10.109804 N.am      2 PIP3       -0.267800 
     39 C2          7.609700   -6.778657    9.417550 C.3       2 PIP3       -0.007400 
     40 C3          8.733716   -6.162925   10.288843 C.3       2 PIP3       -0.087300 
     41 N4          8.349251   -4.798611   10.628266 N.am      2 PIP3       -0.934100 
     42 C5          7.076812   -4.571075   11.306118 C.3       2 PIP3       -0.034800 
     43 C6          5.965786   -5.165697   10.403445 C.3       2 PIP3        0.062800 
     44 O           8.763000   -2.264072   10.593761 O.2       3 SULFONYL   -0.910400 
     45 O           9.550897   -3.671005    8.693987 O.2       3 SULFONYL   -0.981000 
     46 ****       10.702227   -3.760910   12.067277 H         3 SULFONYL    0.254700 
     47 ****       11.568815   -2.979805   10.709874 H         3 SULFONYL    0.269100 
     48 ****       11.324964   -4.746549   10.708227 H         3 SULFONYL    0.241500 
     49 ****        5.238028  -10.976030   10.934536 H         1 APM2        0.548600 
@<TRIPOS>BOND
     1   35    1 1    
     2   25    2 1    
     3   26    3 1    
     4   26    4 1    
     5   28    5 1    
     6   29    6 1    
     7   31    7 1    
     8   32    8 1    
     9   35    9 1    
    10   36   10 1    
    11   36   11 1    
    12   37   12 1    
    13   37   13 1    
    14   39   14 1    
    15   39   15 1    
    16   40   16 1    
    17   40   17 1    
    18   41   19 1    
    19   19   44 2    
    20   42   20 1    
    21   42   21 1    
    22   43   22 1    
    23   43   23 1    
    24   24   34 2    
    25   25   24 1    
    26   25   35 1    
    27   26   25 1    
    28   27   26 1    
    29   27   29 ar   
    30   28   27 ar   
    31   30   28 ar   
    32   33   30 1    
    33   30   32 ar   
    34   32   31 ar   
    35   31   29 ar   
    36   33   37 ar   
    37   33   36 ar   
    38   38   43 1    
    39   39   38 1    
    40   40   39 1    
    41   41   40 1    
    42   41   42 1    
    43   42   43 1    
    44   24   38 am   
    45   19   45 2    
    46   19   18 1    
    47   18   46 1    
    48   18   47 1    
    49   18   48 1    
    50   35   49 1    
@<TRIPOS>SUBSTRUCTURE
     1 APM2       24 GROUP             0 I     ****    1 ROOT 
     2 PIP3       38 GROUP             0 I     ****    2  
     3 SULFONYL    19 PERM              0 ****  ****    1  
@<TRIPOS>SET
UNK_ATOMS       STATIC     ATOMS    AMSOM    **** 
30 0 0 0 0 0 0 0 0 0 0 24 25 26 27 28 29 30 31 32 \
 33 34 35 36 37 38 39 40 41 42 43
ATOM$WHITE      STATIC     ATOMS    COLORGROUP SYSTEM 
0
ATOM$BY_TYPE    STATIC     ATOMS    COLORGROUP SYSTEM 
49 1 2 3 4 5 6 7 8 9 10 11 12 13 14 15 16 17 18 19 \
 20 21 22 23 24 25 26 27 28 29 30 31 32 33 34 35 36 37 \
 38 39 40 41 42 43 44 45 46 47 48 49
@<TRIPOS>NORMAL
@<TRIPOS>FF_PBC
FORCE_FIELD_SETUP_FEATURE Force Field Setup information
v1.0  0 0.000000 0.000000 0.000000 0.000000 0.000000 0.000000 NONE 0 0 0 0 0 0 0 0 0 0 0 0 0
