#	Name:			67
#	Creating user name:	jeff
#	Creation time:		Fri Dec 13 10:12:16 2002

#	Modifying user name:	jeff
#	Modification time:	Fri Dec 13 10:12:19 2002

@<TRIPOS>MOLECULE
67
   78    82     5     1     3
SMALL
USER_CHARGES


@<TRIPOS>ATOM
      1 C1          4.106478   -5.212634   14.838925 C.ar      4 NAPHTHALENE   -0.241100 
      2 C2          4.442881   -3.957649   15.353289 C.ar      4 NAPHTHALENE   -0.123300 
      3 C3          5.775391   -3.537959   15.350028 C.ar      4 NAPHTHALENE   -0.037000 
      4 C4          6.769328   -4.375539   14.836905 C.ar      4 NAPHTHALENE   -0.309100 
      5 ****        6.783611   -9.460714   10.411355 H         2 APM2        0.064400 
      6 ****        5.351077  -10.424199    8.632183 H         2 APM2        0.166300 
      7 ****        6.243100   -9.041914    7.959183 H         2 APM2        0.117300 
      8 ****        2.971908  -10.423426    8.236641 H         2 APM2        0.198600 
      9 ****        5.111766   -6.742897    7.830366 H         2 APM2        0.192300 
     10 ****        2.974728   -5.532765    7.508983 H         2 APM2        0.194900 
     11 ****        0.826852   -6.707045    7.833733 H         2 APM2        0.163300 
     12 ****        3.893734   -9.342701   10.843720 H         2 APM2        0.388100 
     13 ****       -1.552603   -9.356205    7.337256 H         2 APM2        0.570200 
     14 ****       -0.592680   -7.931444    6.942925 H         2 APM2        0.549100 
     15 ****        1.097552  -11.093150    8.873739 H         2 APM2        0.557600 
     16 ****       -0.586917  -11.155870    8.355757 H         2 APM2        0.577400 
     17 ****        8.071163   -5.086135   10.845058 H         3 PIP3        0.095200 
     18 ****        6.319120   -4.877636   10.662138 H         3 PIP3        0.133000 
     19 ****        7.544125   -3.506411    9.082753 H         3 PIP3        0.035300 
     20 ****        6.537013   -4.693484    8.201232 H         3 PIP3        0.045000 
     21 ****        9.569111   -4.870482    8.642045 H         3 PIP3        0.193900 
     22 ****        9.513042   -7.102238    7.570968 H         3 PIP3        0.081900 
     23 ****        7.761128   -6.920924    7.249900 H         3 PIP3        0.060500 
     24 ****        8.258430   -8.432397    9.136886 H         3 PIP3        0.176300 
     25 ****        9.195648   -7.187182    9.966795 H         3 PIP3        0.169000 
     26 S           5.320874   -9.792409   12.750224 S.o2      1 TOS1        2.282200 
     27 O1          6.503067  -10.631554   12.713069 O.2       1 TOS1       -0.912200 
     28 O2          4.141195  -10.251468   13.459058 O.2       1 TOS1       -0.950700 
     29 C5          7.428445   -6.486508   13.823081 C.ar      4 NAPHTHALENE   -0.251600 
     30 C6          7.093439   -7.752732   13.336587 C.ar      4 NAPHTHALENE   -0.163300 
     31 C7          5.763305   -8.181588   13.357759 C.ar      4 NAPHTHALENE   -0.406400 
     32 C8          4.767994   -7.320333   13.825760 C.ar      4 NAPHTHALENE   -0.204300 
     33 C9          5.100181   -6.057474   14.330806 C.ar      4 NAPHTHALENE    0.170900 
     34 C10         6.437394   -5.638166   14.330093 C.ar      4 NAPHTHALENE    0.177400 
     35 H1          3.065986   -5.523659   14.841292 H         4 NAPHTHALENE    0.193300 
     36 C           6.040723   -7.432826   10.293493 C.2       2 APM2        0.612500 
     37 CA          5.863707   -8.930616   10.128090 C.3       2 APM2        0.452500 
     38 CB          5.460610   -9.328367    8.678393 C.3       2 APM2       -0.444100 
     39 CG          4.156979   -8.635269    8.247279 C.ar      2 APM2        0.143000 
     40 CD1         2.948344   -9.341593    8.164484 C.ar      2 APM2       -0.084600 
     41 CD2         4.171769   -7.273942    7.928448 C.ar      2 APM2       -0.120700 
     42 CE1         1.728427   -8.672896    7.978997 C.ar      2 APM2       -0.340000 
     43 CE2         2.966677   -6.591883    7.738003 C.ar      2 APM2       -0.158900 
     44 CZ          1.752626   -7.278403    7.848149 C.ar      2 APM2       -0.025000 
     45 CF          0.405240   -9.426323    7.917568 C.cat     2 APM2        1.060000 
     46 O           5.079122   -6.871375   10.792689 O.2       2 APM2       -0.573500 
     47 N           4.862283   -9.376762   11.092314 N.am      2 APM2       -1.080000 
     48 NG1        -0.646755   -8.865752    7.367717 N.pl3     2 APM2       -1.004500 
     49 NG2         0.301629  -10.636897    8.411104 N.pl3     2 APM2       -0.996400 
     50 N1          7.158783   -6.729978    9.932694 N.am      3 PIP3       -0.523300 
     51 C2          7.218628   -5.291494   10.177439 C.3       3 PIP3       -0.044600 
     52 C3          7.438433   -4.570779    8.822587 C.3       3 PIP3        0.121700 
     53 C4          8.678817   -5.102107    8.032540 C.3       3 PIP3       -0.024800 
     54 C5          8.576404   -6.659446    7.943096 C.3       3 PIP3        0.028100 
     55 C6          8.324684   -7.351289    9.309434 C.3       3 PIP3       -0.221500 
     56 N1          8.836936   -4.453420    6.681532 N.4       5 PIPERIDINE   -0.397600 
     57 C1          8.910599   -2.962091    6.753780 C.3       5 PIPERIDINE   -0.041000 
     58 C2          9.098643   -2.255501    5.384144 C.3       5 PIPERIDINE   -0.097600 
     59 H2          3.669819   -3.309347   15.754677 H         4 NAPHTHALENE    0.175400 
     60 H3          6.037615   -2.561744   15.746639 H         4 NAPHTHALENE    0.167400 
     61 H4          7.800154   -4.034707   14.836291 H         4 NAPHTHALENE    0.197200 
     62 H5          8.467002   -6.170879   13.805403 H         4 NAPHTHALENE    0.210000 
     63 H6          7.868139   -8.401749   12.942396 H         4 NAPHTHALENE    0.199900 
     64 H8          3.732609   -7.642547   13.793403 H         4 NAPHTHALENE    0.226400 
     65 C3         10.366816   -2.784783    4.680989 C.3       5 PIPERIDINE   -0.163700 
     66 C4         10.214236   -4.312333    4.519805 C.3       5 PIPERIDINE   -0.083600 
     67 C5         10.002224   -4.979909    5.905599 C.3       5 PIPERIDINE   -0.037900 
     68 H2          9.737858   -2.666504    7.421293 H         5 PIPERIDINE    0.202400 
     69 H3          7.979720   -2.521379    7.143822 H         5 PIPERIDINE    0.110300 
     70 H4          9.189612   -1.164692    5.528732 H         5 PIPERIDINE    0.127500 
     71 H5          8.217689   -2.443503    4.746475 H         5 PIPERIDINE    0.083800 
     72 H6         11.260030   -2.554273    5.285289 H         5 PIPERIDINE    0.104300 
     73 H7         10.480772   -2.307401    3.692988 H         5 PIPERIDINE    0.117900 
     74 H8         11.118501   -4.720271    4.034837 H         5 PIPERIDINE    0.122700 
     75 H9          9.350060   -4.529548    3.868668 H         5 PIPERIDINE    0.080300 
     76 H10         9.887204   -6.046628    5.656121 H         5 PIPERIDINE    0.106300 
     77 H11        10.924242   -4.862661    6.500281 H         5 PIPERIDINE    0.201400 
     78 ****        7.951344   -4.689701    6.101137 H         5 PIPERIDINE    0.501900 
@<TRIPOS>BOND
     1   26   31 1    
     2   29   30 ar   
     3   29   34 ar   
     4   29   62 1    
     5   34    4 ar   
     6   34   33 ar   
     7   33    1 ar   
     8   37    5 1    
     9   38    6 1    
    10   38    7 1    
    11   40    8 1    
    12   41    9 1    
    13   43   10 1    
    14   44   11 1    
    15   47   12 1    
    16   48   13 1    
    17   48   14 1    
    18   49   15 1    
    19   49   16 1    
    20   51   17 1    
    21   51   18 1    
    22   52   19 1    
    23   52   20 1    
    24   53   21 1    
    25   53   56 1    
    26   54   22 1    
    27   54   23 1    
    28   55   24 1    
    29   55   25 1    
    30   33   32 ar   
    31   26   28 2    
    32   26   27 2    
    33   32   31 ar   
    34   32   64 1    
    35   31   30 ar   
    36   30   63 1    
    37    1    2 ar   
    38    1   35 1    
    39   36   46 2    
    40   37   36 1    
    41   37   47 1    
    42   38   37 1    
    43   39   38 1    
    44   39   41 ar   
    45   40   39 ar   
    46   42   40 ar   
    47   45   42 1    
    48   42   44 ar   
    49   44   43 ar   
    50   43   41 ar   
    51   45   49 ar   
    52   45   48 ar   
    53   50   55 1    
    54   51   50 1    
    55   52   51 1    
    56   53   52 1    
    57   53   54 1    
    58   54   55 1    
    59   36   50 am   
    60   47   26 1    
    61   56   57 1    
    62   56   67 1    
    63    2    3 ar   
    64    2   59 1    
    65    3    4 ar   
    66    3   60 1    
    67    4   61 1    
    68   67   66 1    
    69   67   76 1    
    70   67   77 1    
    71   66   65 1    
    72   66   74 1    
    73   66   75 1    
    74   65   58 1    
    75   65   72 1    
    76   65   73 1    
    77   58   57 1    
    78   58   70 1    
    79   58   71 1    
    80   57   68 1    
    81   57   69 1    
    82   56   78 1    
@<TRIPOS>SUBSTRUCTURE
     1 TOS1       26 GROUP             0 I     ****    2  
     2 APM2       36 GROUP             0 I     ****    2 ROOT 
     3 PIP3       50 GROUP             0 I     ****    2  
     4 NAPHTHALENE    29 PERM              0 ****  ****    1  
     5 PIPERIDINE    56 PERM              0 ****  ****    1  
@<TRIPOS>SET
UNK_ATOMS       STATIC     ATOMS    AMSOM    **** 
30 26 27 28 0 0 0 0 0 0 0 36 37 38 39 40 41 42 43 44 \
 45 46 47 48 49 50 51 52 53 54 55
ATOM$WHITE      STATIC     ATOMS    COLORGROUP SYSTEM 
0
ATOM$BY_TYPE    STATIC     ATOMS    COLORGROUP SYSTEM 
78 1 2 3 4 5 6 7 8 9 10 11 12 13 14 15 16 17 18 19 \
 20 21 22 23 24 25 26 27 28 29 30 31 32 33 34 35 36 37 \
 38 39 40 41 42 43 44 45 46 47 48 49 50 51 52 53 54 55 \
 56 57 58 59 60 61 62 63 64 65 66 67 68 69 70 71 72 73 \
 74 75 76 77 78
@<TRIPOS>NORMAL
@<TRIPOS>FF_PBC
FORCE_FIELD_SETUP_FEATURE Force Field Setup information
v1.0  0 0.000000 0.000000 0.000000 0.000000 0.000000 0.000000 NONE 0 0 0 0 0 0 0 0 0 0 0 0 0
