#	Name:			68
#	Creating user name:	jeff
#	Creation time:		Fri Dec 13 10:12:19 2002

#	Modifying user name:	jeff
#	Modification time:	Fri Dec 13 10:12:21 2002

@<TRIPOS>MOLECULE
68
   59    60     2     1     1
SMALL
USER_CHARGES


@<TRIPOS>ATOM
      1 C1          3.616145   -8.439343   13.667007 C.3       1 TOS1       -0.212400 
      2 ****        4.481769   -6.207268   14.601031 H         1 TOS1        0.243200 
      3 C3          9.134873   -6.619269   14.479632 C.3       1 TOS1       -0.221200 
      4 C4          8.766924   -9.302887   13.491818 C.3       1 TOS1       -0.222000 
      5 ****        6.863563   -5.049847   15.051825 O.3       1 TOS1       -0.324700 
      6 ****        5.796159   -4.154845   15.404085 C.3       1 TOS1       -0.067300 
      7 ****        6.249636   -3.222557   15.775822 H         1 TOS1        0.131900 
      8 ****        6.744084   -9.209641   10.398734 H         2 APM2        0.131300 
      9 ****        5.270582  -10.445590    8.633934 H         2 APM2        0.195800 
     10 ****        6.175348   -9.031276    8.077040 H         2 APM2        0.129700 
     11 ****        2.806406  -10.359503    8.520840 H         2 APM2        0.202700 
     12 ****        5.103813   -6.828378    7.742788 H         2 APM2        0.187400 
     13 ****        3.075951   -5.674471    6.948186 H         2 APM2        0.204100 
     14 ****        0.883902   -6.755665    7.123214 H         2 APM2        0.159600 
     15 ****        4.009476  -10.079811   10.947470 H         2 APM2        0.412300 
     16 ****       -1.588502   -9.385085    7.040825 H         2 APM2        0.573100 
     17 ****       -0.546148   -8.092721    6.446326 H         2 APM2        0.556800 
     18 ****        0.865159  -10.835123    9.104636 H         2 APM2        0.556200 
     19 ****       -0.777817  -10.959015    8.473939 H         2 APM2        0.577400 
     20 N20         6.335416   -6.617592   10.148282 N.am      2 APM2       -0.696800 
     21 ****        7.194493   -6.886993    9.700586 H         2 APM2        0.426600 
     22 C22         6.106806   -5.200992   10.384755 C.3       2 APM2       -0.020700 
     23 ****        5.149262   -5.017747   10.895183 H         2 APM2        0.116900 
     24 ****        6.095536   -4.658931    9.426474 H         2 APM2        0.064700 
     25 ****        6.912927   -4.796283   11.013214 H         2 APM2        0.092000 
     26 S           5.766993  -10.441825   12.569012 S.o2      1 TOS1        2.435800 
     27 O1          6.903781  -11.173385   12.058824 O.2       1 TOS1       -0.960500 
     28 O2          4.820369  -11.166040   13.386587 O.2       1 TOS1       -0.977300 
     29 C1          6.188681   -8.894482   13.400680 C.ar      1 TOS1       -0.796700 
     30 C2          5.109777   -8.076105   13.783459 C.ar      1 TOS1        0.296600 
     31 C3          5.339396   -6.811995   14.332228 C.ar      1 TOS1       -0.498500 
     32 C4          6.630886   -6.334620   14.539629 C.ar      1 TOS1        0.524600 
     33 C5          7.713592   -7.162861   14.224979 C.ar      1 TOS1       -0.267000 
     34 C6          7.497875   -8.450228   13.697469 C.ar      1 TOS1        0.264600 
     35 ****        5.172620   -4.578333   16.208456 H         1 TOS1        0.091200 
     36 C           5.403519   -7.537146   10.490318 C.2       2 APM2        0.627600 
     37 CA          5.680443   -8.999214   10.211833 C.3       2 APM2        0.276600 
     38 CB          5.352019   -9.354485    8.730728 C.3       2 APM2       -0.490700 
     39 CG          4.073653   -8.663820    8.233449 C.ar      2 APM2        0.189400 
     40 CD1         2.834492   -9.319288    8.214461 C.ar      2 APM2       -0.129900 
     41 CD2         4.153466   -7.346905    7.770268 C.ar      2 APM2       -0.028300 
     42 CE1         1.665603   -8.669957    7.798719 C.ar      2 APM2       -0.396300 
     43 CE2         3.002228   -6.688935    7.330894 C.ar      2 APM2       -0.197400 
     44 CZ          1.764021   -7.328434    7.391358 C.ar      2 APM2       -0.039000 
     45 CF          0.319937   -9.379346    7.778692 C.cat     2 APM2        1.145200 
     46 O           4.341774   -7.258580   11.027778 O.2       2 APM2       -0.599800 
     47 N           4.954839   -9.832181   11.159153 N.am      2 APM2       -1.063200 
     48 NG1        -0.668160   -8.919556    7.046178 N.pl3     2 APM2       -1.055500 
     49 NG2         0.125731  -10.461868    8.495772 N.pl3     2 APM2       -1.031700 
     50 ****        5.171847   -3.908884   14.529279 H         1 TOS1        0.075700 
     51 ****        3.379406   -9.342549   13.102426 H         1 TOS1        0.047500 
     52 ****        3.063259   -7.616766   13.184593 H         1 TOS1        0.076700 
     53 ****        3.209240   -8.565124   14.683781 H         1 TOS1        0.131900 
     54 ****        9.135183   -5.600588   14.888950 H         1 TOS1        0.082800 
     55 ****        9.698905   -6.587186   13.537869 H         1 TOS1        0.081000 
     56 ****        9.665542   -7.247433   15.210088 H         1 TOS1        0.121500 
     57 ****        8.625540  -10.335507   13.177614 H         1 TOS1        0.130700 
     58 ****        9.310618   -9.381497   14.447001 H         1 TOS1        0.088500 
     59 ****        9.412419   -8.815055   12.743573 H         1 TOS1        0.069200 
@<TRIPOS>BOND
     1   30    1 1    
     2   31    2 1    
     3   33    3 1    
     4   34    4 1    
     5   32    5 1    
     6    5    6 1    
     7    6    7 1    
     8   37    8 1    
     9   38    9 1    
    10   38   10 1    
    11   40   11 1    
    12   41   12 1    
    13   43   13 1    
    14   44   14 1    
    15   47   15 1    
    16   48   16 1    
    17   48   17 1    
    18   49   18 1    
    19   49   19 1    
    20   36   20 am   
    21   20   21 1    
    22   20   22 1    
    23   22   23 1    
    24   22   24 1    
    25   22   25 1    
    26   29   26 1    
    27   26   28 2    
    28   26   27 2    
    29   29   34 ar   
    30   30   29 ar   
    31   31   30 ar   
    32   32   31 ar   
    33    6   35 1    
    34   32   33 ar   
    35   33   34 ar   
    36   36   46 2    
    37   37   36 1    
    38   37   47 1    
    39   38   37 1    
    40   39   38 1    
    41   39   41 ar   
    42   40   39 ar   
    43   42   40 ar   
    44   45   42 1    
    45   42   44 ar   
    46   44   43 ar   
    47   43   41 ar   
    48   45   49 ar   
    49   45   48 ar   
    50   47   26 1    
    51    6   50 1    
    52    1   51 1    
    53    1   52 1    
    54    1   53 1    
    55    3   54 1    
    56    3   55 1    
    57    3   56 1    
    58    4   57 1    
    59    4   58 1    
    60    4   59 1    
@<TRIPOS>SUBSTRUCTURE
     1 TOS1       26 GROUP             0 I     ****    1  
     2 APM2       36 GROUP             0 I     ****    1 ROOT 
@<TRIPOS>SET
UNK_ATOMS       STATIC     ATOMS    AMSOM    **** 
30 26 27 28 29 30 31 32 33 34 0 36 37 38 39 40 41 42 43 44 \
 45 46 47 48 49 0 0 0 0 0 0
@<TRIPOS>NORMAL
@<TRIPOS>FF_PBC
FORCE_FIELD_SETUP_FEATURE Force Field Setup information
v1.0  0 0.000000 0.000000 0.000000 0.000000 0.000000 0.000000 NONE 0 0 0 0 0 0 0 0 0 0 0 0 0
