#	Name:			69
#	Creating user name:	jeff
#	Creation time:		Fri Dec 13 10:12:21 2002

#	Modifying user name:	jeff
#	Modification time:	Fri Dec 13 10:12:22 2002

@<TRIPOS>MOLECULE
69
   47    48     2     1     3
SMALL
USER_CHARGES


@<TRIPOS>ATOM
      1 ****        5.251504   -9.809443   12.111653 H         1 APM2        0.519500 
      2 ****        6.790096   -9.354875   10.356495 H         1 APM2        0.159500 
      3 ****        5.279512  -10.470673    8.520931 H         1 APM2        0.190700 
      4 ****        6.175067   -9.047065    8.008510 H         1 APM2        0.219600 
      5 ****        2.808315  -10.363251    8.516979 H         1 APM2        0.198400 
      6 ****        5.100062   -6.832318    7.720071 H         1 APM2        0.184500 
      7 ****        3.060254   -5.666101    6.981951 H         1 APM2        0.228500 
      8 ****        0.872492   -6.755317    7.164490 H         1 APM2        0.193700 
      9 ****        3.894635   -9.791856   10.999142 H         1 APM2        0.511100 
     10 ****       -1.588509   -9.374036    7.053088 H         1 APM2        0.601200 
     11 ****       -0.543133   -8.075066    6.475573 H         1 APM2        0.570400 
     12 ****        0.878088  -10.851508    9.089019 H         1 APM2        0.565000 
     13 ****       -0.770825  -10.970031    8.469005 H         1 APM2        0.595000 
     14 ****        7.556174   -6.254212    8.408039 H         2 PIP3        0.140200 
     15 ****        7.836847   -7.838178    9.123491 H         2 PIP3        0.082600 
     16 ****        9.676244   -6.321062    9.734850 H         2 PIP3        0.135600 
     17 ****        8.751482   -6.800656   11.189646 H         2 PIP3        0.101500 
     18 ****        8.432678   -4.153587    9.632697 H         2 PIP3        0.057500 
     19 C25         9.556120   -4.143308   11.482539 C.3       2 PIP3       -0.548500 
     20 ****        6.827455   -3.518222   11.443889 H         2 PIP3        0.106300 
     21 ****        7.046402   -5.112247   12.221092 H         2 PIP3        0.084300 
     22 ****        4.956177   -5.081724   10.854842 H         2 PIP3        0.088200 
     23 ****        5.887357   -4.633669    9.416432 H         2 PIP3        0.061200 
     24 C           5.503299   -7.610575   10.469689 C.2       1 APM2        0.504400 
     25 CA          5.742886   -9.072328   10.154000 C.3       1 APM2        0.321800 
     26 CB          5.369241   -9.383760    8.673984 C.3       1 APM2       -0.593200 
     27 CG          4.082095   -8.673376    8.215343 C.ar      1 APM2        0.227400 
     28 CD1         2.842074   -9.324188    8.211253 C.ar      1 APM2       -0.241200 
     29 CD2         4.149242   -7.350837    7.761431 C.ar      1 APM2       -0.104600 
     30 CE1         1.667458   -8.670041    7.808726 C.ar      1 APM2       -0.333400 
     31 CE2         2.996047   -6.685205    7.351140 C.ar      1 APM2       -0.110900 
     32 CZ          1.757917   -7.325787    7.415999 C.ar      1 APM2       -0.047500 
     33 CF          0.322097   -9.382250    7.787132 C.cat     1 APM2        1.168000 
     34 O           4.492243   -7.396996   11.117791 O.2       1 APM2       -0.605500 
     35 N           4.961672   -9.934470   11.075936 N.4       1 APM2       -0.718100 
     36 NG1        -0.666319   -8.910341    7.062637 N.pl3     1 APM2       -1.063900 
     37 NG2         0.133391  -10.471550    8.490082 N.pl3     1 APM2       -1.055600 
     38 N1          6.316088   -6.581921   10.068656 N.am      2 PIP3       -0.336100 
     39 C2          7.582001   -6.801871    9.363962 C.3       2 PIP3       -0.090700 
     40 C3          8.708543   -6.219337   10.254294 C.3       2 PIP3       -0.244500 
     41 C4          8.432072   -4.725606   10.578177 C.3       2 PIP3        0.215500 
     42 C5          7.040622   -4.583031   11.255547 C.3       2 PIP3       -0.166600 
     43 C6          5.934385   -5.198884   10.361930 C.3       2 PIP3        0.071400 
     44 ****       10.537972   -4.234137   10.987021 H         2 PIP3        0.152400 
     45 ****        9.598200   -4.681071   12.444162 H         2 PIP3        0.147200 
     46 ****        9.369813   -3.075669   11.686186 H         2 PIP3        0.155600 
     47 ****        5.123555  -10.981860   10.896206 H         1 APM2        0.546200 
@<TRIPOS>BOND
     1   35    1 1    
     2   25    2 1    
     3   26    3 1    
     4   26    4 1    
     5   28    5 1    
     6   29    6 1    
     7   31    7 1    
     8   32    8 1    
     9   35    9 1    
    10   36   10 1    
    11   36   11 1    
    12   37   12 1    
    13   37   13 1    
    14   39   14 1    
    15   39   15 1    
    16   40   16 1    
    17   40   17 1    
    18   41   18 1    
    19   41   19 1    
    20   42   20 1    
    21   42   21 1    
    22   43   22 1    
    23   43   23 1    
    24   24   34 2    
    25   25   24 1    
    26   25   35 1    
    27   26   25 1    
    28   27   26 1    
    29   27   29 ar   
    30   28   27 ar   
    31   30   28 ar   
    32   33   30 1    
    33   30   32 ar   
    34   32   31 ar   
    35   31   29 ar   
    36   33   37 ar   
    37   33   36 ar   
    38   38   43 1    
    39   39   38 1    
    40   40   39 1    
    41   41   40 1    
    42   41   42 1    
    43   42   43 1    
    44   24   38 am   
    45   19   44 1    
    46   19   45 1    
    47   19   46 1    
    48   35   47 1    
@<TRIPOS>SUBSTRUCTURE
     1 APM2       24 GROUP             0 I     ****    1 ROOT 
     2 PIP3       38 GROUP             0 I     ****    1  
@<TRIPOS>SET
UNK_ATOMS       STATIC     ATOMS    AMSOM    **** 
30 0 0 0 0 0 0 0 0 0 0 24 25 26 27 28 29 30 31 32 \
 33 34 35 36 37 38 39 40 41 42 43
ATOM$WHITE      STATIC     ATOMS    COLORGROUP SYSTEM 
0
ATOM$BY_TYPE    STATIC     ATOMS    COLORGROUP SYSTEM 
47 1 2 3 4 5 6 7 8 9 10 11 12 13 14 15 16 17 18 19 \
 20 21 22 23 24 25 26 27 28 29 30 31 32 33 34 35 36 37 \
 38 39 40 41 42 43 44 45 46 47
@<TRIPOS>NORMAL
@<TRIPOS>FF_PBC
FORCE_FIELD_SETUP_FEATURE Force Field Setup information
v1.0  0 0.000000 0.000000 0.000000 0.000000 0.000000 0.000000 NONE 0 0 0 0 0 0 0 0 0 0 0 0 0
