#	Name:			70
#	Creating user name:	jeff
#	Creation time:		Fri Dec 13 10:12:22 2002

#	Modifying user name:	jeff
#	Modification time:	Fri Dec 13 10:12:24 2002

@<TRIPOS>MOLECULE
70
   47    49     3     1     3
SMALL
USER_CHARGES


@<TRIPOS>ATOM
      1 C1          5.420135   -4.886970   14.587853 C.ar      3 NAPHTHALENE   -0.241500 
      2 C2          6.227759   -3.899272   15.157445 C.ar      3 NAPHTHALENE   -0.155300 
      3 C3          7.571284   -4.169423   15.431107 C.ar      3 NAPHTHALENE   -0.076300 
      4 C4          8.103448   -5.428637   15.133224 C.ar      3 NAPHTHALENE   -0.303500 
      5 ****        6.418984   -9.764946   10.577691 H         2 APM2        0.073200 
      6 ****        5.220391  -10.459609    8.643310 H         2 APM2        0.112900 
      7 ****        6.211233   -9.100835    8.084765 H         2 APM2        0.179200 
      8 ****        2.840203  -10.360600    8.463781 H         2 APM2        0.178600 
      9 ****        5.138069   -6.815340    7.762076 H         2 APM2        0.228400 
     10 ****        3.082831   -5.642998    7.028584 H         2 APM2        0.173700 
     11 ****        0.897593   -6.706982    7.251978 H         2 APM2        0.144400 
     12 ****        3.685567   -8.585517   10.784479 H         2 APM2        0.372700 
     13 ****       -1.609473   -9.369776    7.106284 H         2 APM2        0.543800 
     14 ****       -0.589505   -8.063656    6.526831 H         2 APM2        0.541400 
     15 ****        0.849558  -10.885373    9.059741 H         2 APM2        0.500700 
     16 ****       -0.788729  -10.975502    8.433471 H         2 APM2        0.545500 
     17 O17         7.590632   -7.600170   10.044523 O.co2     2 APM2       -0.841700 
     18 S           4.617637   -9.648046   12.712780 S.o2      1 TOS1        2.204400 
     19 O1          5.311637  -10.920588   12.698676 O.2       1 TOS1       -0.992900 
     20 O2          3.302588   -9.554062   13.314997 O.2       1 TOS1       -1.045900 
     21 C5          7.823625   -7.679511   14.257440 C.ar      3 NAPHTHALENE   -0.312500 
     22 C6          7.013331   -8.666897   13.689265 C.ar      3 NAPHTHALENE   -0.082400 
     23 C7          5.665586   -8.405468   13.432534 C.ar      3 NAPHTHALENE   -0.393800 
     24 C8          5.142047   -7.141915   13.719565 C.ar      3 NAPHTHALENE   -0.187100 
     25 C9          5.948596   -6.147975   14.288423 C.ar      3 NAPHTHALENE    0.178400 
     26 C10         7.296901   -6.419543   14.560292 C.ar      3 NAPHTHALENE    0.212700 
     27 H1          4.377963   -4.662525   14.381686 H         3 NAPHTHALENE    0.184700 
     28 C           6.364484   -7.675251   10.330815 C.2       2 APM2        0.681500 
     29 CA          5.692253   -9.020451   10.210197 C.3       2 APM2        0.156700 
     30 CB          5.358321   -9.369694    8.730805 C.3       2 APM2       -0.444600 
     31 CG          4.092161   -8.652207    8.228739 C.ar      2 APM2        0.189800 
     32 CD1         2.854117   -9.311097    8.194993 C.ar      2 APM2       -0.106600 
     33 CD2         4.179591   -7.327062    7.792072 C.ar      2 APM2       -0.051400 
     34 CE1         1.666619   -8.658057    7.822853 C.ar      2 APM2       -0.365800 
     35 CE2         3.019334   -6.664342    7.394364 C.ar      2 APM2       -0.168500 
     36 CZ          1.776482   -7.303390    7.470259 C.ar      2 APM2       -0.086900 
     37 CF          0.317180   -9.374627    7.798783 C.cat     2 APM2        1.028400 
     38 O           5.682277   -6.691948   10.721872 O.co2     2 APM2       -0.940400 
     39 N           4.524466   -9.041147   11.083062 N.am      2 APM2       -0.792800 
     40 NG1        -0.689953   -8.903010    7.102639 N.pl3     2 APM2       -1.030700 
     41 NG2         0.116705  -10.483135    8.471179 N.pl3     2 APM2       -0.892200 
     42 H2          5.813713   -2.922688   15.388794 H         3 NAPHTHALENE    0.147900 
     43 H3          8.200399   -3.404043   15.874302 H         3 NAPHTHALENE    0.141500 
     44 H4          9.148063   -5.624793   15.351908 H         3 NAPHTHALENE    0.181200 
     45 H5          8.866697   -7.903972   14.460651 H         3 NAPHTHALENE    0.198000 
     46 H6          7.435053   -9.637335   13.449040 H         3 NAPHTHALENE    0.191500 
     47 H8          4.099830   -6.940554   13.495041 H         3 NAPHTHALENE    0.221400 
@<TRIPOS>BOND
     1   18   23 1    
     2   21   22 ar   
     3   21   26 ar   
     4   21   45 1    
     5   26    4 ar   
     6   26   25 ar   
     7   25    1 ar   
     8   29    5 1    
     9   30    6 1    
    10   30    7 1    
    11   32    8 1    
    12   33    9 1    
    13   35   10 1    
    14   36   11 1    
    15   39   12 1    
    16   40   13 1    
    17   40   14 1    
    18   41   15 1    
    19   41   16 1    
    20   28   17 ar   
    21   25   24 ar   
    22   18   20 2    
    23   18   19 2    
    24   24   23 ar   
    25   24   47 1    
    26   23   22 ar   
    27   22   46 1    
    28    1    2 ar   
    29    1   27 1    
    30   28   38 ar   
    31   29   28 1    
    32   29   39 1    
    33   30   29 1    
    34   31   30 1    
    35   31   33 ar   
    36   32   31 ar   
    37   34   32 ar   
    38   37   34 1    
    39   34   36 ar   
    40   36   35 ar   
    41   35   33 ar   
    42   37   41 ar   
    43   37   40 ar   
    44   39   18 1    
    45    2    3 ar   
    46    2   42 1    
    47    3    4 ar   
    48    3   43 1    
    49    4   44 1    
@<TRIPOS>SUBSTRUCTURE
     1 TOS1       18 GROUP             0 I     ****    2  
     2 APM2       28 GROUP             0 I     ****    1 ROOT 
     3 NAPHTHALENE    21 PERM              0 ****  ****    1  
@<TRIPOS>SET
UNK_ATOMS       STATIC     ATOMS    AMSOM    **** 
30 18 19 20 0 0 0 0 0 0 0 28 29 30 31 32 33 34 35 36 \
 37 38 39 40 41 0 0 0 0 0 0
ATOM$WHITE      STATIC     ATOMS    COLORGROUP SYSTEM 
0
ATOM$BY_TYPE    STATIC     ATOMS    COLORGROUP SYSTEM 
47 1 2 3 4 5 6 7 8 9 10 11 12 13 14 15 16 17 18 19 \
 20 21 22 23 24 25 26 27 28 29 30 31 32 33 34 35 36 37 \
 38 39 40 41 42 43 44 45 46 47
@<TRIPOS>NORMAL
@<TRIPOS>FF_PBC
FORCE_FIELD_SETUP_FEATURE Force Field Setup information
v1.0  0 0.000000 0.000000 0.000000 0.000000 0.000000 0.000000 NONE 0 0 0 0 0 0 0 0 0 0 0 0 0
