#	Name:			71
#	Creating user name:	jeff
#	Creation time:		Fri Dec 13 10:12:24 2002

#	Modifying user name:	jeff
#	Modification time:	Fri Dec 13 10:12:26 2002

@<TRIPOS>MOLECULE
71
   66    70     5     1     5
SMALL
USER_CHARGES


@<TRIPOS>ATOM
      1 C1          3.833180   -6.348681   15.161331 C.ar      5 NAPHTHALENE   -0.268300 
      2 C2          4.011598   -5.139694   15.840255 C.ar      5 NAPHTHALENE   -0.117100 
      3 C3          5.290647   -4.592464   15.967042 C.ar      5 NAPHTHALENE   -0.099100 
      4 C4          6.392052   -5.275896   15.445838 C.ar      5 NAPHTHALENE   -0.262800 
      5 ****        6.802571   -9.644833   10.165096 H         2 APM2        0.071200 
      6 ****        5.156406  -10.673143    8.459055 H         2 APM2        0.193900 
      7 ****        6.082313   -9.297457    7.858365 H         2 APM2        0.233000 
      8 ****        2.706407  -10.482283    8.527705 H         2 APM2        0.206700 
      9 ****        5.074679   -6.977378    7.765816 H         2 APM2        0.219600 
     10 ****        3.025336   -5.709057    7.225281 H         2 APM2        0.191100 
     11 ****        0.814732   -6.806468    7.334640 H         2 APM2        0.156700 
     12 ****        4.003683  -10.199977   10.821148 H         2 APM2        0.401900 
     13 ****       -1.640043   -9.357551    7.139471 H         2 APM2        0.564900 
     14 ****       -0.569078   -8.038146    6.638002 H         2 APM2        0.558700 
     15 ****        0.868205  -10.951849    9.080171 H         2 APM2        0.555100 
     16 ****       -0.805999  -11.045441    8.507402 H         2 APM2        0.569200 
     17 C          10.043497   -6.471603    8.705031 C.2       4 CO2         0.758000 
     18 O          10.270356   -7.676271    8.415724 O.co2     4 CO2        -0.967500 
     19 ****        9.243934   -4.084905    9.436842 H         3 TETRAHYDROQUINOLINE    0.275000 
     20 N1          6.454826   -6.835577   10.198648 N.am      3 TETRAHYDROQUINOLINE   -0.459000 
     21 C1          7.750477   -7.205999    9.604701 C.3       3 TETRAHYDROQUINOLINE    0.101500 
     22 S           5.653710  -10.534067   12.655815 S.o2      1 TOS1        2.285100 
     23 O1          6.953366  -11.141860   12.447812 O.2       1 TOS1       -0.926900 
     24 O2          4.631428  -11.284006   13.358834 O.2       1 TOS1       -0.981100 
     25 C5          7.327984   -7.234456   14.352029 C.ar      5 NAPHTHALENE   -0.301600 
     26 C6          7.154300   -8.467306   13.717517 C.ar      5 NAPHTHALENE   -0.045500 
     27 C7          5.870432   -8.972149   13.493762 C.ar      5 NAPHTHALENE   -0.517000 
     28 C8          4.762939   -8.236581   13.928701 C.ar      5 NAPHTHALENE   -0.153900 
     29 C9          4.932839   -7.034692   14.629370 C.ar      5 NAPHTHALENE    0.165200 
     30 C10         6.220472   -6.511299   14.808713 C.ar      5 NAPHTHALENE    0.197500 
     31 H1          2.830300   -6.750676   15.056052 H         5 NAPHTHALENE    0.181900 
     32 C           5.548130   -7.844079   10.403876 C.2       2 APM2        0.609800 
     33 CA          5.766316   -9.299144   10.041009 C.3       2 APM2        0.527600 
     34 CB          5.306064   -9.588683    8.580941 C.3       2 APM2       -0.646500 
     35 CG          4.027496   -8.816103    8.210013 C.ar      2 APM2        0.305200 
     36 CD1         2.773456   -9.439257    8.240132 C.ar      2 APM2       -0.188500 
     37 CD2         4.110899   -7.473351    7.823843 C.ar      2 APM2       -0.094300 
     38 CE1         1.614027   -8.737898    7.889516 C.ar      2 APM2       -0.398200 
     39 CE2         2.954974   -6.755033    7.507877 C.ar      2 APM2       -0.137400 
     40 CZ          1.707647   -7.382758    7.555162 C.ar      2 APM2       -0.101200 
     41 CF          0.266123   -9.435586    7.861945 C.cat     2 APM2        1.171700 
     42 O           4.443633   -7.697537   10.893859 O.2       2 APM2       -0.681700 
     43 N           4.976162  -10.056663   11.006963 N.am      2 APM2       -1.061400 
     44 NG1        -0.712846   -8.907403    7.172799 N.pl3     2 APM2       -1.075800 
     45 NG2         0.099719  -10.552474    8.522158 N.pl3     2 APM2       -1.036600 
     46 C2          8.752402   -6.120272    9.329527 C.2       3 TETRAHYDROQUINOLINE    0.032700 
     47 C3          8.495215   -4.851431    9.640146 C.2       3 TETRAHYDROQUINOLINE   -0.543000 
     48 C4          6.975033   -3.126815   10.570451 C.ar      3 TETRAHYDROQUINOLINE   -0.250000 
     49 C5          5.778460   -2.701984   11.145171 C.ar      3 TETRAHYDROQUINOLINE   -0.199200 
     50 C6          4.791402   -3.646834   11.412099 C.ar      3 TETRAHYDROQUINOLINE   -0.145800 
     51 C7          5.003280   -4.994247   11.109014 C.ar      3 TETRAHYDROQUINOLINE   -0.216100 
     52 H2          3.158076   -4.623993   16.270239 H         5 NAPHTHALENE    0.152200 
     53 H3          5.428318   -3.640019   16.470549 H         5 NAPHTHALENE    0.158700 
     54 H4          7.380627   -4.837274   15.543828 H         5 NAPHTHALENE    0.190300 
     55 H5          8.332827   -6.847350   14.491321 H         5 NAPHTHALENE    0.222000 
     56 H6          8.024470   -9.033350   13.404423 H         5 NAPHTHALENE    0.190000 
     57 H8          3.767217   -8.614024   13.721168 H         5 NAPHTHALENE    0.207500 
     58 C8          6.201313   -5.454178   10.527722 C.ar      3 TETRAHYDROQUINOLINE    0.060400 
     59 C9          7.176106   -4.478445   10.267691 C.ar      3 TETRAHYDROQUINOLINE    0.299200 
     60 H2          7.593381   -7.686093    8.628550 H         3 TETRAHYDROQUINOLINE    0.069300 
     61 H3          8.283228   -7.899543   10.273078 H         3 TETRAHYDROQUINOLINE    0.047800 
     62 ****        7.746760   -2.393178   10.361010 H         3 TETRAHYDROQUINOLINE    0.197100 
     63 ****        5.614930   -1.655582   11.381268 H         3 TETRAHYDROQUINOLINE    0.157800 
     64 ****        3.852364   -3.330559   11.858201 H         3 TETRAHYDROQUINOLINE    0.135400 
     65 ****        4.165504   -5.615525   11.365479 H         3 TETRAHYDROQUINOLINE    0.160800 
     66 O          10.886149   -5.562231    8.475763 O.co2     4 CO2        -0.906600 
@<TRIPOS>BOND
     1   22   27 1    
     2   25   26 ar   
     3   25   30 ar   
     4   25   55 1    
     5   30    4 ar   
     6   30   29 ar   
     7   29    1 ar   
     8   33    5 1    
     9   34    6 1    
    10   34    7 1    
    11   36    8 1    
    12   37    9 1    
    13   39   10 1    
    14   40   11 1    
    15   43   12 1    
    16   44   13 1    
    17   44   14 1    
    18   45   15 1    
    19   45   16 1    
    20   32   20 am   
    21   48   49 ar   
    22   48   59 ar   
    23   48   62 1    
    24   59   47 1    
    25   59   58 ar   
    26   58   20 1    
    27   58   51 ar   
    28   51   65 1    
    29   51   50 ar   
    30   29   28 ar   
    31   22   24 2    
    32   22   23 2    
    33   28   27 ar   
    34   28   57 1    
    35   27   26 ar   
    36   26   56 1    
    37    1    2 ar   
    38    1   31 1    
    39   32   42 2    
    40   33   32 1    
    41   33   43 1    
    42   34   33 1    
    43   35   34 1    
    44   35   37 ar   
    45   36   35 ar   
    46   38   36 ar   
    47   41   38 1    
    48   38   40 ar   
    49   40   39 ar   
    50   39   37 ar   
    51   41   45 ar   
    52   41   44 ar   
    53   50   64 1    
    54   50   49 ar   
    55   49   63 1    
    56   17   18 ar   
    57   20   21 1    
    58   21   60 1    
    59   43   22 1    
    60   21   61 1    
    61   21   46 1    
    62    2    3 ar   
    63    2   52 1    
    64    3    4 ar   
    65    3   53 1    
    66    4   54 1    
    67   46   17 1    
    68   46   47 2    
    69   47   19 1    
    70   17   66 ar   
@<TRIPOS>SUBSTRUCTURE
     1 TOS1       22 GROUP             0 I     ****    2  
     2 APM2       32 GROUP             0 I     ****    2 ROOT 
     3 TETRAHYDROQUINOLINE    48 PERM              0 ****  ****    2  
     4 CO2        17 PERM              0 ****  ****    1  
     5 NAPHTHALENE    25 PERM              0 ****  ****    1  
@<TRIPOS>SET
UNK_ATOMS       STATIC     ATOMS    AMSOM    **** 
30 22 23 24 0 0 0 0 0 0 0 32 33 34 35 36 37 38 39 40 \
 41 42 43 44 45 0 0 0 0 0 0
LAB$B_TYPE      STATIC     BONDS    LABELGROUP SYSTEM 
0
ATOM$BY_TYPE    STATIC     ATOMS    COLORGROUP SYSTEM 
66 1 2 3 4 5 6 7 8 9 10 11 12 13 14 15 16 17 18 19 \
 20 21 22 23 24 25 26 27 28 29 30 31 32 33 34 35 36 37 \
 38 39 40 41 42 43 44 45 46 47 48 49 50 51 52 53 54 55 \
 56 57 58 59 60 61 62 63 64 65 66
ATOM$RED        STATIC     ATOMS    COLORGROUP SYSTEM 
0
ATOM$WHITE      STATIC     ATOMS    COLORGROUP SYSTEM 
0
@<TRIPOS>NORMAL
@<TRIPOS>FF_PBC
FORCE_FIELD_SETUP_FEATURE Force Field Setup information
v1.0  0 0.000000 0.000000 0.000000 0.000000 0.000000 0.000000 NONE 0 0 0 0 0 0 0 0 0 0 0 0 0
