#	Name:			72
#	Creating user name:	jeff
#	Creation time:		Fri Dec 13 10:12:26 2002

#	Modifying user name:	jeff
#	Modification time:	Fri Dec 13 10:12:28 2002

@<TRIPOS>MOLECULE
72
   55    56     2     1     1
SMALL
USER_CHARGES


@<TRIPOS>ATOM
      1 C1          3.800993   -6.854008   13.544188 C.3       1 TOS1       -0.286600 
      2 ****        5.548208   -5.171125   14.574007 H         1 TOS1        0.246000 
      3 C3          8.240181   -5.081703   15.127138 C.3       1 TOS1       -0.305700 
      4 C4          8.090303   -9.859558   13.681423 C.3       1 TOS1       -0.262400 
      5 ****        9.084032   -7.550963   14.432267 H         1 TOS1        0.245400 
      6 ****        7.641510   -4.167899   15.276500 H         1 TOS1        0.096400 
      7 ****        9.064815   -4.847786   14.430730 H         1 TOS1        0.096100 
      8 ****        6.599219   -9.481788   10.480540 H         2 APM2        0.143000 
      9 ****        5.189438  -10.455159    8.800187 H         2 APM2        0.142800 
     10 ****        6.181558   -9.218892    7.989692 H         2 APM2        0.124600 
     11 ****        2.860844  -10.406988    8.303405 H         2 APM2        0.189000 
     12 ****        5.146963   -6.824113    7.677920 H         2 APM2        0.211000 
     13 ****        3.060805   -5.609759    7.102416 H         2 APM2        0.193600 
     14 ****        0.862984   -6.693465    7.407866 H         2 APM2        0.163300 
     15 ****        3.783335   -8.547574   10.814244 H         2 APM2        0.363200 
     16 ****       -1.598758   -9.334834    7.167752 H         2 APM2        0.565300 
     17 ****       -0.586705   -7.982795    6.636650 H         2 APM2        0.554600 
     18 ****        0.967372  -10.941498    8.963115 H         2 APM2        0.514300 
     19 ****       -0.706144  -11.029077    8.393579 H         2 APM2        0.566300 
     20 N20         7.578029   -7.255039    9.611499 N.am      2 APM2       -0.838500 
     21 ****        8.143361   -8.021234    9.300015 H         2 APM2        0.460800 
     22 C22         8.186448   -5.927970    9.563904 C.3       2 APM2        0.061900 
     23 ****        7.501583   -5.125705    9.884813 H         2 APM2        0.101300 
     24 ****        8.507749   -5.710266    8.532057 H         2 APM2        0.068600 
     25 ****        9.073058   -5.905182   10.220074 H         2 APM2        0.051300 
     26 S           4.925756   -9.666903   12.655387 S.o2      1 TOS1        2.434700 
     27 O1          5.682371  -10.876978   12.399184 O.2       1 TOS1       -0.964400 
     28 O2          3.655708   -9.801430   13.355610 O.2       1 TOS1       -1.016800 
     29 C1          5.919681   -8.384916   13.465859 C.ar      1 TOS1       -0.810300 
     30 C2          5.295810   -7.157275   13.766254 C.ar      1 TOS1        0.344800 
     31 C3          6.036874   -6.108021   14.320213 C.ar      1 TOS1       -0.418700 
     32 C4          7.405858   -6.239104   14.558322 C.ar      1 TOS1        0.333900 
     33 C5          8.013970   -7.459365   14.269346 C.ar      1 TOS1       -0.412000 
     34 C6          7.282195   -8.553303   13.789254 C.ar      1 TOS1        0.290800 
     35 ****        8.664339   -5.385206   16.095747 H         1 TOS1        0.119200 
     36 C           6.317321   -7.439147   10.088637 C.2       2 APM2        0.781500 
     37 CA          5.775762   -8.845794   10.119410 C.3       2 APM2        0.064000 
     38 CB          5.367284   -9.370705    8.715567 C.3       2 APM2       -0.337900 
     39 CG          4.107885   -8.661633    8.180716 C.ar      2 APM2        0.153600 
     40 CD1         2.880326   -9.336936    8.121805 C.ar      2 APM2       -0.114500 
     41 CD2         4.184211   -7.330850    7.758610 C.ar      2 APM2       -0.095600 
     42 CE1         1.688094   -8.654341    7.823151 C.ar      2 APM2       -0.342300 
     43 CE2         3.006890   -6.644332    7.437226 C.ar      2 APM2       -0.162300 
     44 CZ          1.766733   -7.282646    7.541321 C.ar      2 APM2       -0.061400 
     45 CF          0.347837   -9.379492    7.803123 C.cat     2 APM2        1.074600 
     46 O           5.607629   -6.536759   10.483758 O.2       2 APM2       -0.605500 
     47 N           4.669088   -8.928965   11.069776 N.am      2 APM2       -0.907900 
     48 NG1        -0.679712   -8.862401    7.161943 N.pl3     2 APM2       -1.044900 
     49 NG2         0.195947  -10.522527    8.421403 N.pl3     2 APM2       -0.955300 
     50 ****        3.276616   -7.518033   12.850285 H         1 TOS1        0.074300 
     51 ****        3.687916   -5.835804   13.145774 H         1 TOS1        0.100400 
     52 ****        3.298969   -6.908940   14.523371 H         1 TOS1        0.128900 
     53 ****        7.484424  -10.769822   13.754300 H         1 TOS1        0.143500 
     54 ****        8.807693   -9.924363   14.516637 H         1 TOS1        0.085400 
     55 ****        8.658755   -9.857077   12.740316 H         1 TOS1        0.076700 
@<TRIPOS>BOND
     1   30    1 1    
     2   31    2 1    
     3   32    3 1    
     4   34    4 1    
     5   33    5 1    
     6    3    6 1    
     7    3    7 1    
     8   37    8 1    
     9   38    9 1    
    10   38   10 1    
    11   40   11 1    
    12   41   12 1    
    13   43   13 1    
    14   44   14 1    
    15   47   15 1    
    16   48   16 1    
    17   48   17 1    
    18   49   18 1    
    19   49   19 1    
    20   36   20 am   
    21   20   21 1    
    22   20   22 1    
    23   22   23 1    
    24   22   24 1    
    25   22   25 1    
    26   29   26 1    
    27   26   28 2    
    28   26   27 2    
    29   29   34 ar   
    30   30   29 ar   
    31   31   30 ar   
    32   32   31 ar   
    33    3   35 1    
    34   32   33 ar   
    35   33   34 ar   
    36   36   46 2    
    37   37   36 1    
    38   37   47 1    
    39   38   37 1    
    40   39   38 1    
    41   39   41 ar   
    42   40   39 ar   
    43   42   40 ar   
    44   45   42 1    
    45   42   44 ar   
    46   44   43 ar   
    47   43   41 ar   
    48   45   49 ar   
    49   45   48 ar   
    50   47   26 1    
    51    1   50 1    
    52    1   51 1    
    53    1   52 1    
    54    4   53 1    
    55    4   54 1    
    56    4   55 1    
@<TRIPOS>SUBSTRUCTURE
     1 TOS1       26 GROUP             0 I     ****    1  
     2 APM2       36 GROUP             0 I     ****    1 ROOT 
@<TRIPOS>SET
UNK_ATOMS       STATIC     ATOMS    AMSOM    **** 
30 26 27 28 29 30 31 32 33 34 0 36 37 38 39 40 41 42 43 44 \
 45 46 47 48 49 0 0 0 0 0 0
@<TRIPOS>NORMAL
@<TRIPOS>FF_PBC
FORCE_FIELD_SETUP_FEATURE Force Field Setup information
v1.0  0 0.000000 0.000000 0.000000 0.000000 0.000000 0.000000 NONE 0 0 0 0 0 0 0 0 0 0 0 0 0
