#	Name:			73
#	Creating user name:	jeff
#	Creation time:		Fri Dec 13 10:12:28 2002

#	Modifying user name:	jeff
#	Modification time:	Fri Dec 13 10:12:30 2002

@<TRIPOS>MOLECULE
73
   67    70     5     1     2
SMALL
USER_CHARGES


@<TRIPOS>ATOM
      1 C1          3.897815   -6.361475   15.292791 C.ar      4 NAPHTHALENE   -0.243600 
      2 C2          4.069773   -5.146766   15.962380 C.ar      4 NAPHTHALENE   -0.125400 
      3 C3          5.339279   -4.569542   16.041756 C.ar      4 NAPHTHALENE   -0.059700 
      4 C4          6.434210   -5.207940   15.453206 C.ar      4 NAPHTHALENE   -0.315800 
      5 ****        6.764445   -9.311193   10.404922 H         2 APM2        0.113400 
      6 ****        5.260402  -10.491975    8.651598 H         2 APM2        0.173800 
      7 ****        6.176376   -9.108662    8.044025 H         2 APM2        0.134800 
      8 ****        2.805950  -10.394061    8.508688 H         2 APM2        0.206200 
      9 ****        5.115876   -6.859696    7.744474 H         2 APM2        0.190900 
     10 ****        3.065476   -5.658107    7.078049 H         2 APM2        0.202700 
     11 ****        0.870211   -6.762422    7.234307 H         2 APM2        0.161400 
     12 ****        3.955162   -9.917251   10.972390 H         2 APM2        0.388700 
     13 ****       -1.568112   -9.362733    7.072761 H         2 APM2        0.570500 
     14 ****       -0.514501   -8.049595    6.530728 H         2 APM2        0.554100 
     15 ****        0.919855  -10.873896    9.081980 H         2 APM2        0.544700 
     16 ****       -0.738759  -10.993031    8.478155 H         2 APM2        0.574200 
     17 ****        7.676121   -6.186663    8.545645 H         3 PIP3        0.144400 
     18 ****        7.842269   -7.820375    9.165541 H         3 PIP3        0.090600 
     19 ****        9.691634   -6.440283   10.056509 H         3 PIP3        0.142400 
     20 ****        8.605379   -6.854053   11.400750 H         3 PIP3        0.142600 
     21 S1          9.398642   -3.728482   10.124433 S.o2      5 SULFONYL    2.297900 
     22 O           8.897874   -2.416921   10.484237 O.2       5 SULFONYL   -0.922500 
     23 ****        6.900867   -3.450573   11.376744 H         3 PIP3        0.156600 
     24 ****        6.996161   -4.956276   12.303224 H         3 PIP3        0.110700 
     25 ****        4.973062   -5.023251   10.894025 H         3 PIP3        0.120300 
     26 ****        5.916281   -4.604105    9.456114 H         3 PIP3        0.110400 
     27 S           5.660809  -10.421030   12.624632 S.o2      1 TOS1        2.253200 
     28 O1          6.945066  -11.021904   12.319011 O.2       1 TOS1       -0.922700 
     29 O2          4.667759  -11.189296   13.348259 O.2       1 TOS1       -0.955500 
     30 C5          7.360021   -7.076125   14.197313 C.ar      4 NAPHTHALENE   -0.245900 
     31 C6          7.186492   -8.297970   13.540277 C.ar      4 NAPHTHALENE   -0.140600 
     32 C7          5.917579   -8.878566   13.466286 C.ar      4 NAPHTHALENE   -0.427200 
     33 C8          4.824210   -8.222962   14.036092 C.ar      4 NAPHTHALENE   -0.210700 
     34 C9          4.993374   -7.005077   14.704096 C.ar      4 NAPHTHALENE    0.182500 
     35 C10         6.267177   -6.427037   14.785392 C.ar      4 NAPHTHALENE    0.189700 
     36 H1          2.905827   -6.798640   15.236752 H         4 NAPHTHALENE    0.190400 
     37 C           5.481803   -7.552668   10.482455 C.2       2 APM2        0.506100 
     38 CA          5.723404   -9.025258   10.197173 C.3       2 APM2        0.295300 
     39 CB          5.364672   -9.398328    8.728272 C.3       2 APM2       -0.463800 
     40 CG          4.085119   -8.692661    8.244969 C.ar      2 APM2        0.201500 
     41 CD1         2.848009   -9.348295    8.227389 C.ar      2 APM2       -0.155800 
     42 CD2         4.159533   -7.368512    7.799094 C.ar      2 APM2       -0.051800 
     43 CE1         1.677683   -8.679543    7.839789 C.ar      2 APM2       -0.361900 
     44 CE2         3.001837   -6.687739    7.416928 C.ar      2 APM2       -0.178200 
     45 CZ          1.763219   -7.330432    7.473486 C.ar      2 APM2       -0.053500 
     46 CF          0.336292   -9.391673    7.810185 C.cat     2 APM2        1.114600 
     47 O           4.443661   -7.324834   11.084296 O.2       2 APM2       -0.603400 
     48 N           4.936869   -9.812936   11.137760 N.am      2 APM2       -0.962100 
     49 NG1        -0.646474   -8.900481    7.095717 N.pl3     2 APM2       -1.044100 
     50 NG2         0.162949  -10.492949    8.497442 N.pl3     2 APM2       -1.007900 
     51 N1          6.322183   -6.544097   10.110815 N.am      3 PIP3       -0.388900 
     52 C2          7.614552   -6.791600    9.460977 C.3       3 PIP3       -0.010400 
     53 C3          8.679815   -6.287821   10.458644 C.3       3 PIP3       -0.027400 
     54 N4          8.358129   -4.885493   10.694594 N.am      3 PIP3       -0.964500 
     55 C5          7.067570   -4.534754   11.289145 C.3       3 PIP3        0.065600 
     56 C6          5.953825   -5.153489   10.408305 C.3       3 PIP3       -0.028400 
     57 O           9.663416   -4.011051    8.726291 O.2       5 SULFONYL   -0.970700 
     58 ****       10.930785   -3.990289   11.041711 C.3       5 SULFONYL   -0.768800 
     59 ****       10.742268   -3.861038   12.115484 H         5 SULFONYL    0.246100 
     60 H2          3.217925   -4.652838   16.419891 H         4 NAPHTHALENE    0.168000 
     61 H3          5.473867   -3.626028   16.562586 H         4 NAPHTHALENE    0.166900 
     62 H4          7.414842   -4.745904   15.521188 H         4 NAPHTHALENE    0.199300 
     63 H5          8.351757   -6.636954   14.246198 H         4 NAPHTHALENE    0.200400 
     64 H6          8.039255   -8.793259   13.090017 H         4 NAPHTHALENE    0.199600 
     65 H8          3.840494   -8.672546   13.953085 H         4 NAPHTHALENE    0.226500 
     66 ****       11.673285   -3.248849   10.712369 H         5 SULFONYL    0.256200 
     67 ****       11.339851   -4.991851   10.861003 H         5 SULFONYL    0.240100 
@<TRIPOS>BOND
     1   27   32 1    
     2   30   31 ar   
     3   30   35 ar   
     4   30   63 1    
     5   35    4 ar   
     6   35   34 ar   
     7   34    1 ar   
     8   38    5 1    
     9   39    6 1    
    10   39    7 1    
    11   41    8 1    
    12   42    9 1    
    13   44   10 1    
    14   45   11 1    
    15   48   12 1    
    16   49   13 1    
    17   49   14 1    
    18   50   15 1    
    19   50   16 1    
    20   52   17 1    
    21   52   18 1    
    22   53   19 1    
    23   53   20 1    
    24   21   22 2    
    25   21   57 2    
    26   55   23 1    
    27   55   24 1    
    28   56   25 1    
    29   56   26 1    
    30   34   33 ar   
    31   27   29 2    
    32   27   28 2    
    33   33   32 ar   
    34   33   65 1    
    35   32   31 ar   
    36   31   64 1    
    37    1    2 ar   
    38    1   36 1    
    39   37   47 2    
    40   38   37 1    
    41   38   48 1    
    42   39   38 1    
    43   40   39 1    
    44   40   42 ar   
    45   41   40 ar   
    46   43   41 ar   
    47   46   43 1    
    48   43   45 ar   
    49   45   44 ar   
    50   44   42 ar   
    51   46   50 ar   
    52   46   49 ar   
    53   51   56 1    
    54   52   51 1    
    55   53   52 1    
    56   54   53 1    
    57   54   55 1    
    58   55   56 1    
    59   37   51 am   
    60   48   27 1    
    61   54   21 1    
    62   21   58 1    
    63   58   59 1    
    64    2    3 ar   
    65    2   60 1    
    66    3    4 ar   
    67    3   61 1    
    68    4   62 1    
    69   58   66 1    
    70   58   67 1    
@<TRIPOS>SUBSTRUCTURE
     1 TOS1       27 GROUP             0 I     ****    2  
     2 APM2       37 GROUP             0 I     ****    2 ROOT 
     3 PIP3       51 GROUP             0 I     ****    2  
     4 NAPHTHALENE    30 PERM              0 ****  ****    1  
     5 SULFONYL    21 PERM              0 ****  ****    1  
@<TRIPOS>SET
UNK_ATOMS       STATIC     ATOMS    AMSOM    **** 
30 27 28 29 0 0 0 0 0 0 0 37 38 39 40 41 42 43 44 45 \
 46 47 48 49 50 51 52 53 54 55 56
LAB$B_TYPE      STATIC     BONDS    LABELGROUP SYSTEM 
0
@<TRIPOS>NORMAL
@<TRIPOS>FF_PBC
FORCE_FIELD_SETUP_FEATURE Force Field Setup information
v1.0  0 0.000000 0.000000 0.000000 0.000000 0.000000 0.000000 NONE 0 0 0 0 0 0 0 0 0 0 0 0 0
