#	Name:			74
#	Creating user name:	jeff
#	Creation time:		Fri Dec 13 10:12:30 2002

#	Modifying user name:	jeff
#	Modification time:	Fri Dec 13 10:12:32 2002

@<TRIPOS>MOLECULE
74
   60    62     5     1     2
SMALL
USER_CHARGES


@<TRIPOS>ATOM
      1 C1          3.898755   -6.368790   15.298244 C.ar      4 NAPHTHALENE   -0.224500 
      2 C2          4.065806   -5.153276   15.968178 C.ar      4 NAPHTHALENE   -0.153100 
      3 C3          5.333761   -4.572763   16.052549 C.ar      4 NAPHTHALENE   -0.033400 
      4 C4          6.431712   -5.208369   15.465928 C.ar      4 NAPHTHALENE   -0.314500 
      5 ****        6.773622   -9.204337   10.311805 H         2 APM2        0.094800 
      6 ****        5.170186  -10.521143    8.706448 H         2 APM2        0.175000 
      7 ****        6.128371   -9.189363    8.034647 H         2 APM2        0.131400 
      8 ****        2.749450  -10.409401    8.489268 H         2 APM2        0.196100 
      9 ****        5.103966   -6.903966    7.749927 H         2 APM2        0.220100 
     10 ****        3.064542   -5.679873    7.057330 H         2 APM2        0.197800 
     11 ****        0.856018   -6.757930    7.214886 H         2 APM2        0.158800 
     12 ****        3.975148   -9.940085   10.991541 H         2 APM2        0.374200 
     13 ****       -1.609436   -9.361740    7.061042 H         2 APM2        0.572800 
     14 ****       -0.554511   -8.050535    6.517288 H         2 APM2        0.558900 
     15 ****        0.872895  -10.871460    9.077086 H         2 APM2        0.551700 
     16 ****       -0.782487  -10.991554    8.467364 H         2 APM2        0.576000 
     17 O17         6.321755   -6.652165   10.115263 O.3       3 AMINO      -0.627300 
     18 C           5.975559   -5.296137   10.496242 C.3       5 NBUTYL      0.073000 
     19 C           7.059598   -4.273021   10.053130 C.3       5 NBUTYL      0.134800 
     20 C           6.745116   -2.820907   10.521835 C.3       5 NBUTYL     -0.042500 
     21 C           7.831665   -1.813452   10.057210 C.3       5 NBUTYL     -0.176400 
     22 ****        5.015820   -5.013491   10.031359 H         5 NBUTYL      0.057700 
     23 ****        5.865257   -5.237651   11.592682 H         5 NBUTYL      0.048200 
     24 ****        7.136883   -4.291286    8.952940 H         5 NBUTYL      0.021900 
     25 ****        8.027710   -4.585714   10.477383 H         5 NBUTYL      0.029700 
     26 S           5.692683  -10.412332   12.616521 S.o2      1 TOS1        2.267600 
     27 O1          6.981939  -10.997306   12.302477 O.2       1 TOS1       -0.901700 
     28 O2          4.709316  -11.193554   13.341569 O.2       1 TOS1       -0.942100 
     29 C5          7.362606   -7.063841   14.197698 C.ar      4 NAPHTHALENE   -0.293700 
     30 C6          7.194435   -8.279440   13.529900 C.ar      4 NAPHTHALENE   -0.101400 
     31 C7          5.931026   -8.870956   13.462895 C.ar      4 NAPHTHALENE   -0.480100 
     32 C8          4.834159   -8.227130   14.040387 C.ar      4 NAPHTHALENE   -0.168000 
     33 C9          4.996314   -7.008440   14.709189 C.ar      4 NAPHTHALENE    0.113000 
     34 C10         6.267774   -6.424529   14.791030 C.ar      4 NAPHTHALENE    0.253000 
     35 H1          2.908272   -6.809326   15.241900 H         4 NAPHTHALENE    0.186400 
     36 C           5.417119   -7.564891   10.523242 C.2       2 APM2        0.948700 
     37 CA          5.696542   -9.009057   10.181481 C.3       2 APM2        0.296200 
     38 CB          5.310544   -9.428902    8.732757 C.3       2 APM2       -0.400000 
     39 CG          4.042365   -8.716206    8.241042 C.ar      2 APM2        0.156500 
     40 CD1         2.800467   -9.362567    8.214686 C.ar      2 APM2       -0.124400 
     41 CD2         4.137431   -7.395285    7.794556 C.ar      2 APM2       -0.100600 
     42 CE1         1.638890   -8.682548    7.825961 C.ar      2 APM2       -0.405600 
     43 CE2         2.988440   -6.705908    7.403007 C.ar      2 APM2       -0.163600 
     44 CZ          1.741629   -7.335369    7.457204 C.ar      2 APM2       -0.039700 
     45 CF          0.294383   -9.391244    7.798860 C.cat     2 APM2        1.156100 
     46 O           4.411487   -7.275862   11.157526 O.2       2 APM2       -0.681900 
     47 N           4.955870   -9.816126   11.142827 N.am      2 APM2       -1.026900 
     48 NG1        -0.687125   -8.900333    7.083373 N.pl3     2 APM2       -1.053900 
     49 NG2         0.118975  -10.490940    8.488383 N.pl3     2 APM2       -1.029100 
     50 ****        6.687754   -2.790489   11.622563 H         5 NBUTYL      0.029700 
     51 ****        5.771176   -2.497892   10.118181 H         5 NBUTYL      0.022700 
     52 ****        7.583611   -0.795939   10.399183 H         5 NBUTYL      0.064700 
     53 ****        7.902860   -1.801883    8.958688 H         5 NBUTYL      0.041100 
     54 ****        8.814333   -2.088008   10.470665 H         5 NBUTYL      0.046000 
     55 H2          3.211983   -4.660900   16.422876 H         4 NAPHTHALENE    0.170400 
     56 H3          5.465196   -3.629683   16.573940 H         4 NAPHTHALENE    0.156800 
     57 H4          7.411570   -4.747034   15.541245 H         4 NAPHTHALENE    0.193400 
     58 H5          8.353261   -6.622176   14.251304 H         4 NAPHTHALENE    0.212000 
     59 H6          8.047341   -8.762535   13.065239 H         4 NAPHTHALENE    0.200100 
     60 H8          3.853992   -8.686059   13.962739 H         4 NAPHTHALENE    0.219300 
@<TRIPOS>BOND
     1   26   31 1    
     2   29   30 ar   
     3   29   34 ar   
     4   29   58 1    
     5   34    4 ar   
     6   34   33 ar   
     7   33    1 ar   
     8   37    5 1    
     9   38    6 1    
    10   38    7 1    
    11   40    8 1    
    12   41    9 1    
    13   43   10 1    
    14   44   11 1    
    15   47   12 1    
    16   48   13 1    
    17   48   14 1    
    18   49   15 1    
    19   49   16 1    
    20   18   19 1    
    21   19   20 1    
    22   36   17 1    
    23   20   21 1    
    24   17   18 1    
    25   18   22 1    
    26   18   23 1    
    27   19   24 1    
    28   19   25 1    
    29   33   32 ar   
    30   26   28 2    
    31   26   27 2    
    32   32   31 ar   
    33   32   60 1    
    34   31   30 ar   
    35   30   59 1    
    36    1    2 ar   
    37    1   35 1    
    38   36   46 2    
    39   37   36 1    
    40   37   47 1    
    41   38   37 1    
    42   39   38 1    
    43   39   41 ar   
    44   40   39 ar   
    45   42   40 ar   
    46   45   42 1    
    47   42   44 ar   
    48   44   43 ar   
    49   43   41 ar   
    50   45   49 ar   
    51   45   48 ar   
    52   20   50 1    
    53   20   51 1    
    54   21   52 1    
    55   21   53 1    
    56   21   54 1    
    57   47   26 1    
    58    2    3 ar   
    59    2   55 1    
    60    3    4 ar   
    61    3   56 1    
    62    4   57 1    
@<TRIPOS>SUBSTRUCTURE
     1 TOS1       26 GROUP             0 I     ****    2  
     2 APM2       36 GROUP             0 I     ****    2 ROOT 
     3 AMINO      17 PERM              0 ****  ****    2  
     4 NAPHTHALENE    29 PERM              0 ****  ****    1  
     5 NBUTYL     18 PERM              0 ****  ****    1  
@<TRIPOS>SET
UNK_ATOMS       STATIC     ATOMS    AMSOM    **** 
30 26 27 28 0 0 0 0 0 0 0 36 37 38 39 40 41 42 43 44 \
 45 46 47 48 49 0 0 0 0 0 0
LAB$B_TYPE      STATIC     BONDS    LABELGROUP SYSTEM 
0
@<TRIPOS>NORMAL
@<TRIPOS>FF_PBC
FORCE_FIELD_SETUP_FEATURE Force Field Setup information
v1.0  0 0.000000 0.000000 0.000000 0.000000 0.000000 0.000000 NONE 0 0 0 0 0 0 0 0 0 0 0 0 0
