#	Name:			75
#	Creating user name:	jeff
#	Creation time:		Fri Dec 13 10:12:32 2002

#	Modifying user name:	jeff
#	Modification time:	Fri Dec 13 10:12:35 2002

@<TRIPOS>MOLECULE
75
   67    70     4     1     1
SMALL
USER_CHARGES


@<TRIPOS>ATOM
      1 C1          4.580660   -7.905312   13.832635 C.ar      1 TOS1       -0.273600 
      2 C2          6.081264   -5.837477   14.937290 C.ar      1 TOS1       -0.292600 
      3 ****        9.852523   -7.912937   13.383972 H         1 TOS1        0.189100 
      4 ****        8.553698   -9.811772   12.492623 H         1 TOS1        0.173500 
      5 ****        3.938676   -6.863205   14.504336 C.ar      1 TOS1       -0.050100 
      6 ****        4.690661   -5.827963   15.065643 C.ar      1 TOS1       -0.089800 
      7 ****        3.955360   -8.661656   13.380111 H         1 TOS1        0.180000 
      8 ****        6.810746   -9.224841   10.346829 H         2 APM2        0.089700 
      9 ****        5.291933  -10.410224    8.630324 H         2 APM2        0.175900 
     10 ****        6.144465   -8.995304    8.000332 H         2 APM2        0.118500 
     11 ****        2.821969  -10.364594    8.666677 H         2 APM2        0.219100 
     12 ****        5.004478   -6.770871    7.768242 H         2 APM2        0.176500 
     13 ****        2.896577   -5.632044    7.178154 H         2 APM2        0.206200 
     14 ****        0.747795   -6.848157    7.305351 H         2 APM2        0.163200 
     15 ****        3.995958   -9.798834   11.005007 H         2 APM2        0.416300 
     16 ****       -1.573329   -9.505860    7.234178 H         2 APM2        0.572000 
     17 ****       -0.560441   -8.163974    6.673742 H         2 APM2        0.560800 
     18 ****        1.008231  -10.892062    9.244683 H         2 APM2        0.557800 
     19 ****       -0.661806  -11.091229    8.684360 H         2 APM2        0.576700 
     20 ****        7.477485   -6.140686    8.342789 H         3 PIP3        0.131600 
     21 ****        7.828185   -7.719787    9.054777 H         3 PIP3        0.103900 
     22 ****        9.677121   -6.101439    9.462200 H         3 PIP3        0.183500 
     23 ****        8.944725   -6.655847   10.991823 H         3 PIP3        0.095600 
     24 ****       10.814060   -3.726183   11.158969 C.3       4 SULFONYL   -0.685500 
     25 S1          9.455135   -3.413889   10.019778 S.o2      4 SULFONYL    2.240400 
     26 ****        7.011674   -3.403537   11.406440 H         3 PIP3        0.123900 
     27 ****        7.284290   -4.980158   12.191061 H         3 PIP3        0.052200 
     28 ****        5.092100   -4.976798   11.051359 H         3 PIP3        0.119100 
     29 ****        5.842112   -4.507495    9.510868 H         3 PIP3        0.094200 
     30 S           5.772319  -10.464991   12.506248 S.o2      1 TOS1        2.311600 
     31 O1          6.729670  -11.436034   12.009417 O.2       1 TOS1       -0.934300 
     32 O2          4.775589  -10.900432   13.468232 O.2       1 TOS1       -0.940300 
     33 C1          6.642343   -9.034280   13.140725 C.ar      1 TOS1       -0.715300 
     34 C2          5.978368   -7.954537   13.746053 C.ar      1 TOS1        0.197900 
     35 C3          6.724837   -6.891024   14.276563 C.ar      1 TOS1        0.147200 
     36 C4          8.118672   -6.878512   14.144454 C.ar      1 TOS1       -0.103600 
     37 C5          8.772408   -7.928955   13.497783 C.ar      1 TOS1       -0.270300 
     38 C6          8.033239   -9.001943   12.996723 C.ar      1 TOS1        0.127100 
     39 ****        6.655079   -5.017649   15.356701 H         1 TOS1        0.192800 
     40 C           5.529708   -7.475144   10.461456 C.2       2 APM2        0.585300 
     41 CA          5.762697   -8.943255   10.169354 C.3       2 APM2        0.329900 
     42 CB          5.369478   -9.314774    8.712410 C.3       2 APM2       -0.438800 
     43 CG          4.053511   -8.639192    8.294235 C.ar      2 APM2        0.209800 
     44 CD1         2.837123   -9.330293    8.340345 C.ar      2 APM2       -0.170400 
     45 CD2         4.068476   -7.312799    7.848006 C.ar      2 APM2       -0.051600 
     46 CE1         1.644879   -8.704419    7.956561 C.ar      2 APM2       -0.368800 
     47 CE2         2.879362   -6.669753    7.498294 C.ar      2 APM2       -0.179900 
     48 CZ          1.668589   -7.362717    7.561196 C.ar      2 APM2       -0.056800 
     49 CF          0.332946   -9.465311    7.959969 C.cat     2 APM2        1.136000 
     50 O           4.502325   -7.248290   11.081504 O.2       2 APM2       -0.608600 
     51 N           4.987555   -9.727979   11.125246 N.am      2 APM2       -1.049000 
     52 NG1        -0.667490   -9.013809    7.246958 N.pl3     2 APM2       -1.055300 
     53 NG2         0.219736  -10.556966    8.672091 N.pl3     2 APM2       -1.030700 
     54 N1          6.355686   -6.457342   10.078503 N.am      3 PIP3       -0.485000 
     55 C2          7.577776   -6.680973    9.297380 C.3       3 PIP3        0.020500 
     56 C3          8.764154   -6.070724   10.077481 C.3       3 PIP3       -0.095000 
     57 N4          8.404323   -4.710540   10.451470 N.am      3 PIP3       -0.808900 
     58 C5          7.189779   -4.472851   11.219235 C.3       3 PIP3        0.109500 
     59 C6          6.001669   -5.080268   10.438169 C.3       3 PIP3        0.011700 
     60 O           8.848858   -2.144832   10.370868 O.2       4 SULFONYL   -0.903800 
     61 O           9.928607   -3.618428    8.664732 O.2       4 SULFONYL   -0.906100 
     62 ****       10.439341   -3.695182   12.192448 H         4 SULFONYL    0.173400 
     63 ****       11.584237   -2.952782   11.025895 H         4 SULFONYL    0.235300 
     64 ****       11.255508   -4.713745   10.962187 H         4 SULFONYL    0.176000 
     65 ****        2.857009   -6.854728   14.589831 H         1 TOS1        0.158200 
     66 ****        4.196741   -5.020256   15.596706 H         1 TOS1        0.160200 
     67 ****        8.706544   -6.054623   14.537884 H         1 TOS1        0.184000 
@<TRIPOS>BOND
     1   34    1 ar   
     2   35    2 ar   
     3   37    3 1    
     4   38    4 1    
     5    1    5 ar   
     6    2    6 ar   
     7    6    5 ar   
     8   41    8 1    
     9   42    9 1    
    10   42   10 1    
    11   44   11 1    
    12   45   12 1    
    13   47   13 1    
    14   48   14 1    
    15   51   15 1    
    16   52   16 1    
    17   52   17 1    
    18   53   18 1    
    19   53   19 1    
    20   55   20 1    
    21   55   21 1    
    22   56   22 1    
    23   56   23 1    
    24   57   25 1    
    25   25   60 2    
    26   58   26 1    
    27   58   27 1    
    28   59   28 1    
    29   59   29 1    
    30   33   30 1    
    31   30   32 2    
    32   30   31 2    
    33   33   38 ar   
    34   34   33 ar   
    35   35   34 ar   
    36   36   35 ar   
    37    1    7 1    
    38   36   37 ar   
    39   37   38 ar   
    40   40   50 2    
    41   41   40 1    
    42   41   51 1    
    43   42   41 1    
    44   43   42 1    
    45   43   45 ar   
    46   44   43 ar   
    47   46   44 ar   
    48   49   46 1    
    49   46   48 ar   
    50   48   47 ar   
    51   47   45 ar   
    52   49   53 ar   
    53   49   52 ar   
    54   54   59 1    
    55   55   54 1    
    56   56   55 1    
    57   57   56 1    
    58   57   58 1    
    59   58   59 1    
    60   40   54 am   
    61   51   30 1    
    62   25   61 2    
    63   25   24 1    
    64   24   62 1    
    65   24   63 1    
    66   24   64 1    
    67    2   39 1    
    68    5   65 1    
    69    6   66 1    
    70   36   67 1    
@<TRIPOS>SUBSTRUCTURE
     1 TOS1       30 GROUP             0 I     ****    1  
     2 APM2       40 GROUP             0 I     ****    2 ROOT 
     3 PIP3       54 GROUP             0 I     ****    2  
     4 SULFONYL    25 PERM              0 ****  ****    1  
@<TRIPOS>SET
UNK_ATOMS       STATIC     ATOMS    AMSOM    **** 
30 30 31 32 33 34 35 36 37 38 0 40 41 42 43 44 45 46 47 48 \
 49 50 51 52 53 54 55 56 57 58 59
@<TRIPOS>NORMAL
@<TRIPOS>FF_PBC
FORCE_FIELD_SETUP_FEATURE Force Field Setup information
v1.0  0 0.000000 0.000000 0.000000 0.000000 0.000000 0.000000 NONE 0 0 0 0 0 0 0 0 0 0 0 0 0
