#	Name:			76
#	Creating user name:	jeff
#	Creation time:		Fri Dec 13 10:12:35 2002

#	Modifying user name:	jeff
#	Modification time:	Fri Dec 13 10:12:37 2002

@<TRIPOS>MOLECULE
76
   68    71     4     1     2
SMALL
USER_CHARGES


@<TRIPOS>ATOM
      1 C1          3.891004   -6.357607   15.295016 C.ar      3 NAPHTHALENE   -0.230000 
      2 C2          4.074494   -5.141874   15.957067 C.ar      3 NAPHTHALENE   -0.133400 
      3 C3          5.348471   -4.575757   16.034170 C.ar      3 NAPHTHALENE   -0.039000 
      4 C4          6.441830   -5.239998   15.466348 C.ar      3 NAPHTHALENE   -0.349000 
      5 ****        6.736409   -9.438911   10.351688 H         2 APM2        0.083000 
      6 ****        5.110157  -10.605401    8.690496 H         2 APM2        0.174200 
      7 ****        6.068195   -9.317164    7.996666 H         2 APM2        0.134000 
      8 ****        2.718478  -10.428576    8.500443 H         2 APM2        0.200300 
      9 ****        5.106501   -6.936711    7.780001 H         2 APM2        0.171400 
     10 ****        3.083384   -5.680363    7.126159 H         2 APM2        0.203000 
     11 ****        0.861430   -6.751706    7.243778 H         2 APM2        0.163300 
     12 ****        3.921389   -9.963793   11.004712 H         2 APM2        0.380100 
     13 ****       -1.604907   -9.355793    7.065886 H         2 APM2        0.573800 
     14 ****       -0.543567   -8.038405    6.542101 H         2 APM2        0.555900 
     15 ****        0.881926  -10.874929    9.084626 H         2 APM2        0.550400 
     16 ****       -0.775075  -11.000183    8.476686 H         2 APM2        0.574700 
     17 C1          9.110094   -4.528441   10.495257 C.3       4 CYCLOOCTANE    0.067100 
     18 C2          9.727824   -5.951890   10.596954 C.3       4 CYCLOOCTANE   -0.079200 
     19 C3          8.755055   -7.166384   10.499354 C.3       4 CYCLOOCTANE   -0.046800 
     20 C4          7.650581   -7.019371    9.406940 C.3       4 CYCLOOCTANE    0.078400 
     21 N5          6.380699   -6.671530   10.047407 N.am      4 CYCLOOCTANE   -0.732500 
     22 C6          6.061670   -5.278470   10.378297 C.3       4 CYCLOOCTANE    0.072400 
     23 C7          6.746057   -4.889046   11.720389 C.3       4 CYCLOOCTANE   -0.028400 
     24 S           5.620331  -10.466038   12.670002 S.o2      1 TOS1        2.258200 
     25 O1          6.896873  -11.080972   12.357953 O.2       1 TOS1       -0.916000 
     26 O2          4.620626  -11.232042   13.390455 O.2       1 TOS1       -0.942400 
     27 C5          7.359934   -7.184472   14.325000 C.ar      3 NAPHTHALENE   -0.281500 
     28 C6          7.176288   -8.412677   13.686113 C.ar      3 NAPHTHALENE   -0.069700 
     29 C7          5.891824   -8.938030   13.532207 C.ar      3 NAPHTHALENE   -0.471100 
     30 C8          4.796100   -8.240057   14.052601 C.ar      3 NAPHTHALENE   -0.172800 
     31 C9          4.977739   -7.025968   14.728464 C.ar      3 NAPHTHALENE    0.125200 
     32 C10         6.268357   -6.484394   14.843140 C.ar      3 NAPHTHALENE    0.240200 
     33 H1          2.889198   -6.776937   15.228744 H         3 NAPHTHALENE    0.183800 
     34 C           5.522728   -7.643396   10.468280 C.2       2 APM2        0.750200 
     35 CA          5.698132   -9.125596   10.180939 C.3       2 APM2        0.404200 
     36 CB          5.278752   -9.518410    8.732038 C.3       2 APM2       -0.459200 
     37 CG          4.034009   -8.752813    8.254423 C.ar      2 APM2        0.166100 
     38 CD1         2.785167   -9.381649    8.231719 C.ar      2 APM2       -0.124600 
     39 CD2         4.140420   -7.426573    7.828488 C.ar      2 APM2       -0.035600 
     40 CE1         1.634772   -8.683510    7.846216 C.ar      2 APM2       -0.385600 
     41 CE2         2.997193   -6.714211    7.449299 C.ar      2 APM2       -0.184400 
     42 CZ          1.744340   -7.334897    7.489842 C.ar      2 APM2       -0.052300 
     43 CF          0.292036   -9.392361    7.815631 C.cat     2 APM2        1.125600 
     44 O           4.523176   -7.366925   11.111819 O.2       2 APM2       -0.658600 
     45 N           4.905780   -9.863762   11.162141 N.am      2 APM2       -1.026000 
     46 NG1        -0.683277   -8.894042    7.098776 N.pl3     2 APM2       -1.046800 
     47 NG2         0.123913  -10.495499    8.499183 N.pl3     2 APM2       -1.018900 
     48 C8          8.101193   -4.115623   11.607722 C.3       4 CYCLOOCTANE   -0.060900 
     49 H9          8.669143   -4.346445    9.508920 H         4 CYCLOOCTANE   -0.000600 
     50 H10         9.958852   -3.824821   10.566782 H         4 CYCLOOCTANE   -0.006100 
     51 H3         10.291317   -6.038264   11.540805 H         4 CYCLOOCTANE    0.048000 
     52 H4         10.458878   -6.037997    9.775530 H         4 CYCLOOCTANE    0.022500 
     53 H5          8.289364   -7.381032   11.474253 H         4 CYCLOOCTANE    0.028100 
     54 H6          9.372369   -8.054179   10.274763 H         4 CYCLOOCTANE    0.046700 
     55 H7          7.581597   -7.946076    8.826603 H         4 CYCLOOCTANE    0.043700 
     56 H8          7.909947   -6.281212    8.640873 H         4 CYCLOOCTANE    0.123900 
     57 H2          3.227045   -4.633719   16.410097 H         3 NAPHTHALENE    0.163400 
     58 H3          5.492363   -3.625294   16.537519 H         3 NAPHTHALENE    0.158400 
     59 H4          7.423685   -4.782018   15.516279 H         3 NAPHTHALENE    0.207900 
     60 H5          8.366330   -6.777592   14.408041 H         3 NAPHTHALENE    0.209700 
     61 H6          8.036806   -8.952020   13.302582 H         3 NAPHTHALENE    0.172300 
     62 H8          3.802023   -8.651148   13.926937 H         3 NAPHTHALENE    0.216800 
     63 H11         4.971407   -5.161637   10.479019 H         4 CYCLOOCTANE    0.072900 
     64 H12         6.338761   -4.592406    9.564749 H         4 CYCLOOCTANE    0.105700 
     65 H13         6.868537   -5.792725   12.323938 H         4 CYCLOOCTANE    0.032200 
     66 H14         6.066249   -4.245737   12.302442 H         4 CYCLOOCTANE    0.034300 
     67 H15         7.860555   -3.052201   11.419837 H         4 CYCLOOCTANE    0.015700 
     68 H16         8.608101   -4.166223   12.589107 H         4 CYCLOOCTANE    0.035700 
@<TRIPOS>BOND
     1   24   29 1    
     2   27   28 ar   
     3   27   32 ar   
     4   27   60 1    
     5   32    4 ar   
     6   32   31 ar   
     7   31    1 ar   
     8   35    5 1    
     9   36    6 1    
    10   36    7 1    
    11   38    8 1    
    12   39    9 1    
    13   41   10 1    
    14   42   11 1    
    15   45   12 1    
    16   46   13 1    
    17   46   14 1    
    18   47   15 1    
    19   47   16 1    
    20   34   21 am   
    21   17   50 1    
    22   17   49 1    
    23   17   18 1    
    24   17   48 1    
    25   48   23 1    
    26   48   67 1    
    27   48   68 1    
    28   23   22 1    
    29   23   65 1    
    30   31   30 ar   
    31   24   26 2    
    32   24   25 2    
    33   30   29 ar   
    34   30   62 1    
    35   29   28 ar   
    36   28   61 1    
    37    1    2 ar   
    38    1   33 1    
    39   34   44 2    
    40   35   34 1    
    41   35   45 1    
    42   36   35 1    
    43   37   36 1    
    44   37   39 ar   
    45   38   37 ar   
    46   40   38 ar   
    47   43   40 1    
    48   40   42 ar   
    49   42   41 ar   
    50   41   39 ar   
    51   43   47 ar   
    52   43   46 ar   
    53   23   66 1    
    54   22   21 1    
    55   22   63 1    
    56   22   64 1    
    57   21   20 1    
    58   45   24 1    
    59   20   19 1    
    60   20   55 1    
    61   20   56 1    
    62    2    3 ar   
    63    2   57 1    
    64    3    4 ar   
    65    3   58 1    
    66    4   59 1    
    67   19   18 1    
    68   19   53 1    
    69   19   54 1    
    70   18   51 1    
    71   18   52 1    
@<TRIPOS>SUBSTRUCTURE
     1 TOS1       24 GROUP             0 I     ****    2  
     2 APM2       34 GROUP             0 I     ****    2 ROOT 
     3 NAPHTHALENE    27 PERM              0 ****  ****    1  
     4 CYCLOOCTANE    17 PERM              0 ****  ****    1  
@<TRIPOS>SET
UNK_ATOMS       STATIC     ATOMS    AMSOM    **** 
30 24 25 26 0 0 0 0 0 0 0 34 35 36 37 38 39 40 41 42 \
 43 44 45 46 47 0 0 0 0 0 0
LAB$B_TYPE      STATIC     BONDS    LABELGROUP SYSTEM 
0
@<TRIPOS>NORMAL
@<TRIPOS>FF_PBC
FORCE_FIELD_SETUP_FEATURE Force Field Setup information
v1.0  0 0.000000 0.000000 0.000000 0.000000 0.000000 0.000000 NONE 0 0 0 0 0 0 0 0 0 0 0 0 0
