#	Name:			77
#	Creating user name:	jeff
#	Creation time:		Fri Dec 13 10:12:37 2002

#	Modifying user name:	jeff
#	Modification time:	Fri Dec 13 10:12:39 2002

@<TRIPOS>MOLECULE
77
   65    68     4     1     4
SMALL
USER_CHARGES


@<TRIPOS>ATOM
      1 C1          3.902094   -6.366318   15.298871 C.ar      4 NAPHTHALENE   -0.230500 
      2 C2          4.068714   -5.150863   15.967363 C.ar      4 NAPHTHALENE   -0.123000 
      3 C3          5.336235   -4.569889   16.050394 C.ar      4 NAPHTHALENE   -0.072800 
      4 C4          6.434979   -5.205046   15.464448 C.ar      4 NAPHTHALENE   -0.333300 
      5 ****        6.772801   -9.310778   10.396016 H         2 APM2        0.070000 
      6 ****        5.248068  -10.494204    8.656186 H         2 APM2        0.179600 
      7 ****        6.166742   -9.112505    8.047673 H         2 APM2        0.104500 
      8 ****        2.799667  -10.388186    8.511177 H         2 APM2        0.214200 
      9 ****        5.110876   -6.859348    7.742744 H         2 APM2        0.173100 
     10 ****        3.069751   -5.668107    7.038885 H         2 APM2        0.205300 
     11 ****        0.873519   -6.759781    7.205872 H         2 APM2        0.175100 
     12 ****        3.973151   -9.942065   10.994483 H         2 APM2        0.425000 
     13 ****       -1.577930   -9.366204    7.061730 H         2 APM2        0.580300 
     14 ****       -0.525768   -8.059404    6.505848 H         2 APM2        0.553900 
     15 ****        0.897454  -10.864370    9.086074 H         2 APM2        0.547500 
     16 ****       -0.756467  -10.982479    8.472802 H         2 APM2        0.581600 
     17 ****        7.551960   -6.215298    8.441240 H         3 PIP3        0.130500 
     18 ****        7.830910   -7.803025    9.155672 H         3 PIP3        0.207000 
     19 ****        9.641950   -6.274424    9.804968 H         3 PIP3        0.187800 
     20 ****        8.704629   -6.778921   11.239369 H         3 PIP3        0.169000 
     21 C23         9.479950   -4.175098   11.477894 C.3       3 PIP3       -0.406600 
     22 ****        6.864150   -3.519596   11.463010 H         3 PIP3        0.188700 
     23 ****        7.048264   -5.109425   12.250732 H         3 PIP3        0.174800 
     24 ****        4.973304   -5.046612   10.921668 H         3 PIP3        0.195400 
     25 ****        5.866690   -4.600653    9.455262 H         3 PIP3        0.098300 
     26 S           5.684841  -10.414951   12.622311 S.o2      1 TOS1        2.289800 
     27 O1          6.973726  -11.004361   12.311169 O.2       1 TOS1       -0.893800 
     28 O2          4.703407  -11.194056   13.352363 O.2       1 TOS1       -0.904000 
     29 C5          7.368639   -7.067361   14.206930 C.ar      4 NAPHTHALENE   -0.333200 
     30 C6          7.198472   -8.282386   13.538691 C.ar      4 NAPHTHALENE   -0.054500 
     31 C7          5.933652   -8.871817   13.467874 C.ar      4 NAPHTHALENE   -0.503000 
     32 C8          4.837162   -8.224661   14.043790 C.ar      4 NAPHTHALENE   -0.181600 
     33 C9          5.000699   -7.006350   14.711814 C.ar      4 NAPHTHALENE    0.141000 
     34 C10         6.272505   -6.423499   14.795343 C.ar      4 NAPHTHALENE    0.230700 
     35 H1          2.911448   -6.807396   15.241577 H         4 NAPHTHALENE    0.196300 
     36 C           5.486376   -7.564799   10.490961 C.2       2 APM2        0.482700 
     37 CA          5.728149   -9.031915   10.199746 C.3       2 APM2        0.414700 
     38 CB          5.355947   -9.400599    8.733662 C.3       2 APM2       -0.429000 
     39 CG          4.078589   -8.690884    8.244946 C.ar      2 APM2        0.182600 
     40 CD1         2.839922   -9.344182    8.224851 C.ar      2 APM2       -0.162000 
     41 CD2         4.155903   -7.369918    7.792112 C.ar      2 APM2       -0.077400 
     42 CE1         1.669867   -8.677512    7.828453 C.ar      2 APM2       -0.329900 
     43 CE2         3.001578   -6.692050    7.393239 C.ar      2 APM2       -0.168400 
     44 CZ          1.761811   -7.331735    7.452102 C.ar      2 APM2       -0.042800 
     45 CF          0.326721   -9.388233    7.799985 C.cat     2 APM2        1.093500 
     46 O           4.468870   -7.343966   11.127899 O.2       2 APM2       -0.548900 
     47 N           4.955341   -9.824299   11.149684 N.am      2 APM2       -1.082700 
     48 NG1        -0.656090   -8.904010    7.079798 N.pl3     2 APM2       -1.023800 
     49 NG2         0.146394  -10.484351    8.493979 N.pl3     2 APM2       -1.011300 
     50 N1          6.301474   -6.545509   10.088575 N.am      3 PIP3       -0.409200 
     51 C2          7.568224   -6.766718    9.392888 C.3       3 PIP3       -0.131800 
     52 C3          8.667457   -6.182455   10.312911 C.3       3 PIP3       -0.049700 
     53 N4          8.396344   -4.757585   10.641305 N.4       3 PIP3       -0.067100 
     54 C5          7.064949   -4.588016   11.281160 C.3       3 PIP3       -0.093300 
     55 C6          5.933746   -5.164793   10.397504 C.3       3 PIP3       -0.037900 
     56 ****       10.455215   -4.260948   10.972123 H         3 PIP3        0.229900 
     57 ****        9.546672   -4.690637   12.448532 H         3 PIP3        0.242800 
     58 ****        9.296287   -3.104957   11.665533 H         3 PIP3        0.233100 
     59 H2          3.214016   -4.658648   16.422194 H         4 NAPHTHALENE    0.181600 
     60 H3          5.466887   -3.625504   16.570391 H         4 NAPHTHALENE    0.184600 
     61 H4          7.414342   -4.741005   15.535738 H         4 NAPHTHALENE    0.195500 
     62 H5          8.359821   -6.628071   14.264122 H         4 NAPHTHALENE    0.210200 
     63 H6          8.052433   -8.766339   13.077217 H         4 NAPHTHALENE    0.196400 
     64 H8          3.856298   -8.681283   13.965272 H         4 NAPHTHALENE    0.230700 
     65 ****        8.390716   -4.198220    9.709347 H         3 PIP3        0.447400 
@<TRIPOS>BOND
     1   26   31 1    
     2   29   30 ar   
     3   29   34 ar   
     4   29   62 1    
     5   34    4 ar   
     6   34   33 ar   
     7   33    1 ar   
     8   37    5 1    
     9   38    6 1    
    10   38    7 1    
    11   40    8 1    
    12   41    9 1    
    13   43   10 1    
    14   44   11 1    
    15   47   12 1    
    16   48   13 1    
    17   48   14 1    
    18   49   15 1    
    19   49   16 1    
    20   51   17 1    
    21   51   18 1    
    22   52   19 1    
    23   52   20 1    
    24   53   21 1    
    25   54   22 1    
    26   54   23 1    
    27   55   24 1    
    28   55   25 1    
    29   33   32 ar   
    30   26   28 2    
    31   26   27 2    
    32   32   31 ar   
    33   32   64 1    
    34   31   30 ar   
    35   30   63 1    
    36    1    2 ar   
    37    1   35 1    
    38   36   46 2    
    39   37   36 1    
    40   37   47 1    
    41   38   37 1    
    42   39   38 1    
    43   39   41 ar   
    44   40   39 ar   
    45   42   40 ar   
    46   45   42 1    
    47   42   44 ar   
    48   44   43 ar   
    49   43   41 ar   
    50   45   49 ar   
    51   45   48 ar   
    52   50   55 1    
    53   51   50 1    
    54   52   51 1    
    55   53   52 1    
    56   53   54 1    
    57   54   55 1    
    58   36   50 am   
    59   47   26 1    
    60   21   56 1    
    61   21   57 1    
    62   21   58 1    
    63    2    3 ar   
    64    2   59 1    
    65    3    4 ar   
    66    3   60 1    
    67    4   61 1    
    68   53   65 1    
@<TRIPOS>SUBSTRUCTURE
     1 TOS1       26 GROUP             0 I     ****    2  
     2 APM2       36 GROUP             0 I     ****    2 ROOT 
     3 PIP3       50 GROUP             0 I     ****    1  
     4 NAPHTHALENE    29 PERM              0 ****  ****    1  
@<TRIPOS>SET
UNK_ATOMS       STATIC     ATOMS    AMSOM    **** 
30 26 27 28 0 0 0 0 0 0 0 36 37 38 39 40 41 42 43 44 \
 45 46 47 48 49 50 51 52 53 54 55
LAB$B_TYPE      STATIC     BONDS    LABELGROUP SYSTEM 
0
ATOM$WHITE      STATIC     ATOMS    COLORGROUP SYSTEM 
0
ATOM$BY_TYPE    STATIC     ATOMS    COLORGROUP SYSTEM 
65 1 2 3 4 5 6 7 8 9 10 11 12 13 14 15 16 17 18 19 \
 20 21 22 23 24 25 26 27 28 29 30 31 32 33 34 35 36 37 \
 38 39 40 41 42 43 44 45 46 47 48 49 50 51 52 53 54 55 \
 56 57 58 59 60 61 62 63 64 65
@<TRIPOS>NORMAL
@<TRIPOS>FF_PBC
FORCE_FIELD_SETUP_FEATURE Force Field Setup information
v1.0  0 0.000000 0.000000 0.000000 0.000000 0.000000 0.000000 NONE 0 0 0 0 0 0 0 0 0 0 0 0 0
