#	Name:			78
#	Creating user name:	jeff
#	Creation time:		Fri Dec 13 10:12:40 2002

#	Modifying user name:	jeff
#	Modification time:	Fri Dec 13 10:12:42 2002

@<TRIPOS>MOLECULE
78
   59    62     4     1     2
SMALL
USER_CHARGES


@<TRIPOS>ATOM
      1 C1          3.900913   -6.366860   15.301404 C.ar      4 NAPHTHALENE   -0.243200 
      2 C2          4.066224   -5.151453   15.969973 C.ar      4 NAPHTHALENE   -0.128400 
      3 C3          5.333173   -4.568976   16.054062 C.ar      4 NAPHTHALENE   -0.053700 
      4 C4          6.432683   -5.204139   15.469700 C.ar      4 NAPHTHALENE   -0.299900 
      5 ****        6.785686   -9.272448   10.330578 H         2 APM2        0.019800 
      6 ****        5.163191  -10.530982    8.716923 H         2 APM2        0.181100 
      7 ****        6.104216   -9.249313    7.997577 H         2 APM2        0.175500 
      8 ****        2.770086  -10.392923    8.503610 H         2 APM2        0.206200 
      9 ****        5.107650   -6.878495    7.746638 H         2 APM2        0.178400 
     10 ****        3.076019   -5.673123    7.032030 H         2 APM2        0.201600 
     11 ****        0.871339   -6.751944    7.195225 H         2 APM2        0.159700 
     12 ****        3.980562   -9.932105   11.001672 H         2 APM2        0.397700 
     13 ****       -1.591230   -9.366841    7.054973 H         2 APM2        0.570400 
     14 ****       -0.537776   -8.060965    6.498742 H         2 APM2        0.554200 
     15 ****        0.882944  -10.859524    9.088266 H         2 APM2        0.543800 
     16 ****       -0.768080  -10.983344    8.470540 H         2 APM2        0.571600 
     17 N1          6.356019   -6.591162   10.081808 N.am      3 PYRROLIDINE   -0.379400 
     18 C1          7.585221   -6.873940    9.349309 C.3       3 PYRROLIDINE    0.168200 
     19 C2          7.946957   -5.444552    8.880259 C.3       3 PYRROLIDINE   -0.227600 
     20 C3          7.444654   -4.564050   10.045927 C.3       3 PYRROLIDINE   -0.079000 
     21 C4          6.078001   -5.199161   10.395656 C.3       3 PYRROLIDINE    0.020100 
     22 H2          7.487792   -7.527130    8.472073 H         3 PYRROLIDINE    0.018200 
     23 H3          8.349657   -7.275303   10.034027 H         3 PYRROLIDINE    0.047400 
     24 S           5.701498  -10.409138   12.620025 S.o2      1 TOS1        2.264300 
     25 O1          6.992572  -10.989705   12.302946 O.2       1 TOS1       -0.923200 
     26 O2          4.723768  -11.196130   13.347256 O.2       1 TOS1       -0.953500 
     27 C5          7.367865   -7.060753   14.206454 C.ar      4 NAPHTHALENE   -0.266000 
     28 C6          7.201795   -8.277334   13.540455 C.ar      4 NAPHTHALENE   -0.120500 
     29 C7          5.938159   -8.868784   13.468722 C.ar      4 NAPHTHALENE   -0.441600 
     30 C8          4.839851   -8.226024   14.046045 C.ar      4 NAPHTHALENE   -0.216800 
     31 C9          5.000128   -7.006249   14.714090 C.ar      4 NAPHTHALENE    0.187200 
     32 C10         6.270595   -6.421567   14.797114 C.ar      4 NAPHTHALENE    0.187200 
     33 H1          2.910384   -6.808471   15.243581 H         4 NAPHTHALENE    0.187000 
     34 C           5.496531   -7.561666   10.482746 C.2       2 APM2        0.430700 
     35 CA          5.723249   -9.027929   10.179559 C.3       2 APM2        0.551000 
     36 CB          5.313071   -9.441935    8.733485 C.3       2 APM2       -0.566300 
     37 CG          4.057894   -8.703274    8.242844 C.ar      2 APM2        0.195900 
     38 CD1         2.816098   -9.347627    8.219761 C.ar      2 APM2       -0.131700 
     39 CD2         4.148449   -7.381629    7.792022 C.ar      2 APM2       -0.030000 
     40 CE1         1.653457   -8.673363    7.822157 C.ar      2 APM2       -0.377000 
     41 CE2         3.000449   -6.696933    7.388292 C.ar      2 APM2       -0.185100 
     42 CZ          1.755048   -7.328385    7.444308 C.ar      2 APM2       -0.046800 
     43 CF          0.311060   -9.386659    7.796530 C.cat     2 APM2        1.107800 
     44 O           4.489634   -7.283164   11.117838 O.2       2 APM2       -0.612700 
     45 N           4.963986   -9.811765   11.148733 N.am      2 APM2       -1.034600 
     46 NG1        -0.669588   -8.904571    7.073728 N.pl3     2 APM2       -1.045000 
     47 NG2         0.133059  -10.482197    8.492757 N.pl3     2 APM2       -1.004900 
     48 H4          7.370056   -5.193665    7.970005 H         3 PYRROLIDINE    0.104800 
     49 H5          9.022011   -5.325387    8.666104 H         3 PYRROLIDINE    0.106100 
     50 H6          7.369560   -3.498142    9.777234 H         3 PYRROLIDINE    0.081800 
     51 H7          8.136031   -4.674373   10.897737 H         3 PYRROLIDINE    0.063700 
     52 H8          5.810089   -5.033055   11.450985 H         3 PYRROLIDINE    0.075500 
     53 H9          5.278499   -4.823362    9.735535 H         3 PYRROLIDINE    0.078200 
     54 H2          3.211264   -4.658878   16.423656 H         4 NAPHTHALENE    0.165700 
     55 H3          5.463464   -3.625058   16.574423 H         4 NAPHTHALENE    0.161200 
     56 H4          7.411714   -4.740880   15.543382 H         4 NAPHTHALENE    0.192000 
     57 H5          8.358173   -6.618262   14.261714 H         4 NAPHTHALENE    0.210400 
     58 H6          8.056527   -8.760487   13.079250 H         4 NAPHTHALENE    0.195400 
     59 H8          3.860262   -8.685324   13.967288 H         4 NAPHTHALENE    0.228800 
@<TRIPOS>BOND
     1   24   29 1    
     2   27   28 ar   
     3   27   32 ar   
     4   27   57 1    
     5   32    4 ar   
     6   32   31 ar   
     7   31    1 ar   
     8   35    5 1    
     9   36    6 1    
    10   36    7 1    
    11   38    8 1    
    12   39    9 1    
    13   41   10 1    
    14   42   11 1    
    15   45   12 1    
    16   46   13 1    
    17   46   14 1    
    18   47   15 1    
    19   47   16 1    
    20   34   17 am   
    21   17   21 1    
    22   17   18 1    
    23   18   23 1    
    24   18   22 1    
    25   18   19 1    
    26   19   49 1    
    27   19   48 1    
    28   31   30 ar   
    29   24   26 2    
    30   24   25 2    
    31   30   29 ar   
    32   30   59 1    
    33   29   28 ar   
    34   28   58 1    
    35    1    2 ar   
    36    1   33 1    
    37   34   44 2    
    38   35   34 1    
    39   35   45 1    
    40   36   35 1    
    41   37   36 1    
    42   37   39 ar   
    43   38   37 ar   
    44   40   38 ar   
    45   43   40 1    
    46   40   42 ar   
    47   42   41 ar   
    48   41   39 ar   
    49   43   47 ar   
    50   43   46 ar   
    51   19   20 1    
    52   20   51 1    
    53   20   50 1    
    54   20   21 1    
    55   21   53 1    
    56   21   52 1    
    57   45   24 1    
    58    2    3 ar   
    59    2   54 1    
    60    3    4 ar   
    61    3   55 1    
    62    4   56 1    
@<TRIPOS>SUBSTRUCTURE
     1 TOS1       24 GROUP             0 I     ****    2  
     2 APM2       34 GROUP             0 I     ****    2 ROOT 
     3 PYRROLIDINE    17 PERM              0 ****  ****    1  
     4 NAPHTHALENE    27 PERM              0 ****  ****    1  
@<TRIPOS>SET
UNK_ATOMS       STATIC     ATOMS    AMSOM    **** 
30 24 25 26 0 0 0 0 0 0 0 34 35 36 37 38 39 40 41 42 \
 43 44 45 46 47 0 0 0 0 0 0
LAB$B_TYPE      STATIC     BONDS    LABELGROUP SYSTEM 
0
@<TRIPOS>NORMAL
@<TRIPOS>FF_PBC
FORCE_FIELD_SETUP_FEATURE Force Field Setup information
v1.0  0 0.000000 0.000000 0.000000 0.000000 0.000000 0.000000 NONE 0 0 0 0 0 0 0 0 0 0 0 0 0
