#	Name:			79
#	Creating user name:	jeff
#	Creation time:		Fri Dec 13 10:12:42 2002

#	Modifying user name:	jeff
#	Modification time:	Fri Dec 13 10:12:44 2002

@<TRIPOS>MOLECULE
79
   68    71     5     1     2
SMALL
USER_CHARGES


@<TRIPOS>ATOM
      1 C1          3.901330   -6.359769   15.286241 C.ar      4 NAPHTHALENE   -0.249400 
      2 C2          4.075252   -5.146572   15.956994 C.ar      4 NAPHTHALENE   -0.116700 
      3 C3          5.345720   -4.570993   16.036333 C.ar      4 NAPHTHALENE   -0.068600 
      4 C4          6.439618   -5.210223   15.446978 C.ar      4 NAPHTHALENE   -0.307100 
      5 ****        6.744189   -9.288399   10.386738 H         2 APM2        0.161700 
      6 ****        5.258317  -10.499267    8.642455 H         2 APM2        0.194100 
      7 ****        6.156181   -9.102897    8.027631 H         2 APM2        0.156200 
      8 ****        2.778518  -10.428445    8.527315 H         2 APM2        0.209400 
      9 ****        5.063325   -6.902978    7.686051 H         2 APM2        0.188400 
     10 ****        3.002691   -5.686811    7.091039 H         2 APM2        0.206600 
     11 ****        0.811172   -6.803730    7.280492 H         2 APM2        0.161300 
     12 ****        3.935187   -9.904606   10.958661 H         2 APM2        0.393500 
     13 ****       -1.602545   -9.392217    7.090908 H         2 APM2        0.570500 
     14 ****       -0.545445   -8.076067    6.560243 H         2 APM2        0.555400 
     15 ****        0.892830  -10.922356    9.083153 H         2 APM2        0.538800 
     16 ****       -0.770532  -11.036717    8.487595 H         2 APM2        0.571300 
     17 C           7.609341   -6.035255    8.040221 C.2       5 CO2         1.069500 
     18 ****        7.790604   -7.748089    9.207510 H         3 PIP3        0.119200 
     19 ****        9.661857   -6.223876    9.788908 H         3 PIP3        0.065200 
     20 ****        8.736779   -6.733612   11.225509 H         3 PIP3        0.078100 
     21 ****        8.392176   -4.041748    9.733207 H         3 PIP3        0.079400 
     22 ****        9.216957   -4.278968   11.297214 H         3 PIP3        0.073300 
     23 ****        6.855022   -3.476272   11.626213 H         3 PIP3        0.048700 
     24 ****        7.128409   -5.077620   12.355075 H         3 PIP3        0.017800 
     25 ****        4.991223   -5.093604   11.180790 H         3 PIP3        0.091300 
     26 ****        5.711040   -4.498451    9.692091 H         3 PIP3        0.088400 
     27 S           5.653364  -10.416099   12.608574 S.o2      1 TOS1        2.255000 
     28 O1          6.935623  -11.016777   12.294940 O.2       1 TOS1       -0.925000 
     29 O2          4.663370  -11.183782   13.338772 O.2       1 TOS1       -0.951500 
     30 C5          7.361457   -7.078866   14.187401 C.ar      4 NAPHTHALENE   -0.275500 
     31 C6          7.183072   -8.289824   13.512883 C.ar      4 NAPHTHALENE   -0.103300 
     32 C7          5.914758   -8.872937   13.447663 C.ar      4 NAPHTHALENE   -0.450300 
     33 C8          4.823456   -8.219579   14.023831 C.ar      4 NAPHTHALENE   -0.191400 
     34 C9          4.995508   -7.003345   14.695537 C.ar      4 NAPHTHALENE    0.176600 
     35 C10         6.270206   -6.429109   14.777374 C.ar      4 NAPHTHALENE    0.200000 
     36 H1          2.908749   -6.796077   15.230192 H         4 NAPHTHALENE    0.189500 
     37 C           5.456969   -7.538468   10.464583 C.2       2 APM2        0.450900 
     38 CA          5.703412   -9.007886   10.171499 C.3       2 APM2        0.257500 
     39 CB          5.346161   -9.403276    8.709906 C.3       2 APM2       -0.531500 
     40 CG          4.050714   -8.722782    8.234377 C.ar      2 APM2        0.214100 
     41 CD1         2.815983   -9.384631    8.237166 C.ar      2 APM2       -0.161100 
     42 CD2         4.109866   -7.404044    7.773917 C.ar      2 APM2       -0.026100 
     43 CE1         1.641972   -8.718492    7.857831 C.ar      2 APM2       -0.371100 
     44 CE2         2.946455   -6.719367    7.421832 C.ar      2 APM2       -0.185600 
     45 CZ          1.712000   -7.367515    7.498575 C.ar      2 APM2       -0.054000 
     46 CF          0.301395   -9.432282    7.826281 C.cat     2 APM2        1.114000 
     47 O           4.411243   -7.341150   11.064085 O.2       2 APM2       -0.581000 
     48 N           4.918464   -9.799074   11.113442 N.am      2 APM2       -0.950200 
     49 NG1        -0.679863   -8.932307    7.117206 N.pl3     2 APM2       -1.047300 
     50 NG2         0.131993  -10.537773    8.505737 N.pl3     2 APM2       -0.998700 
     51 N1          6.279123   -6.494808   10.125908 N.am      3 PIP3       -0.274300 
     52 C2          7.549144   -6.696842    9.402419 C.3       3 PIP3       -0.327200 
     53 C3          8.686595   -6.140127   10.296876 C.3       3 PIP3        0.011500 
     54 C4          8.408980   -4.656576   10.649084 C.3       3 PIP3       -0.190800 
     55 C5          7.058686   -4.535865   11.399324 C.3       3 PIP3        0.039700 
     56 C6          5.902789   -5.140026   10.562477 C.3       3 PIP3       -0.037900 
     57 H2          3.224460   -4.652210   16.415918 H         4 NAPHTHALENE    0.163500 
     58 H3          5.481410   -3.627417   16.556215 H         4 NAPHTHALENE    0.165600 
     59 H4          7.420559   -4.749986   15.514838 H         4 NAPHTHALENE    0.197000 
     60 H5          8.356142   -6.647295   14.246423 H         4 NAPHTHALENE    0.210000 
     61 H6          8.031561   -8.774697   13.042410 H         4 NAPHTHALENE    0.189600 
     62 H8          3.839459   -8.668830   13.943383 H         4 NAPHTHALENE    0.218700 
     63 O           6.835487   -5.150569    7.711895 O.2       5 CO2        -0.653300 
     64 O           8.579128   -6.508214    7.236871 O.3       5 CO2        -0.499000 
     65 ****        8.642976   -5.945401    5.906607 C.3       5 CO2        -0.008600 
     66 ****        9.618365   -5.450485    5.787858 H         5 CO2         0.083600 
     67 ****        7.857332   -5.231794    5.613592 H         5 CO2         0.050200 
     68 ****        8.599235   -6.793926    5.208271 H         5 CO2         0.133600 
@<TRIPOS>BOND
     1   27   32 1    
     2   30   31 ar   
     3   30   35 ar   
     4   30   60 1    
     5   35    4 ar   
     6   35   34 ar   
     7   34    1 ar   
     8   38    5 1    
     9   39    6 1    
    10   39    7 1    
    11   41    8 1    
    12   42    9 1    
    13   44   10 1    
    14   45   11 1    
    15   48   12 1    
    16   49   13 1    
    17   49   14 1    
    18   50   15 1    
    19   50   16 1    
    20   17   63 2    
    21   52   18 1    
    22   53   19 1    
    23   53   20 1    
    24   54   21 1    
    25   54   22 1    
    26   55   23 1    
    27   55   24 1    
    28   56   25 1    
    29   56   26 1    
    30   34   33 ar   
    31   27   29 2    
    32   27   28 2    
    33   33   32 ar   
    34   33   62 1    
    35   32   31 ar   
    36   31   61 1    
    37    1    2 ar   
    38    1   36 1    
    39   37   47 2    
    40   38   37 1    
    41   38   48 1    
    42   39   38 1    
    43   40   39 1    
    44   40   42 ar   
    45   41   40 ar   
    46   43   41 ar   
    47   46   43 1    
    48   43   45 ar   
    49   45   44 ar   
    50   44   42 ar   
    51   46   50 ar   
    52   46   49 ar   
    53   51   56 1    
    54   52   51 1    
    55   53   52 1    
    56   54   53 1    
    57   54   55 1    
    58   55   56 1    
    59   37   51 am   
    60   48   27 1    
    61    2    3 ar   
    62    2   57 1    
    63    3    4 ar   
    64    3   58 1    
    65    4   59 1    
    66   17   64 1    
    67   52   17 1    
    68   64   65 1    
    69   65   66 1    
    70   65   67 1    
    71   65   68 1    
@<TRIPOS>SUBSTRUCTURE
     1 TOS1       27 GROUP             0 I     ****    2  
     2 APM2       37 GROUP             0 I     ****    2 ROOT 
     3 PIP3       51 GROUP             0 I     ****    2  
     4 NAPHTHALENE    30 PERM              0 ****  ****    1  
     5 CO2        17 PERM              0 ****  ****    1  
@<TRIPOS>SET
UNK_ATOMS       STATIC     ATOMS    AMSOM    **** 
30 27 28 29 0 0 0 0 0 0 0 37 38 39 40 41 42 43 44 45 \
 46 47 48 49 50 51 52 53 54 55 56
LAB$B_TYPE      STATIC     BONDS    LABELGROUP SYSTEM 
0
@<TRIPOS>NORMAL
@<TRIPOS>FF_PBC
FORCE_FIELD_SETUP_FEATURE Force Field Setup information
v1.0  0 0.000000 0.000000 0.000000 0.000000 0.000000 0.000000 NONE 0 0 0 0 0 0 0 0 0 0 0 0 0
