#	Name:			80
#	Creating user name:	jeff
#	Creation time:		Fri Dec 13 10:12:44 2002

#	Modifying user name:	jeff
#	Modification time:	Fri Dec 13 10:12:46 2002

@<TRIPOS>MOLECULE
80
   57    59     3     1     1
SMALL
USER_CHARGES


@<TRIPOS>ATOM
      1 ****        3.847983   -8.677559   14.050407 H         1 TOS1        0.186100 
      2 ****        4.059128   -6.522266   15.231996 H         1 TOS1        0.195200 
      3 ****        8.273470   -6.475396   14.384467 H         1 TOS1        0.211700 
      4 ****        8.055586   -8.629386   13.192184 H         1 TOS1        0.181400 
      5 ****        6.322818   -4.962468   15.537515 C.3       1 TOS1       -0.354000 
      6 ****        5.362091   -4.590135   15.925874 H         1 TOS1        0.112900 
      7 ****        6.708225   -4.233707   14.805878 H         1 TOS1        0.108200 
      8 ****        6.771437   -9.294004   10.406120 H         2 APM2        0.158900 
      9 ****        5.236728  -10.470929    8.669524 H         2 APM2        0.180500 
     10 ****        6.147214   -9.075825    8.084935 H         2 APM2        0.126000 
     11 ****        2.794641  -10.353981    8.540458 H         2 APM2        0.202100 
     12 ****        5.102716   -6.843090    7.742284 H         2 APM2        0.172800 
     13 ****        3.080484   -5.689702    6.927732 H         2 APM2        0.202800 
     14 ****        0.890973   -6.753862    7.097170 H         2 APM2        0.164400 
     15 ****        4.011722   -9.990639   11.062416 H         2 APM2        0.377300 
     16 ****       -1.595627   -9.395556    7.022643 H         2 APM2        0.573000 
     17 ****       -0.556166   -8.103994    6.423433 H         2 APM2        0.556600 
     18 ****        0.843569  -10.815867    9.122553 H         2 APM2        0.543400 
     19 ****       -0.791016  -10.951977    8.476057 H         2 APM2        0.573800 
     20 ****        7.572890   -6.239763    8.447133 H         3 PIP3        0.116400 
     21 ****        7.851911   -7.824187    9.181994 H         3 PIP3        0.065500 
     22 ****        9.664299   -6.237123    9.820851 H         3 PIP3        0.127800 
     23 ****        8.730281   -6.752676   11.255943 H         3 PIP3        0.046200 
     24 ****        6.908749   -3.517273   11.467563 H         3 PIP3        0.082000 
     25 ****        7.075255   -5.116758   12.236802 H         3 PIP3        0.011100 
     26 ****        4.969270   -5.028946   10.889398 H         3 PIP3        0.078300 
     27 ****        5.895554   -4.601060    9.437851 H         3 PIP3        0.072100 
     28 S           5.742599  -10.342442   12.681004 S.o2      1 TOS1        2.227200 
     29 O1          7.052213  -10.880849   12.370738 O.2       1 TOS1       -0.915300 
     30 O2          4.803478  -11.169669   13.412376 O.2       1 TOS1       -0.938200 
     31 C1          5.935356   -8.798918   13.538977 C.ar      1 TOS1       -0.486300 
     32 C2          4.814158   -8.194840   14.117116 C.ar      1 TOS1       -0.049800 
     33 C3          4.935686   -6.971391   14.780022 C.ar      1 TOS1       -0.231100 
     34 C4          6.178873   -6.331269   14.858344 C.ar      1 TOS1        0.275800 
     35 C5          7.300760   -6.950148   14.300781 C.ar      1 TOS1       -0.262000 
     36 C6          7.177636   -8.171763   13.634266 C.ar      1 TOS1       -0.063800 
     37 ****        7.033233   -5.039757   16.373714 H         1 TOS1        0.118800 
     38 C           5.487495   -7.558799   10.512631 C.2       2 APM2        0.592900 
     39 CA          5.723997   -9.023303   10.235700 C.3       2 APM2        0.198600 
     40 CB          5.334577   -9.376398    8.764662 C.3       2 APM2       -0.431300 
     41 CG          4.065507   -8.667816    8.251313 C.ar      2 APM2        0.179700 
     42 CD1         2.819216   -9.319590    8.228531 C.ar      2 APM2       -0.141500 
     43 CD2         4.147753   -7.357550    7.774011 C.ar      2 APM2       -0.046400 
     44 CE1         1.653828   -8.667281    7.796328 C.ar      2 APM2       -0.365600 
     45 CE2         3.007318   -6.696184    7.322048 C.ar      2 APM2       -0.171300 
     46 CZ          1.759107   -7.333899    7.379845 C.ar      2 APM2       -0.061500 
     47 CF          0.305705   -9.377869    7.774015 C.cat     2 APM2        1.122700 
     48 O           4.467180   -7.319069   11.146663 O.2       2 APM2       -0.612100 
     49 N           4.991162   -9.821183   11.214589 N.am      2 APM2       -0.928500 
     50 NG1        -0.675061   -8.927442    7.029438 N.pl3     2 APM2       -1.048500 
     51 NG2         0.110869  -10.450491    8.500090 N.pl3     2 APM2       -1.006800 
     52 N1          6.312824   -6.544016   10.097206 N.am      3 PIP3       -0.506200 
     53 C2          7.586352   -6.783678    9.402641 C.3       3 PIP3        0.025400 
     54 C3          8.676177   -6.162402   10.317557 C.3       3 PIP3        0.089800 
     55 O4          8.368899   -4.765140   10.601481 O.3       3 PIP3       -0.493900 
     56 C5          7.083036   -4.590128   11.263304 C.3       3 PIP3        0.234300 
     57 C6          5.940473   -5.158529   10.383033 C.3       3 PIP3        0.043800 
@<TRIPOS>BOND
     1   32    1 1    
     2   33    2 1    
     3   35    3 1    
     4   36    4 1    
     5   34    5 1    
     6    5    6 1    
     7    5    7 1    
     8   39    8 1    
     9   40    9 1    
    10   40   10 1    
    11   42   11 1    
    12   43   12 1    
    13   45   13 1    
    14   46   14 1    
    15   49   15 1    
    16   50   16 1    
    17   50   17 1    
    18   51   18 1    
    19   51   19 1    
    20   53   20 1    
    21   53   21 1    
    22   54   22 1    
    23   54   23 1    
    24   56   24 1    
    25   56   25 1    
    26   57   26 1    
    27   57   27 1    
    28   31   28 1    
    29   28   30 2    
    30   28   29 2    
    31   31   36 ar   
    32   32   31 ar   
    33   33   32 ar   
    34   34   33 ar   
    35    5   37 1    
    36   34   35 ar   
    37   35   36 ar   
    38   38   48 2    
    39   39   38 1    
    40   39   49 1    
    41   40   39 1    
    42   41   40 1    
    43   41   43 ar   
    44   42   41 ar   
    45   44   42 ar   
    46   47   44 1    
    47   44   46 ar   
    48   46   45 ar   
    49   45   43 ar   
    50   47   51 ar   
    51   47   50 ar   
    52   52   57 1    
    53   53   52 1    
    54   54   53 1    
    55   55   54 1    
    56   55   56 1    
    57   56   57 1    
    58   38   52 am   
    59   49   28 1    
@<TRIPOS>SUBSTRUCTURE
     1 TOS1       28 GROUP             0 I     ****    1  
     2 APM2       38 GROUP             0 I     ****    2 ROOT 
     3 PIP3       52 GROUP             0 I     ****    1  
@<TRIPOS>SET
UNK_ATOMS       STATIC     ATOMS    AMSOM    **** 
30 28 29 30 31 32 33 34 35 36 0 38 39 40 41 42 43 44 45 46 \
 47 48 49 50 51 52 53 54 55 56 57
@<TRIPOS>NORMAL
@<TRIPOS>FF_PBC
FORCE_FIELD_SETUP_FEATURE Force Field Setup information
v1.0  0 0.000000 0.000000 0.000000 0.000000 0.000000 0.000000 NONE 0 0 0 0 0 0 0 0 0 0 0 0 0
