#	Name:			81
#	Creating user name:	jeff
#	Creation time:		Fri Dec 13 10:12:46 2002

#	Modifying user name:	jeff
#	Modification time:	Fri Dec 13 10:12:48 2002

@<TRIPOS>MOLECULE
81
   69    72     5     1     2
SMALL
USER_CHARGES


@<TRIPOS>ATOM
      1 C1          3.800065   -6.594990   15.465627 C.ar      4 NAPHTHALENE   -0.232500 
      2 C2          3.924770   -5.406715   16.191086 C.ar      4 NAPHTHALENE   -0.127100 
      3 C3          5.175504   -4.798208   16.320349 C.ar      4 NAPHTHALENE   -0.059800 
      4 C4          6.298243   -5.378117   15.724473 C.ar      4 NAPHTHALENE   -0.310300 
      5 ****        6.811361   -9.231092   10.480211 H         2 APM2        0.069600 
      6 ****        5.341226  -10.376072    8.667896 H         2 APM2        0.133100 
      7 ****        6.231109   -8.949193    8.130909 H         2 APM2        0.103200 
      8 ****        2.895289  -10.324171    8.486388 H         2 APM2        0.218400 
      9 ****        5.125406   -6.708389    7.912805 H         2 APM2        0.193000 
     10 ****        3.067730   -5.541650    7.217939 H         2 APM2        0.199100 
     11 ****        0.897778   -6.691356    7.304404 H         2 APM2        0.155600 
     12 ****        4.024866   -9.968996   11.006225 H         2 APM2        0.425500 
     13 ****       -1.487197   -9.353819    7.012042 H         2 APM2        0.569100 
     14 ****       -0.462502   -7.998934    6.526257 H         2 APM2        0.552300 
     15 ****        0.992151  -10.872823    9.011944 H         2 APM2        0.561600 
     16 ****       -0.646984  -11.005113    8.364677 H         2 APM2        0.577800 
     17 ****        7.524165   -6.034737    8.670654 H         3 PIP3        0.118400 
     18 ****        7.815467   -7.652470    9.303146 H         3 PIP3        0.055700 
     19 ****        9.094716   -4.246776   11.625321 H         3 PIP3        0.035900 
     20 ****        8.591446   -6.693012   11.478624 H         3 PIP3        0.056500 
     21 ****        8.341482   -3.981946   10.028334 H         3 PIP3        0.094400 
     22 C22        11.877348   -7.586340    9.195126 C.3       5 CO2        -0.012400 
     23 ****        6.694926   -3.461065   11.827198 H         3 PIP3        0.051900 
     24 ****        6.928702   -5.080868   12.541017 H         3 PIP3        0.032000 
     25 ****        4.865776   -5.047213   11.153780 H         3 PIP3        0.103500 
     26 ****        5.788930   -4.505295    9.739783 H         3 PIP3        0.094500 
     27 S           5.733022  -10.472142   12.639540 S.o2      1 TOS1        2.303700 
     28 O1          7.042723  -11.006979   12.318260 O.2       1 TOS1       -0.936000 
     29 O2          4.765722  -11.312284   13.317787 O.2       1 TOS1       -0.977600 
     30 C5          7.298291   -7.156083   14.398231 C.ar      4 NAPHTHALENE   -0.234700 
     31 C6          7.171575   -8.344489   13.673178 C.ar      4 NAPHTHALENE   -0.132700 
     32 C7          5.923718   -8.962445   13.556667 C.ar      4 NAPHTHALENE   -0.458300 
     33 C8          4.802376   -8.371211   14.142559 C.ar      4 NAPHTHALENE   -0.194900 
     34 C9          4.922721   -7.179430   14.868289 C.ar      4 NAPHTHALENE    0.167500 
     35 C10         6.177683   -6.569594   14.997300 C.ar      4 NAPHTHALENE    0.194200 
     36 H1          2.821991   -7.057358   15.373088 H         4 NAPHTHALENE    0.186400 
     37 C           5.471931   -7.528727   10.639522 C.2       2 APM2        0.551000 
     38 CA          5.761315   -8.972439   10.280550 C.3       2 APM2        0.412700 
     39 CB          5.419515   -9.284780    8.793366 C.3       2 APM2       -0.333000 
     40 CG          4.132769   -8.586118    8.315710 C.ar      2 APM2        0.139200 
     41 CD1         2.911470   -9.267970    8.246215 C.ar      2 APM2       -0.136300 
     42 CD2         4.183454   -7.244613    7.921737 C.ar      2 APM2       -0.054000 
     43 CE1         1.731002   -8.615297    7.859054 C.ar      2 APM2       -0.378100 
     44 CE2         3.019621   -6.580738    7.529906 C.ar      2 APM2       -0.180500 
     45 CZ          1.795375   -7.252336    7.540971 C.ar      2 APM2       -0.034700 
     46 CF          0.406473   -9.357252    7.778672 C.cat     2 APM2        1.106800 
     47 O           4.443713   -7.365108   11.277813 O.2       2 APM2       -0.609700 
     48 N           5.000381   -9.830560   11.180428 N.am      2 APM2       -1.106900 
     49 NG1        -0.578142   -8.869292    7.063476 N.pl3     2 APM2       -1.042200 
     50 NG2         0.242368  -10.486166    8.422959 N.pl3     2 APM2       -1.013100 
     51 N1          6.260517   -6.469191   10.291451 N.am      3 PIP3       -0.448600 
     52 C2          7.537914   -6.634215    9.594715 C.3       3 PIP3        0.007100 
     53 C3          8.622833   -6.089935   10.554882 C.3       3 PIP3       -0.106200 
     54 C4          8.319905   -4.614830   10.931300 C.3       3 PIP3       -0.116900 
     55 C5          6.924785   -4.514568   11.596589 C.3       3 PIP3        0.007700 
     56 C6          5.846930   -5.111457   10.657994 C.3       3 PIP3       -0.040900 
     57 ****       12.615616   -7.924878    9.937977 H         5 CO2         0.083500 
     58 ****       12.256889   -6.665027    8.727014 H         5 CO2         0.075100 
     59 ****       11.791230   -8.356153    8.412870 H         5 CO2         0.107500 
     60 H2          3.051356   -4.957371   16.653603 H         4 NAPHTHALENE    0.170200 
     61 H3          5.273735   -3.875211   16.883991 H         4 NAPHTHALENE    0.165200 
     62 H4          7.263946   -4.893900   15.832479 H         4 NAPHTHALENE    0.195700 
     63 H5          8.276746   -6.694044   14.489736 H         4 NAPHTHALENE    0.197100 
     64 H6          8.044541   -8.784600   13.203749 H         4 NAPHTHALENE    0.198400 
     65 H8          3.835352   -8.849080   14.027246 H         4 NAPHTHALENE    0.230200 
     66 C           9.972366   -6.201748    9.884553 C.2       5 CO2         0.750300 
     67 O          10.456587   -5.191981    9.397990 O.2       5 CO2        -0.605500 
     68 N          10.581136   -7.412338    9.846313 N.am      5 CO2        -0.796100 
     69 ****       10.165514   -8.224527   10.263734 H         5 CO2         0.450600 
@<TRIPOS>BOND
     1   27   32 1    
     2   30   31 ar   
     3   30   35 ar   
     4   30   63 1    
     5   35    4 ar   
     6   35   34 ar   
     7   34    1 ar   
     8   38    5 1    
     9   39    6 1    
    10   39    7 1    
    11   41    8 1    
    12   42    9 1    
    13   44   10 1    
    14   45   11 1    
    15   48   12 1    
    16   49   13 1    
    17   49   14 1    
    18   50   15 1    
    19   50   16 1    
    20   52   17 1    
    21   52   18 1    
    22   53   66 1    
    23   53   20 1    
    24   54   21 1    
    25   54   19 1    
    26   55   23 1    
    27   55   24 1    
    28   56   25 1    
    29   56   26 1    
    30   34   33 ar   
    31   27   29 2    
    32   27   28 2    
    33   33   32 ar   
    34   33   65 1    
    35   32   31 ar   
    36   31   64 1    
    37    1    2 ar   
    38    1   36 1    
    39   37   47 2    
    40   38   37 1    
    41   38   48 1    
    42   39   38 1    
    43   40   39 1    
    44   40   42 ar   
    45   41   40 ar   
    46   43   41 ar   
    47   46   43 1    
    48   43   45 ar   
    49   45   44 ar   
    50   44   42 ar   
    51   46   50 ar   
    52   46   49 ar   
    53   51   56 1    
    54   52   51 1    
    55   53   52 1    
    56   54   53 1    
    57   54   55 1    
    58   55   56 1    
    59   37   51 am   
    60   48   27 1    
    61   68   22 1    
    62   22   57 1    
    63   22   58 1    
    64    2    3 ar   
    65    2   60 1    
    66    3    4 ar   
    67    3   61 1    
    68    4   62 1    
    69   22   59 1    
    70   66   67 2    
    71   66   68 am   
    72   68   69 1    
@<TRIPOS>SUBSTRUCTURE
     1 TOS1       27 GROUP             0 I     ****    2  
     2 APM2       37 GROUP             0 I     ****    2 ROOT 
     3 PIP3       51 GROUP             0 I     ****    2  
     4 NAPHTHALENE    30 PERM              0 ****  ****    1  
     5 CO2        66 PERM              0 ****  ****    1  
@<TRIPOS>SET
UNK_ATOMS       STATIC     ATOMS    AMSOM    **** 
30 27 28 29 0 0 0 0 0 0 0 37 38 39 40 41 42 43 44 45 \
 46 47 48 49 50 51 52 53 54 55 56
LAB$B_TYPE      STATIC     BONDS    LABELGROUP SYSTEM 
0
@<TRIPOS>NORMAL
@<TRIPOS>FF_PBC
FORCE_FIELD_SETUP_FEATURE Force Field Setup information
v1.0  0 0.000000 0.000000 0.000000 0.000000 0.000000 0.000000 NONE 0 0 0 0 0 0 0 0 0 0 0 0 0
