#	Name:			82
#	Creating user name:	jeff
#	Creation time:		Fri Dec 13 10:12:48 2002

#	Modifying user name:	jeff
#	Modification time:	Fri Dec 13 10:12:52 2002

@<TRIPOS>MOLECULE
82
   88    90     4     1     1
SMALL
USER_CHARGES


@<TRIPOS>ATOM
      1 C1          3.882097   -7.958520   13.733988 C.3       1 TOS1        0.374400 
      2 ****        5.217816   -5.781628   14.529758 H         1 TOS1        0.220600 
      3 C3          7.756869   -4.946434   14.998077 C.3       1 TOS1        0.123200 
      4 C4          8.873950   -9.574613   13.378864 C.3       1 TOS1        0.314100 
      5 ****        9.216337   -6.999898   13.865778 H         1 TOS1        0.230500 
      6 ****        3.583549   -8.815291   13.124977 H         1 TOS1       -0.035800 
      7 C7          8.706257   -4.078282   14.138598 C.3       1 TOS1       -0.186300 
      8 ****        6.815519   -9.300462   10.193642 H         2 APM2        0.149400 
      9 ****        5.262176  -10.582517    8.536116 H         2 APM2        0.199300 
     10 ****        6.190122   -9.233089    7.837116 H         2 APM2        0.152400 
     11 ****        2.798719  -10.452522    8.414968 H         2 APM2        0.212700 
     12 ****        5.141146   -6.994672    7.431389 H         2 APM2        0.187300 
     13 ****        3.077640   -5.718299    6.972527 H         2 APM2        0.201700 
     14 ****        0.870856   -6.779462    7.256343 H         2 APM2        0.164400 
     15 ****        3.975056   -9.744261   10.863601 H         2 APM2        0.373400 
     16 ****       -1.601617   -9.331468    7.112292 H         2 APM2        0.572100 
     17 ****       -0.538805   -8.030221    6.558566 H         2 APM2        0.553800 
     18 ****        0.921388  -10.916583    9.023277 H         2 APM2        0.547900 
     19 ****       -0.758478  -10.998727    8.473135 H         2 APM2        0.573700 
     20 ****        7.769052   -6.251409    8.275434 H         3 PIP3        0.150100 
     21 ****        7.997859   -7.817147    9.037903 H         3 PIP3        0.071800 
     22 ****        9.772346   -6.177706    9.630664 H         3 PIP3        0.075100 
     23 ****        8.880611   -6.690733   11.090224 H         3 PIP3        0.060400 
     24 ****       10.903905   -3.697714   10.865927 C.3       4 SULFONYL   -0.814300 
     25 S1          9.348720   -3.463093    9.982325 S.o2      4 SULFONYL    2.285000 
     26 ****        6.794519   -3.495554   11.206084 H         3 PIP3        0.096200 
     27 ****        6.958025   -5.102522   11.969606 H         3 PIP3        0.029600 
     28 ****        5.002503   -5.057452   10.564222 H         3 PIP3        0.124900 
     29 ****        5.954684   -4.608429    9.134158 H         3 PIP3        0.124600 
     30 S           5.734182  -10.266244   12.491059 S.o2      1 TOS1        2.410800 
     31 O1          6.778073  -11.133077   11.993147 O.2       1 TOS1       -0.975300 
     32 O2          4.727255  -10.869171   13.349890 O.2       1 TOS1       -0.976400 
     33 C1          6.358483   -8.746330   13.280743 C.ar      1 TOS1       -0.892100 
     34 C2          5.432826   -7.763401   13.707915 C.ar      1 TOS1        0.375200 
     35 C3          5.916873   -6.549015   14.208050 C.ar      1 TOS1       -0.552900 
     36 C4          7.270758   -6.268721   14.334390 C.ar      1 TOS1        0.396100 
     37 C5          8.161931   -7.246116   13.890786 C.ar      1 TOS1       -0.404000 
     38 C6          7.732475   -8.516887   13.497144 C.ar      1 TOS1        0.174200 
     39 C39         8.467238   -5.296113   16.326265 C.3       1 TOS1       -0.348300 
     40 C           5.537840   -7.539142   10.094387 C.2       2 APM2        0.688200 
     41 CA          5.781257   -9.027023    9.973966 C.3       2 APM2        0.273400 
     42 CB          5.383304   -9.484681    8.548478 C.3       2 APM2       -0.526200 
     43 CG          4.094951   -8.776303    8.068001 C.ar      2 APM2        0.241800 
     44 CD1         2.845700   -9.410054    8.116868 C.ar      2 APM2       -0.171500 
     45 CD2         4.172918   -7.468398    7.580896 C.ar      2 APM2       -0.074600 
     46 CE1         1.676407   -8.721388    7.782126 C.ar      2 APM2       -0.334300 
     47 CE2         3.012522   -6.753487    7.294735 C.ar      2 APM2       -0.166100 
     48 CZ          1.766237   -7.364128    7.427979 C.ar      2 APM2       -0.079500 
     49 CF          0.322335   -9.408919    7.791469 C.cat     2 APM2        1.106700 
     50 O           4.404625   -7.298619   10.446441 O.2       2 APM2       -0.616200 
     51 N           4.962687   -9.660690   11.000923 N.am      2 APM2       -1.026900 
     52 NG1        -0.671503   -8.887149    7.113773 N.pl3     2 APM2       -1.052200 
     53 NG2         0.152646  -10.514626    8.468777 N.pl3     2 APM2       -1.008900 
     54 N1          6.410312   -6.531936    9.820436 N.am      3 PIP3       -0.530000 
     55 C2          7.737183   -6.773359    9.233929 C.3       3 PIP3       -0.032500 
     56 C3          8.799168   -6.125314   10.147578 C.3       3 PIP3        0.212100 
     57 N4          8.378034   -4.752504   10.432622 N.am      3 PIP3       -1.030400 
     58 C5          7.044351   -4.548800   11.020400 C.3       3 PIP3        0.300300 
     59 C6          5.988260   -5.156408   10.078537 C.3       3 PIP3       -0.088300 
     60 O           8.764866   -2.224138   10.463169 O.2       4 SULFONYL   -0.917200 
     61 O           9.627408   -3.587865    8.562629 O.2       4 SULFONYL   -0.965300 
     62 ****       10.726327   -3.633266   11.952428 H         4 SULFONYL    0.253800 
     63 ****        6.890556   -4.307368   15.225039 H         1 TOS1        0.042200 
     64 C64         2.984527   -6.787760   13.217277 C.3       1 TOS1       -0.388200 
     65 C65         3.469442   -8.244382   15.201576 C.3       1 TOS1       -0.399700 
     66 ****        8.491970  -10.588246   13.271560 H         1 TOS1        0.046800 
     67 C67         9.690638   -9.700925   14.695308 C.3       1 TOS1       -0.415000 
     68 C68         9.811023   -9.284274   12.172257 C.3       1 TOS1       -0.246700 
     69 ****        9.537798   -4.689710   13.770165 H         1 TOS1        0.057500 
     70 ****        9.124795   -3.227052   14.703351 H         1 TOS1        0.081000 
     71 ****        8.161576   -3.653843   13.290321 H         1 TOS1       -0.014700 
     72 ****        7.778169   -5.872096   16.962645 H         1 TOS1        0.076900 
     73 ****        8.750956   -4.371180   16.854546 H         1 TOS1        0.113700 
     74 ****        9.380233   -5.891612   16.158136 H         1 TOS1        0.086200 
     75 ****        3.115676   -5.846167   13.764168 H         1 TOS1        0.106900 
     76 ****        1.922977   -7.065898   13.322602 H         1 TOS1        0.092100 
     77 ****        3.130642   -6.562511   12.161315 H         1 TOS1        0.088500 
     78 ****        4.040215   -9.093643   15.609547 H         1 TOS1        0.098500 
     79 ****        2.394955   -8.486190   15.274315 H         1 TOS1        0.105400 
     80 ****        3.661053   -7.360169   15.833041 H         1 TOS1        0.099900 
     81 ****       10.193791   -8.768452   14.988829 H         1 TOS1        0.102900 
     82 ****       10.473182  -10.471867   14.587898 H         1 TOS1        0.118100 
     83 ****        9.026286  -10.005769   15.521255 H         1 TOS1        0.093600 
     84 ****        9.231862   -9.268274   11.238468 H         1 TOS1        0.023100 
     85 ****       10.581660  -10.065833   12.084031 H         1 TOS1        0.090700 
     86 ****       10.333146   -8.323726   12.279429 H         1 TOS1        0.045200 
     87 ****       11.598341   -2.889887   10.571778 H         4 SULFONYL    0.269800 
     88 ****       11.368373   -4.669255   10.619107 H         4 SULFONYL    0.251200 
@<TRIPOS>BOND
     1   34    1 1    
     2   35    2 1    
     3   36    3 1    
     4   38    4 1    
     5   37    5 1    
     6    1    6 1    
     7    3    7 1    
     8   41    8 1    
     9   42    9 1    
    10   42   10 1    
    11   44   11 1    
    12   45   12 1    
    13   47   13 1    
    14   48   14 1    
    15   51   15 1    
    16   52   16 1    
    17   52   17 1    
    18   53   18 1    
    19   53   19 1    
    20   55   20 1    
    21   55   21 1    
    22   56   22 1    
    23   56   23 1    
    24   57   25 1    
    25   25   60 2    
    26   58   26 1    
    27   58   27 1    
    28   59   28 1    
    29   59   29 1    
    30   33   30 1    
    31   30   32 2    
    32   30   31 2    
    33   33   38 ar   
    34   34   33 ar   
    35   35   34 ar   
    36   36   35 ar   
    37    3   39 1    
    38   36   37 ar   
    39   37   38 ar   
    40   40   50 2    
    41   41   40 1    
    42   41   51 1    
    43   42   41 1    
    44   43   42 1    
    45   43   45 ar   
    46   44   43 ar   
    47   46   44 ar   
    48   49   46 1    
    49   46   48 ar   
    50   48   47 ar   
    51   47   45 ar   
    52   49   53 ar   
    53   49   52 ar   
    54   54   59 1    
    55   55   54 1    
    56   56   55 1    
    57   57   56 1    
    58   57   58 1    
    59   58   59 1    
    60   40   54 am   
    61   51   30 1    
    62   25   61 2    
    63   25   24 1    
    64   24   62 1    
    65    3   63 1    
    66    1   64 1    
    67    1   65 1    
    68    4   66 1    
    69    4   67 1    
    70    4   68 1    
    71    7   69 1    
    72    7   70 1    
    73    7   71 1    
    74   39   72 1    
    75   39   73 1    
    76   39   74 1    
    77   64   75 1    
    78   64   76 1    
    79   64   77 1    
    80   65   78 1    
    81   65   79 1    
    82   65   80 1    
    83   67   81 1    
    84   67   82 1    
    85   67   83 1    
    86   68   84 1    
    87   68   85 1    
    88   68   86 1    
    89   24   87 1    
    90   24   88 1    
@<TRIPOS>SUBSTRUCTURE
     1 TOS1       30 GROUP             0 I     ****    1  
     2 APM2       40 GROUP             0 I     ****    2 ROOT 
     3 PIP3       54 GROUP             0 I     ****    2  
     4 SULFONYL    25 PERM              0 ****  ****    1  
@<TRIPOS>SET
UNK_ATOMS       STATIC     ATOMS    AMSOM    **** 
30 30 31 32 33 34 35 36 37 38 0 40 41 42 43 44 45 46 47 48 \
 49 50 51 52 53 54 55 56 57 58 59
@<TRIPOS>NORMAL
@<TRIPOS>FF_PBC
FORCE_FIELD_SETUP_FEATURE Force Field Setup information
v1.0  0 0.000000 0.000000 0.000000 0.000000 0.000000 0.000000 NONE 0 0 0 0 0 0 0 0 0 0 0 0 0
