#	Name:			83
#	Creating user name:	jeff
#	Creation time:		Fri Dec 13 10:12:52 2002

#	Modifying user name:	jeff
#	Modification time:	Fri Dec 13 10:12:55 2002

@<TRIPOS>MOLECULE
83
   78    82     6     1     2
SMALL
USER_CHARGES


@<TRIPOS>ATOM
      1 C1          3.901585   -6.365431   15.296186 C.ar      4 NAPHTHALENE   -0.243100 
      2 C2          4.069746   -5.150441   15.965121 C.ar      4 NAPHTHALENE   -0.122200 
      3 C3          5.337900   -4.570636   16.047745 C.ar      4 NAPHTHALENE   -0.070900 
      4 C4          6.435391   -5.206996   15.460749 C.ar      4 NAPHTHALENE   -0.302000 
      5 ****        6.766746   -9.294466   10.401659 H         2 APM2        0.113500 
      6 ****        5.249404  -10.491992    8.660255 H         2 APM2        0.162200 
      7 ****        6.164765   -9.114717    8.042514 H         2 APM2        0.126900 
      8 ****        2.799914  -10.390759    8.510078 H         2 APM2        0.200800 
      9 ****        5.109791   -6.861072    7.736114 H         2 APM2        0.171500 
     10 ****        3.064805   -5.663765    7.053748 H         2 APM2        0.203300 
     11 ****        0.868775   -6.761046    7.218207 H         2 APM2        0.160500 
     12 ****        3.964195   -9.937870   10.981198 H         2 APM2        0.384600 
     13 ****       -1.575725   -9.365378    7.065849 H         2 APM2        0.570200 
     14 ****       -0.522868   -8.055996    6.515699 H         2 APM2        0.555200 
     15 ****        0.905045  -10.868536    9.084452 H         2 APM2        0.543900 
     16 ****       -0.750744  -10.987530    8.475002 H         2 APM2        0.573800 
     17 ****        7.530796   -6.192373    8.444917 H         3 PIP3        0.124000 
     18 ****        7.786552   -7.795263    9.125986 H         3 PIP3        0.102500 
     19 ****        9.187316   -4.330519   11.286182 H         3 PIP3        0.062400 
     20 ****        8.679591   -6.785844   11.234938 H         3 PIP3        0.122800 
     21 ****        8.419064   -4.127170    9.687741 H         3 PIP3        0.092500 
     22 C22        11.812593   -7.741133    8.947188 C.3       6 CO2        -0.045800 
     23 ****        6.811028   -3.478795   11.476891 H         3 PIP3        0.041900 
     24 ****        7.013333   -5.066957   12.265841 H         3 PIP3        0.026600 
     25 ****        4.931832   -5.044608   10.918465 H         3 PIP3        0.093900 
     26 ****        5.832665   -4.583405    9.463815 H         3 PIP3        0.087900 
     27 S           5.679927  -10.419782   12.626749 S.o2      1 TOS1        2.246300 
     28 O1          6.967155  -11.011324   12.314645 O.2       1 TOS1       -0.918000 
     29 O2          4.694625  -11.194258   13.355458 O.2       1 TOS1       -0.959100 
     30 C5          7.365902   -7.069319   14.199999 C.ar      4 NAPHTHALENE   -0.220800 
     31 C6          7.195009   -8.285196   13.532797 C.ar      4 NAPHTHALENE   -0.151000 
     32 C7          5.929778   -8.874540   13.466220 C.ar      4 NAPHTHALENE   -0.415400 
     33 C8          4.834314   -8.225486   14.040869 C.ar      4 NAPHTHALENE   -0.218000 
     34 C9          4.999089   -7.006736   14.708512 C.ar      4 NAPHTHALENE    0.185100 
     35 C10         6.271353   -6.425203   14.790482 C.ar      4 NAPHTHALENE    0.175200 
     36 H1          2.910587   -6.805308   15.238953 H         4 NAPHTHALENE    0.187400 
     37 C           5.472365   -7.556832   10.495723 C.2       2 APM2        0.538200 
     38 CA          5.721189   -9.021788   10.198146 C.3       2 APM2        0.286200 
     39 CB          5.355680   -9.398111    8.731751 C.3       2 APM2       -0.400400 
     40 CG          4.078311   -8.691334    8.243848 C.ar      2 APM2        0.135600 
     41 CD1         2.840090   -9.345970    8.225489 C.ar      2 APM2       -0.111000 
     42 CD2         4.154023   -7.369706    7.791282 C.ar      2 APM2       -0.018200 
     43 CE1         1.671003   -8.678406    7.832941 C.ar      2 APM2       -0.385000 
     44 CE2         2.998692   -6.690346    7.401375 C.ar      2 APM2       -0.193900 
     45 CZ          1.759103   -7.331297    7.460462 C.ar      2 APM2       -0.040000 
     46 CF          0.328129   -9.390255    7.804078 C.cat     2 APM2        1.115700 
     47 O           4.454954   -7.340300   11.135743 O.2       2 APM2       -0.606600 
     48 N           4.944953   -9.818482   11.140302 N.am      2 APM2       -0.960800 
     49 NG1        -0.653928   -8.903154    7.086107 N.pl3     2 APM2       -1.045100 
     50 NG2         0.151538  -10.488332    8.495401 N.pl3     2 APM2       -1.004900 
     51 N1          6.283398   -6.533275   10.094877 N.am      3 PIP3       -0.396700 
     52 C2          7.548731   -6.759669    9.388929 C.3       3 PIP3       -0.072900 
     53 C3          8.682116   -6.212646   10.292309 C.3       3 PIP3       -0.203300 
     54 C4          8.400486   -4.718588   10.617924 C.3       3 PIP3       -0.151000 
     55 C5          7.014329   -4.547715   11.294877 C.3       3 PIP3        0.057400 
     56 C6          5.900976   -5.152474   10.404980 C.3       3 PIP3       -0.038800 
     57 ****       11.673756   -7.512155    7.878206 H         6 CO2         0.109200 
     58 ****       12.542363   -7.023091    9.356498 H         6 CO2         0.115700 
     59 H2          3.216050   -4.657537   16.420481 H         4 NAPHTHALENE    0.165900 
     60 H3          5.469729   -3.626736   16.567835 H         4 NAPHTHALENE    0.167500 
     61 H4          7.414907   -4.744049   15.532157 H         4 NAPHTHALENE    0.195900 
     62 H5          8.357359   -6.629774   14.254397 H         4 NAPHTHALENE    0.197400 
     63 H6          8.047286   -8.769769   13.068693 H         4 NAPHTHALENE    0.201300 
     64 H8          3.852987   -8.681125   13.961508 H         4 NAPHTHALENE    0.225200 
     65 C          10.019416   -6.390408    9.605553 C.2       6 CO2         0.915600 
     66 O          10.567247   -5.446736    9.055645 O.2       6 CO2        -0.623200 
     67 O          10.550489   -7.628442    9.644367 O.3       6 CO2        -0.488800 
     68 C          12.406208   -9.154061    9.082953 C.ar      5 PHENYL      0.068400 
     69 C          13.244435   -9.463386   10.161342 C.ar      5 PHENYL     -0.212500 
     70 C          13.829700  -10.728307   10.270474 C.ar      5 PHENYL     -0.130600 
     71 C          13.568094  -11.707476    9.308134 C.ar      5 PHENYL     -0.099200 
     72 C          12.718847  -11.413204    8.238989 C.ar      5 PHENYL     -0.156900 
     73 C          12.137333  -10.145533    8.130655 C.ar      5 PHENYL     -0.187000 
     74 ****       13.449686   -8.717438   10.922308 H         5 PHENYL      0.186900 
     75 ****       14.489680  -10.952220   11.102624 H         5 PHENYL      0.150900 
     76 ****       14.022154  -12.690690    9.391580 H         5 PHENYL      0.147100 
     77 ****       12.511934  -12.171905    7.490426 H         5 PHENYL      0.152800 
     78 ****       11.476490   -9.938156    7.295564 H         5 PHENYL      0.167300 
@<TRIPOS>BOND
     1   27   32 1    
     2   30   31 ar   
     3   30   35 ar   
     4   30   62 1    
     5   35    4 ar   
     6   35   34 ar   
     7   34    1 ar   
     8   38    5 1    
     9   39    6 1    
    10   39    7 1    
    11   41    8 1    
    12   42    9 1    
    13   44   10 1    
    14   45   11 1    
    15   48   12 1    
    16   49   13 1    
    17   49   14 1    
    18   50   15 1    
    19   50   16 1    
    20   52   17 1    
    21   52   18 1    
    22   53   65 1    
    23   53   20 1    
    24   54   21 1    
    25   54   19 1    
    26   55   23 1    
    27   55   24 1    
    28   56   25 1    
    29   56   26 1    
    30   34   33 ar   
    31   27   29 2    
    32   27   28 2    
    33   33   32 ar   
    34   33   64 1    
    35   32   31 ar   
    36   31   63 1    
    37    1    2 ar   
    38    1   36 1    
    39   37   47 2    
    40   38   37 1    
    41   38   48 1    
    42   39   38 1    
    43   40   39 1    
    44   40   42 ar   
    45   41   40 ar   
    46   43   41 ar   
    47   46   43 1    
    48   43   45 ar   
    49   45   44 ar   
    50   44   42 ar   
    51   46   50 ar   
    52   46   49 ar   
    53   51   56 1    
    54   52   51 1    
    55   53   52 1    
    56   54   53 1    
    57   54   55 1    
    58   55   56 1    
    59   37   51 am   
    60   48   27 1    
    61   67   22 1    
    62   22   57 1    
    63   22   68 1    
    64    2    3 ar   
    65    2   59 1    
    66    3    4 ar   
    67    3   60 1    
    68    4   61 1    
    69   22   58 1    
    70   65   66 2    
    71   65   67 1    
    72   68   69 ar   
    73   68   73 ar   
    74   73   72 ar   
    75   72   71 ar   
    76   71   70 ar   
    77   70   69 ar   
    78   69   74 1    
    79   70   75 1    
    80   71   76 1    
    81   72   77 1    
    82   73   78 1    
@<TRIPOS>SUBSTRUCTURE
     1 TOS1       27 GROUP             0 I     ****    2  
     2 APM2       37 GROUP             0 I     ****    2 ROOT 
     3 PIP3       51 GROUP             0 I     ****    2  
     4 NAPHTHALENE    30 PERM              0 ****  ****    1  
     5 PHENYL     68 PERM              0 ****  ****    1  
     6 CO2        65 PERM              0 ****  ****    2  
@<TRIPOS>SET
UNK_ATOMS       STATIC     ATOMS    AMSOM    **** 
30 27 28 29 0 0 0 0 0 0 0 37 38 39 40 41 42 43 44 45 \
 46 47 48 49 50 51 52 53 54 55 56
LAB$B_TYPE      STATIC     BONDS    LABELGROUP SYSTEM 
0
@<TRIPOS>NORMAL
@<TRIPOS>FF_PBC
FORCE_FIELD_SETUP_FEATURE Force Field Setup information
v1.0  0 0.000000 0.000000 0.000000 0.000000 0.000000 0.000000 NONE 0 0 0 0 0 0 0 0 0 0 0 0 0
