#	Name:			84
#	Creating user name:	jeff
#	Creation time:		Fri Dec 13 10:12:55 2002

#	Modifying user name:	jeff
#	Modification time:	Fri Dec 13 10:12:57 2002

@<TRIPOS>MOLECULE
84
   71    75     5     5     3
SMALL
USER_CHARGES


@<TRIPOS>ATOM
      1 C1          3.993891   -6.221134   15.151334 C.ar      4 NAPHTHALENE   -0.240600 
      2 C2          4.266130   -4.993426   15.761118 C.ar      4 NAPHTHALENE   -0.132600 
      3 C3          5.568084   -4.487019   15.757145 C.ar      4 NAPHTHALENE   -0.060800 
      4 C4          6.595827   -5.211875   15.147190 C.ar      4 NAPHTHALENE   -0.300400 
      5 ****        6.770666   -9.384945   10.360294 H         2 APM2        0.095300 
      6 ****        5.429052  -10.410882    8.429015 H         2 APM2        0.158400 
      7 ****        6.290138   -8.942298    7.942184 H         2 APM2        0.110400 
      8 ****        3.027373  -10.468038    8.060867 H         2 APM2        0.211900 
      9 ****        5.091627   -6.746727    7.750137 H         2 APM2        0.178100 
     10 ****        2.939623   -5.577307    7.369181 H         2 APM2        0.200100 
     11 ****        0.818937   -6.734068    7.761652 H         2 APM2        0.163200 
     12 ****        3.900305   -9.894755   10.655449 H         2 APM2        0.392200 
     13 ****       -1.579192   -9.490134    7.496441 H         2 APM2        0.567800 
     14 ****       -0.678775   -8.043630    7.035257 H         2 APM2        0.552000 
     15 ****        1.214921  -11.132562    8.900005 H         2 APM2        0.545100 
     16 ****       -0.500440  -11.251284    8.499960 H         2 APM2        0.573700 
     17 ****        7.690353   -6.329378    8.443078 H         3 PIP3        0.115500 
     18 ****        7.963751   -7.894578    9.222469 H         3 PIP3        0.093000 
     19 ****        9.835067   -6.382749    9.789163 H         3 PIP3        0.132500 
     20 ****        8.880536   -6.805537   11.234371 H         3 PIP3        0.064300 
     21 ****        9.537071   -3.048680   12.212822 H         5 PHENYL      0.127400 
     22 C           9.403396   -3.868635   10.221387 C.ar      5 PHENYL      0.373700 
     23 ****        7.132495   -3.478095   11.385810 H         3 PIP3        0.102400 
     24 ****        7.342253   -5.015951   12.263404 H         3 PIP3        0.060000 
     25 ****        5.200007   -5.063164   11.037808 H         3 PIP3        0.125000 
     26 ****        6.015132   -4.638939    9.517913 H         3 PIP3        0.100100 
     27 S           5.408883  -10.444451   12.506972 S.o2      1 TOS1        2.267600 
     28 O1          6.637311  -11.192129   12.319730 O.2       1 TOS1       -0.929400 
     29 O2          4.281665  -11.070027   13.169354 O.2       1 TOS1       -0.959300 
     30 C5          7.355853   -7.181766   13.939533 C.ar      4 NAPHTHALENE   -0.254000 
     31 C6          7.078528   -8.399195   13.312662 C.ar      4 NAPHTHALENE   -0.119600 
     32 C7          5.777220   -8.906490   13.314163 C.ar      4 NAPHTHALENE   -0.447100 
     33 C8          4.751504   -8.176374   13.920386 C.ar      4 NAPHTHALENE   -0.196100 
     34 C9          5.021037   -6.949948   14.537505 C.ar      4 NAPHTHALENE    0.167000 
     35 C10         6.328266   -6.445743   14.542187 C.ar      4 NAPHTHALENE    0.194900 
     36 H1          2.976742   -6.601289   15.159391 H         4 NAPHTHALENE    0.189500 
     37 C           5.578997   -7.571147   10.446049 C.2       2 APM2        0.534200 
     38 CA          5.763901   -9.035046   10.086836 C.3       2 APM2        0.328400 
     39 CB          5.478398   -9.321479    8.580513 C.3       2 APM2       -0.406100 
     40 CG          4.159226   -8.657810    8.143348 C.ar      2 APM2        0.183500 
     41 CD1         2.963895   -9.383074    8.045829 C.ar      2 APM2       -0.160300 
     42 CD2         4.153752   -7.293912    7.833012 C.ar      2 APM2       -0.044500 
     43 CE1         1.728919   -8.720429    7.924136 C.ar      2 APM2       -0.350100 
     44 CE2         2.940163   -6.634328    7.632265 C.ar      2 APM2       -0.177000 
     45 CZ          1.734873   -7.323846    7.772168 C.ar      2 APM2       -0.059500 
     46 CF          0.419759   -9.499898    7.958738 C.cat     2 APM2        1.096800 
     47 O           4.550403   -7.324988   11.055339 O.2       2 APM2       -0.616300 
     48 N           4.859210   -9.811986   10.923606 N.am      2 APM2       -0.989200 
     49 NG1        -0.681431   -8.977485    7.468741 N.pl3     2 APM2       -1.035000 
     50 NG2         0.377155  -10.705127    8.480404 N.pl3     2 APM2       -1.000000 
     51 N1          6.460299   -6.580559   10.124653 N.am      3 PIP3       -0.395300 
     52 C2          7.717282   -6.845973    9.415516 C.3       3 PIP3       -0.034900 
     53 C3          8.853780   -6.254875   10.280632 C.3       3 PIP3        0.040500 
     54 N4          8.551851   -4.860250   10.576248 N.pl3     3 PIP3       -0.597500 
     55 C5          7.299585   -4.562599   11.265353 C.3       3 PIP3        0.149700 
     56 C6          6.132455   -5.190811   10.462057 C.3       3 PIP3       -0.087200 
     57 C           9.860440   -2.955641   11.183915 C.ar      5 PHENYL     -0.265700 
     58 C          10.732926   -1.924244   10.821225 C.ar      5 PHENYL     -0.096400 
     59 C          11.174392   -1.813081    9.501394 C.ar      5 PHENYL     -0.209500 
     60 H2          3.467620   -4.434563   16.239355 H         4 NAPHTHALENE    0.168100 
     61 H3          5.780235   -3.531882   16.226835 H         4 NAPHTHALENE    0.164400 
     62 H4          7.602497   -4.804904   15.148831 H         4 NAPHTHALENE    0.194900 
     63 H5          8.377134   -6.812982   13.951784 H         4 NAPHTHALENE    0.202300 
     64 H6          7.876906   -8.948474   12.826305 H         4 NAPHTHALENE    0.196800 
     65 H8          3.741984   -8.572837   13.905015 H         4 NAPHTHALENE    0.224000 
     66 C          10.730827   -2.727390    8.541059 C.ar      5 PHENYL     -0.035100 
     67 C           9.841784   -3.742846    8.900260 C.ar      5 PHENYL     -0.373000 
     68 ****       11.069476   -1.211686   11.567281 H         5 PHENYL      0.159300 
     69 ****       11.858640   -1.018669    9.222515 H         5 PHENYL      0.162100 
     70 ****       11.079707   -2.643667    7.515946 H         5 PHENYL      0.144000 
     71 ****        9.486531   -4.437546    8.144509 H         5 PHENYL      0.184100 
@<TRIPOS>BOND
     1   27   32 1    
     2   30   31 ar   
     3   30   35 ar   
     4   30   63 1    
     5   35    4 ar   
     6   35   34 ar   
     7   34    1 ar   
     8   38    5 1    
     9   39    6 1    
    10   39    7 1    
    11   41    8 1    
    12   42    9 1    
    13   44   10 1    
    14   45   11 1    
    15   48   12 1    
    16   49   13 1    
    17   49   14 1    
    18   50   15 1    
    19   50   16 1    
    20   52   17 1    
    21   52   18 1    
    22   53   19 1    
    23   53   20 1    
    24   54   22 1    
    25   22   57 ar   
    26   55   23 1    
    27   55   24 1    
    28   56   25 1    
    29   56   26 1    
    30   34   33 ar   
    31   27   29 2    
    32   27   28 2    
    33   33   32 ar   
    34   33   65 1    
    35   32   31 ar   
    36   31   64 1    
    37    1    2 ar   
    38    1   36 1    
    39   37   47 2    
    40   38   37 1    
    41   38   48 1    
    42   39   38 1    
    43   40   39 1    
    44   40   42 ar   
    45   41   40 ar   
    46   43   41 ar   
    47   46   43 1    
    48   43   45 ar   
    49   45   44 ar   
    50   44   42 ar   
    51   46   50 ar   
    52   46   49 ar   
    53   51   56 1    
    54   52   51 1    
    55   53   52 1    
    56   54   53 1    
    57   54   55 1    
    58   55   56 1    
    59   37   51 am   
    60   48   27 1    
    61   22   67 ar   
    62   67   66 ar   
    63   66   59 ar   
    64    2    3 ar   
    65    2   60 1    
    66    3    4 ar   
    67    3   61 1    
    68    4   62 1    
    69   59   58 ar   
    70   58   57 ar   
    71   57   21 1    
    72   58   68 1    
    73   59   69 1    
    74   66   70 1    
    75   67   71 1    
@<TRIPOS>SUBSTRUCTURE
     1 TOS1       27 GROUP             0 I     ****    2  
     2 APM2       37 GROUP             0 I     ****    2 ROOT 
     3 PIP3       51 GROUP             0 I     ****    2  
     4 NAPHTHALENE    30 PERM              0 ****  ****    1  
     5 PHENYL     22 PERM              0 ****  ****    1  
@<TRIPOS>SET
UNK_ATOMS       STATIC     ATOMS    AMSOM    **** 
30 27 28 29 0 0 0 0 0 0 0 37 38 39 40 41 42 43 44 45 \
 46 47 48 49 50 51 52 53 54 55 56
ATOM$WHITE      STATIC     ATOMS    COLORGROUP SYSTEM 
0
ATOM$BY_TYPE    STATIC     ATOMS    COLORGROUP SYSTEM 
71 1 2 3 4 5 6 7 8 9 10 11 12 13 14 15 16 17 18 19 \
 20 0 0 23 24 25 26 27 28 29 30 31 32 33 34 35 36 37 \
 38 39 40 41 42 43 44 45 46 47 48 49 50 51 52 53 54 55 \
 56 0 0 0 60 61 62 63 64 65 0 0 0 0 0 0
@<TRIPOS>ROTATABLE_BOND
   24    57    61  1 1     0  1   5    0 359
   59    40    54  2 1     0  1   5    0 359
@<TRIPOS>ANCHOR_ATOM
37
@<TRIPOS>NORMAL
@<TRIPOS>FF_PBC
FORCE_FIELD_SETUP_FEATURE Force Field Setup information
v1.0  0 0.000000 0.000000 0.000000 0.000000 0.000000 0.000000 NONE 0 0 0 0 0 0 0 0 0 0 0 0 0
@<TRIPOS>SEARCH_OPTS
1 0 1 1 9.999000e+03 0 9.500000e-01 6.500000e-01 8.700000e-01 0 0 
