#	Name:			85
#	Creating user name:	jeff
#	Creation time:		Fri Dec 13 10:12:57 2002

#	Modifying user name:	jeff
#	Modification time:	Fri Dec 13 10:13:00 2002

@<TRIPOS>MOLECULE
85
   71    74     5     1     2
SMALL
USER_CHARGES


@<TRIPOS>ATOM
      1 C1          3.902315   -6.361698   15.289862 C.ar      4 NAPHTHALENE   -0.245900 
      2 C2          4.073450   -5.148345   15.959855 C.ar      4 NAPHTHALENE   -0.121100 
      3 C3          5.342647   -4.570050   16.040693 C.ar      4 NAPHTHALENE   -0.076500 
      4 C4          6.438447   -5.207578   15.452010 C.ar      4 NAPHTHALENE   -0.293500 
      5 ****        6.748439   -9.288940   10.389232 H         2 APM2        0.134400 
      6 ****        5.256670  -10.501752    8.652909 H         2 APM2        0.191700 
      7 ****        6.154571   -9.109928    8.029796 H         2 APM2        0.167800 
      8 ****        2.775932  -10.428396    8.523951 H         2 APM2        0.211600 
      9 ****        5.066146   -6.909710    7.689655 H         2 APM2        0.178400 
     10 ****        3.014546   -5.689952    7.078903 H         2 APM2        0.206800 
     11 ****        0.819519   -6.797900    7.266870 H         2 APM2        0.162100 
     12 ****        3.945494   -9.907957   10.963323 H         2 APM2        0.385400 
     13 ****       -1.602800   -9.383021    7.082721 H         2 APM2        0.569400 
     14 ****       -0.542836   -8.071507    6.547861 H         2 APM2        0.554800 
     15 ****        0.886602  -10.913241    9.081944 H         2 APM2        0.540200 
     16 ****       -0.775204  -11.026268    8.483142 H         2 APM2        0.571000 
     17 C           7.566285   -6.063366    8.021005 C.2       5 CO2         1.047200 
     18 ****        7.783403   -7.750378    9.215462 H         3 PIP3        0.162400 
     19 C19        10.090190   -6.273718    9.612227 C.3       3 PIP3       -0.520800 
     20 ****        8.707074   -6.725780   11.216585 H         3 PIP3        0.054800 
     21 ****        8.381613   -4.044511    9.736109 H         3 PIP3        0.123900 
     22 ****       10.880855   -5.940883   10.302907 H         3 PIP3        0.142600 
     23 ****        6.842300   -3.473845   11.617965 H         3 PIP3        0.069800 
     24 ****        7.109791   -5.075789   12.350784 H         3 PIP3        0.023700 
     25 ****        4.983709   -5.085311   11.162170 H         3 PIP3        0.089000 
     26 ****        5.716821   -4.493220    9.680463 H         3 PIP3        0.097200 
     27 S           5.665538  -10.412936   12.609435 S.o2      1 TOS1        2.259600 
     28 O1          6.949474  -11.009980   12.294413 O.2       1 TOS1       -0.924800 
     29 O2          4.676128  -11.184249   13.336020 O.2       1 TOS1       -0.957400 
     30 C5          7.365392   -7.074108   14.193072 C.ar      4 NAPHTHALENE   -0.264100 
     31 C6          7.190084   -8.285273   13.519370 C.ar      4 NAPHTHALENE   -0.121700 
     32 C7          5.922941   -8.870856   13.451879 C.ar      4 NAPHTHALENE   -0.442900 
     33 C8          4.829723   -8.220332   14.028697 C.ar      4 NAPHTHALENE   -0.198600 
     34 C9          4.998868   -7.003899   14.699623 C.ar      4 NAPHTHALENE    0.170500 
     35 C10         6.271519   -6.426205   14.782656 C.ar      4 NAPHTHALENE    0.204300 
     36 H1          2.910922   -6.800421   15.233173 H         4 NAPHTHALENE    0.189300 
     37 C           5.459701   -7.536634   10.470698 C.2       2 APM2        0.589000 
     38 CA          5.708085   -9.005606   10.175060 C.3       2 APM2        0.280700 
     39 CB          5.345718   -9.405588    8.715526 C.3       2 APM2       -0.535400 
     40 CG          4.050844   -8.725490    8.236297 C.ar      2 APM2        0.205700 
     41 CD1         2.814562   -9.384614    8.234726 C.ar      2 APM2       -0.155200 
     42 CD2         4.112444   -7.408382    7.774044 C.ar      2 APM2       -0.026200 
     43 CE1         1.643169   -8.715059    7.851514 C.ar      2 APM2       -0.361500 
     44 CE2         2.953180   -6.720655    7.414068 C.ar      2 APM2       -0.189500 
     45 CZ          1.717005   -7.365554    7.489166 C.ar      2 APM2       -0.053900 
     46 CF          0.300366   -9.425533    7.819569 C.cat     2 APM2        1.099300 
     47 O           4.417945   -7.339795   11.077355 O.2       2 APM2       -0.605100 
     48 N           4.928007   -9.798126   11.118180 N.am      2 APM2       -0.961700 
     49 NG1        -0.679057   -8.925313    7.107965 N.pl3     2 APM2       -1.041800 
     50 NG2         0.127933  -10.528626    8.501755 N.pl3     2 APM2       -0.994000 
     51 N1          6.278486   -6.492904   10.124897 N.am      3 PIP3       -0.441400 
     52 C2          7.545145   -6.696830    9.396824 C.3       3 PIP3       -0.424600 
     53 C3          8.693373   -6.136996   10.282644 C.3       3 PIP3        0.354900 
     54 C4          8.403867   -4.657643   10.651047 C.3       3 PIP3       -0.326800 
     55 C5          7.050005   -4.533928   11.394759 C.3       3 PIP3        0.003800 
     56 C6          5.899700   -5.135977   10.551728 C.3       3 PIP3       -0.003900 
     57 ****       10.153955   -5.664117    8.698756 H         3 PIP3        0.145800 
     58 ****       10.288737   -7.323101    9.347444 H         3 PIP3        0.133700 
     59 ****        9.204832   -4.273348   11.304353 H         3 PIP3        0.102400 
     60 H2          3.221218   -4.654988   16.417625 H         4 NAPHTHALENE    0.165700 
     61 H3          5.476200   -3.626411   16.560728 H         4 NAPHTHALENE    0.168600 
     62 H4          7.418366   -4.745299   15.521002 H         4 NAPHTHALENE    0.192000 
     63 H5          8.358778   -6.639817   14.252813 H         4 NAPHTHALENE    0.203600 
     64 H6          8.040259   -8.769392   13.050680 H         4 NAPHTHALENE    0.196800 
     65 H8          3.847180   -8.672966   13.948629 H         4 NAPHTHALENE    0.222800 
     66 O           6.818283   -5.150203    7.712123 O.2       5 CO2        -0.615400 
     67 O           8.461091   -6.602546    7.174619 O.3       5 CO2        -0.499200 
     68 ****        8.596073   -5.960695    5.887980 C.3       5 CO2        -0.034300 
     69 ****        9.572932   -5.455986    5.843672 H         5 CO2         0.088300 
     70 ****        7.816928   -5.240396    5.594989 H         5 CO2         0.061100 
     71 ****        8.594413   -6.771282    5.145978 H         5 CO2         0.136500 
@<TRIPOS>BOND
     1   27   32 1    
     2   30   31 ar   
     3   30   35 ar   
     4   30   63 1    
     5   35    4 ar   
     6   35   34 ar   
     7   34    1 ar   
     8   38    5 1    
     9   39    6 1    
    10   39    7 1    
    11   41    8 1    
    12   42    9 1    
    13   44   10 1    
    14   45   11 1    
    15   48   12 1    
    16   49   13 1    
    17   49   14 1    
    18   50   15 1    
    19   50   16 1    
    20   17   66 2    
    21   52   18 1    
    22   53   19 1    
    23   53   20 1    
    24   54   21 1    
    25   19   22 1    
    26   55   23 1    
    27   55   24 1    
    28   56   25 1    
    29   56   26 1    
    30   34   33 ar   
    31   27   29 2    
    32   27   28 2    
    33   33   32 ar   
    34   33   65 1    
    35   32   31 ar   
    36   31   64 1    
    37    1    2 ar   
    38    1   36 1    
    39   37   47 2    
    40   38   37 1    
    41   38   48 1    
    42   39   38 1    
    43   40   39 1    
    44   40   42 ar   
    45   41   40 ar   
    46   43   41 ar   
    47   46   43 1    
    48   43   45 ar   
    49   45   44 ar   
    50   44   42 ar   
    51   46   50 ar   
    52   46   49 ar   
    53   51   56 1    
    54   52   51 1    
    55   53   52 1    
    56   54   53 1    
    57   54   55 1    
    58   55   56 1    
    59   37   51 am   
    60   48   27 1    
    61   19   57 1    
    62   19   58 1    
    63   54   59 1    
    64    2    3 ar   
    65    2   60 1    
    66    3    4 ar   
    67    3   61 1    
    68    4   62 1    
    69   17   67 1    
    70   52   17 1    
    71   67   68 1    
    72   68   69 1    
    73   68   70 1    
    74   68   71 1    
@<TRIPOS>SUBSTRUCTURE
     1 TOS1       27 GROUP             0 I     ****    2  
     2 APM2       37 GROUP             0 I     ****    2 ROOT 
     3 PIP3       51 GROUP             0 I     ****    2  
     4 NAPHTHALENE    30 PERM              0 ****  ****    1  
     5 CO2        17 PERM              0 ****  ****    1  
@<TRIPOS>SET
UNK_ATOMS       STATIC     ATOMS    AMSOM    **** 
30 27 28 29 0 0 0 0 0 0 0 37 38 39 40 41 42 43 44 45 \
 46 47 48 49 50 51 52 53 54 55 56
LAB$B_TYPE      STATIC     BONDS    LABELGROUP SYSTEM 
0
@<TRIPOS>NORMAL
@<TRIPOS>FF_PBC
FORCE_FIELD_SETUP_FEATURE Force Field Setup information
v1.0  0 0.000000 0.000000 0.000000 0.000000 0.000000 0.000000 NONE 0 0 0 0 0 0 0 0 0 0 0 0 0
