#	Name:			86
#	Creating user name:	jeff
#	Creation time:		Fri Dec 13 10:13:00 2002

#	Modifying user name:	jeff
#	Modification time:	Fri Dec 13 10:13:03 2002

@<TRIPOS>MOLECULE
86
   74    77     5     1     2
SMALL
USER_CHARGES


@<TRIPOS>ATOM
      1 C1          3.846680   -6.389998   15.286930 C.ar      4 NAPHTHALENE   -0.259100 
      2 C2          3.996508   -5.176603   15.962550 C.ar      4 NAPHTHALENE   -0.110000 
      3 C3          5.253389   -4.574871   16.042294 C.ar      4 NAPHTHALENE   -0.089100 
      4 C4          6.352537   -5.188716   15.433529 C.ar      4 NAPHTHALENE   -0.247800 
      5 ****        6.780073   -9.297563   10.389155 H         2 APM2        0.144200 
      6 ****        5.256803  -10.494953    8.649864 H         2 APM2        0.178500 
      7 ****        6.169403   -9.118224    8.027048 H         2 APM2        0.134200 
      8 ****        2.803419  -10.394618    8.510577 H         2 APM2        0.204400 
      9 ****        5.110775   -6.863352    7.729430 H         2 APM2        0.164200 
     10 ****        3.060350   -5.658551    7.077379 H         2 APM2        0.203800 
     11 ****        0.865172   -6.763624    7.237222 H         2 APM2        0.161000 
     12 ****        3.966680   -9.920654   10.964360 H         2 APM2        0.383100 
     13 ****       -1.570471   -9.363857    7.072852 H         2 APM2        0.569000 
     14 ****       -0.516271   -8.051151    6.530769 H         2 APM2        0.556400 
     15 ****        0.916894  -10.874933    9.083126 H         2 APM2        0.542200 
     16 ****       -0.741763  -10.994012    8.479101 H         2 APM2        0.572100 
     17 ****        7.563498   -6.180298    8.427528 H         3 PIP3        0.110700 
     18 ****        7.800327   -7.792902    9.093905 H         3 PIP3        0.084000 
     19 ****        9.662249   -6.310991    9.792241 H         3 PIP3        0.053900 
     20 ****        8.710882   -6.849922   11.203810 H         3 PIP3        0.013600 
     21 ****        8.463060   -4.138907    9.751939 H         3 PIP3        0.105100 
     22 C           9.490655   -4.253175   11.635323 C.2       5 CO2         0.728700 
     23 ****        6.820105   -3.502935   11.495183 H         3 PIP3        0.037500 
     24 ****        6.968215   -5.101820   12.270562 H         3 PIP3        0.019900 
     25 ****        4.939145   -5.039847   10.860931 H         3 PIP3        0.131900 
     26 ****        5.885478   -4.575005    9.439572 H         3 PIP3        0.109100 
     27 S           5.667417  -10.420529   12.619606 S.o2      1 TOS1        2.273300 
     28 O1          6.955466  -11.017007   12.316392 O.2       1 TOS1       -0.928500 
     29 O2          4.673000  -11.199107   13.336509 O.2       1 TOS1       -0.954200 
     30 C5          7.320756   -7.065567   14.215278 C.ar      4 NAPHTHALENE   -0.259100 
     31 C6          7.164094   -8.279262   13.540359 C.ar      4 NAPHTHALENE   -0.092100 
     32 C7          5.906765   -8.875878   13.462238 C.ar      4 NAPHTHALENE   -0.482400 
     33 C8          4.804372   -8.235199   14.033668 C.ar      4 NAPHTHALENE   -0.165400 
     34 C9          4.951786   -7.016159   14.701261 C.ar      4 NAPHTHALENE    0.160000 
     35 C10         6.215867   -6.419059   14.781572 C.ar      4 NAPHTHALENE    0.182400 
     36 H1          2.860499   -6.837848   15.229271 H         4 NAPHTHALENE    0.191900 
     37 C           5.489779   -7.554344   10.473725 C.2       2 APM2        0.649400 
     38 CA          5.734102   -9.022243   10.183569 C.3       2 APM2        0.237600 
     39 CB          5.362585   -9.401381    8.718933 C.3       2 APM2       -0.445800 
     40 CG          4.082499   -8.694853    8.239295 C.ar      2 APM2        0.164300 
     41 CD1         2.845870   -9.349142    8.228242 C.ar      2 APM2       -0.130000 
     42 CD2         4.155483   -7.371297    7.792786 C.ar      2 APM2       -0.023800 
     43 CE1         1.674703   -8.681097    7.840190 C.ar      2 APM2       -0.373400 
     44 CE2         2.997246   -6.689572    7.414765 C.ar      2 APM2       -0.184600 
     45 CZ          1.759120   -7.331614    7.473787 C.ar      2 APM2       -0.047300 
     46 CF          0.333939   -9.392921    7.810767 C.cat     2 APM2        1.107800 
     47 O           4.475610   -7.333779   11.118530 O.2       2 APM2       -0.635400 
     48 N           4.946805   -9.814099   11.125414 N.am      2 APM2       -0.969100 
     49 NG1        -0.649053   -8.901812    7.095903 N.pl3     2 APM2       -1.044100 
     50 NG2         0.159884  -10.494212    8.498491 N.pl3     2 APM2       -0.999800 
     51 N1          6.300891   -6.530911   10.066101 N.am      3 PIP3       -0.420800 
     52 C2          7.565780   -6.758077    9.366180 C.3       3 PIP3       -0.073800 
     53 C3          8.685057   -6.225411   10.296325 C.3       3 PIP3        0.061000 
     54 C4          8.425546   -4.741777   10.678236 C.3       3 PIP3       -0.211800 
     55 C5          7.015891   -4.571877   11.307269 C.3       3 PIP3        0.140400 
     56 C6          5.922482   -5.153645   10.376758 C.3       3 PIP3       -0.162500 
     57 O          10.220472   -3.327119   11.314754 O.2       5 CO2        -0.602400 
     58 O           9.556535   -4.904318   12.812621 O.3       5 CO2        -0.534400 
     59 ****       10.606140   -4.495504   13.731158 C.3       5 CO2         0.515500 
     60 H2          3.136789   -4.697032   16.423662 H         4 NAPHTHALENE    0.163800 
     61 H3          5.373025   -3.636863   16.578417 H         4 NAPHTHALENE    0.169300 
     62 H4          7.304551   -4.692375   15.468322 H         4 NAPHTHALENE    0.157400 
     63 H5          8.311884   -6.634425   14.292983 H         4 NAPHTHALENE    0.209300 
     64 H6          8.019852   -8.756769   13.076561 H         4 NAPHTHALENE    0.186000 
     65 H8          3.830122   -8.697640   13.951503 H         4 NAPHTHALENE    0.216200 
     66 C66         9.960715   -4.021439   15.062517 C.3       5 CO2        -0.532800 
     67 ****       11.258018   -3.676657   13.367226 H         5 CO2         0.059000 
     68 C68        11.494452   -5.732056   14.028903 C.3       5 CO2        -0.483300 
     69 ****       10.711864   -3.544913   15.713714 H         5 CO2         0.147800 
     70 ****        9.539059   -4.873387   15.616719 H         5 CO2         0.157700 
     71 ****        9.163258   -3.290214   14.854494 H         5 CO2         0.134300 
     72 ****       12.280500   -5.466541   14.752075 H         5 CO2         0.148100 
     73 ****       11.963655   -6.088979   13.102314 H         5 CO2         0.105800 
     74 ****       10.895469   -6.553295   14.451471 H         5 CO2         0.138600 
@<TRIPOS>BOND
     1   27   32 1    
     2   30   31 ar   
     3   30   35 ar   
     4   30   63 1    
     5   35    4 ar   
     6   35   34 ar   
     7   34    1 ar   
     8   38    5 1    
     9   39    6 1    
    10   39    7 1    
    11   41    8 1    
    12   42    9 1    
    13   44   10 1    
    14   45   11 1    
    15   48   12 1    
    16   49   13 1    
    17   49   14 1    
    18   50   15 1    
    19   50   16 1    
    20   52   17 1    
    21   52   18 1    
    22   53   19 1    
    23   53   20 1    
    24   54   21 1    
    25   22   57 2    
    26   55   23 1    
    27   55   24 1    
    28   56   25 1    
    29   56   26 1    
    30   34   33 ar   
    31   27   29 2    
    32   27   28 2    
    33   33   32 ar   
    34   33   65 1    
    35   32   31 ar   
    36   31   64 1    
    37    1    2 ar   
    38    1   36 1    
    39   37   47 2    
    40   38   37 1    
    41   38   48 1    
    42   39   38 1    
    43   40   39 1    
    44   40   42 ar   
    45   41   40 ar   
    46   43   41 ar   
    47   46   43 1    
    48   43   45 ar   
    49   45   44 ar   
    50   44   42 ar   
    51   46   50 ar   
    52   46   49 ar   
    53   51   56 1    
    54   52   51 1    
    55   53   52 1    
    56   54   53 1    
    57   54   55 1    
    58   55   56 1    
    59   37   51 am   
    60   48   27 1    
    61   22   58 1    
    62   54   22 1    
    63   58   59 1    
    64    2    3 ar   
    65    2   60 1    
    66    3    4 ar   
    67    3   61 1    
    68    4   62 1    
    69   59   66 1    
    70   59   67 1    
    71   59   68 1    
    72   66   69 1    
    73   66   70 1    
    74   66   71 1    
    75   68   72 1    
    76   68   73 1    
    77   68   74 1    
@<TRIPOS>SUBSTRUCTURE
     1 TOS1       27 GROUP             0 I     ****    2  
     2 APM2       37 GROUP             0 I     ****    2 ROOT 
     3 PIP3       51 GROUP             0 I     ****    2  
     4 NAPHTHALENE    30 PERM              0 ****  ****    1  
     5 CO2        22 PERM              0 ****  ****    1  
@<TRIPOS>SET
UNK_ATOMS       STATIC     ATOMS    AMSOM    **** 
30 27 28 29 0 0 0 0 0 0 0 37 38 39 40 41 42 43 44 45 \
 46 47 48 49 50 51 52 53 54 55 56
LAB$B_TYPE      STATIC     BONDS    LABELGROUP SYSTEM 
0
@<TRIPOS>NORMAL
@<TRIPOS>FF_PBC
FORCE_FIELD_SETUP_FEATURE Force Field Setup information
v1.0  0 0.000000 0.000000 0.000000 0.000000 0.000000 0.000000 NONE 0 0 0 0 0 0 0 0 0 0 0 0 0
