#	Name:			87
#	Creating user name:	jeff
#	Creation time:		Fri Dec 13 10:13:03 2002

#	Modifying user name:	jeff
#	Modification time:	Fri Dec 13 10:13:05 2002

@<TRIPOS>MOLECULE
87
   73    74     2     1     1
SMALL
USER_CHARGES


@<TRIPOS>ATOM
      1 C1          3.878226   -7.971377   13.732572 C.3       1 TOS1        0.304500 
      2 ****        5.208113   -5.794723   14.520676 H         1 TOS1        0.227900 
      3 C3          7.746290   -4.956974   14.959241 C.3       1 TOS1        0.143400 
      4 C4          8.877937   -9.580612   13.378254 C.3       1 TOS1        0.358900 
      5 ****        9.212883   -7.005970   13.863669 H         1 TOS1        0.237800 
      6 ****        3.579933   -8.833802   13.131715 H         1 TOS1       -0.020500 
      7 C7          8.638113   -4.112344   14.029375 C.3       1 TOS1       -0.298300 
      8 ****        6.803145   -9.257505   10.193589 H         2 APM2        0.076300 
      9 ****        5.267360  -10.578112    8.535931 H         2 APM2        0.149800 
     10 ****        6.185077   -9.219816    7.855501 H         2 APM2        0.102600 
     11 ****        2.796364  -10.456201    8.411625 H         2 APM2        0.202800 
     12 ****        5.141199   -6.998432    7.437584 H         2 APM2        0.200100 
     13 ****        3.081867   -5.719622    6.969184 H         2 APM2        0.202000 
     14 ****        0.872744   -6.778892    7.253735 H         2 APM2        0.159600 
     15 ****        3.964781   -9.788755   10.880515 H         2 APM2        0.331500 
     16 ****       -1.602215   -9.330065    7.112583 H         2 APM2        0.574000 
     17 ****       -0.537857   -8.030122    6.559236 H         2 APM2        0.556700 
     18 ****        0.921432  -10.918107    9.022494 H         2 APM2        0.546000 
     19 ****       -0.758863  -10.999720    8.473399 H         2 APM2        0.573900 
     20 N20         6.481554   -6.641091    9.971920 N.am      2 APM2       -0.743400 
     21 ****        7.426282   -6.926458    9.793146 H         2 APM2        0.450100 
     22 C22         6.190489   -5.211697   10.044349 C.3       2 APM2       -0.004200 
     23 ****        6.817836   -4.741078   10.816837 H         2 APM2        0.077200 
     24 ****        5.133256   -5.017300   10.295849 H         2 APM2        0.120300 
     25 ****        6.403526   -4.735886    9.074476 H         2 APM2        0.065500 
     26 S           5.734025  -10.283612   12.499863 S.o2      1 TOS1        2.317000 
     27 O1          6.781086  -11.144802   12.000150 O.2       1 TOS1       -0.943000 
     28 O2          4.735522  -10.882757   13.366926 O.2       1 TOS1       -0.963800 
     29 C1          6.355084   -8.764847   13.281699 C.ar      1 TOS1       -0.838900 
     30 C2          5.426669   -7.785444   13.706470 C.ar      1 TOS1        0.463500 
     31 C3          5.902531   -6.562994   14.201527 C.ar      1 TOS1       -0.583400 
     32 C4          7.264435   -6.282735   14.323542 C.ar      1 TOS1        0.353900 
     33 C5          8.160144   -7.258468   13.886058 C.ar      1 TOS1       -0.396600 
     34 C6          7.732686   -8.535926   13.498362 C.ar      1 TOS1        0.114800 
     35 C39         8.480645   -5.278678   16.285603 C.3       1 TOS1       -0.342000 
     36 C           5.490020   -7.546769   10.122931 C.2       2 APM2        0.622700 
     37 CA          5.748646   -9.026325    9.992246 C.3       2 APM2        0.271400 
     38 CB          5.375479   -9.484091    8.552549 C.3       2 APM2       -0.344800 
     39 CG          4.094403   -8.783980    8.068446 C.ar      2 APM2        0.156300 
     40 CD1         2.846142   -9.414449    8.115297 C.ar      2 APM2       -0.132400 
     41 CD2         4.176123   -7.471766    7.580810 C.ar      2 APM2       -0.068000 
     42 CE1         1.675712   -8.722506    7.779154 C.ar      2 APM2       -0.378100 
     43 CE2         3.014548   -6.755210    7.290973 C.ar      2 APM2       -0.181800 
     44 CZ          1.767673   -7.369410    7.422957 C.ar      2 APM2       -0.047300 
     45 CF          0.322989   -9.409137    7.789582 C.cat     2 APM2        1.134600 
     46 O           4.332936   -7.250729   10.326648 O.2       2 APM2       -0.573400 
     47 N           4.949648   -9.681457   11.023865 N.am      2 APM2       -0.947600 
     48 NG1        -0.672498   -8.886672    7.113893 N.pl3     2 APM2       -1.059500 
     49 NG2         0.151530  -10.516181    8.468779 N.pl3     2 APM2       -1.015100 
     50 ****        6.877602   -4.325738   15.198729 H         1 TOS1        0.048900 
     51 C64         2.991636   -6.800557   13.203165 C.3       1 TOS1       -0.340800 
     52 C65         3.463608   -8.244699   15.203674 C.3       1 TOS1       -0.377500 
     53 ****        8.502443  -10.598290   13.271448 H         1 TOS1        0.044000 
     54 C67         9.694700   -9.702122   14.697456 C.3       1 TOS1       -0.379800 
     55 C68         9.805918   -9.277730   12.168990 C.3       1 TOS1       -0.402100 
     56 ****        9.526418   -4.679912   13.744505 H         1 TOS1        0.081100 
     57 ****        8.966253   -3.173403   14.497798 H         1 TOS1        0.103900 
     58 ****        8.047744   -3.875926   13.140397 H         1 TOS1        0.044600 
     59 ****        7.797622   -5.845024   16.944506 H         1 TOS1        0.075400 
     60 ****        8.765197   -4.338659   16.790064 H         1 TOS1        0.111500 
     61 ****        9.395996   -5.879739   16.128170 H         1 TOS1        0.089900 
     62 ****        3.118249   -5.855292   13.743233 H         1 TOS1        0.101000 
     63 ****        1.929248   -7.073104   13.293207 H         1 TOS1        0.075200 
     64 ****        3.160178   -6.583748   12.149570 H         1 TOS1        0.069400 
     65 ****        4.031618   -9.092185   15.615681 H         1 TOS1        0.090900 
     66 ****        2.389467   -8.481168   15.273379 H         1 TOS1        0.099100 
     67 ****        3.658070   -7.357627   15.828117 H         1 TOS1        0.095800 
     68 ****       10.192871   -8.767823   14.989355 H         1 TOS1        0.097500 
     69 ****       10.477988  -10.470129   14.589334 H         1 TOS1        0.106300 
     70 ****        9.029051  -10.007574   15.520808 H         1 TOS1        0.086500 
     71 ****        9.223181   -9.273348   11.236813 H         1 TOS1        0.065100 
     72 ****       10.588146  -10.047067   12.082230 H         1 TOS1        0.129100 
     73 ****       10.309688   -8.305714   12.263376 H         1 TOS1        0.094100 
@<TRIPOS>BOND
     1   30    1 1    
     2   31    2 1    
     3   32    3 1    
     4   34    4 1    
     5   33    5 1    
     6    1    6 1    
     7    3    7 1    
     8   37    8 1    
     9   38    9 1    
    10   38   10 1    
    11   40   11 1    
    12   41   12 1    
    13   43   13 1    
    14   44   14 1    
    15   47   15 1    
    16   48   16 1    
    17   48   17 1    
    18   49   18 1    
    19   49   19 1    
    20   36   20 am   
    21   20   21 1    
    22   20   22 1    
    23   22   23 1    
    24   22   24 1    
    25   22   25 1    
    26   29   26 1    
    27   26   28 2    
    28   26   27 2    
    29   29   34 ar   
    30   30   29 ar   
    31   31   30 ar   
    32   32   31 ar   
    33    3   35 1    
    34   32   33 ar   
    35   33   34 ar   
    36   36   46 2    
    37   37   36 1    
    38   37   47 1    
    39   38   37 1    
    40   39   38 1    
    41   39   41 ar   
    42   40   39 ar   
    43   42   40 ar   
    44   45   42 1    
    45   42   44 ar   
    46   44   43 ar   
    47   43   41 ar   
    48   45   49 ar   
    49   45   48 ar   
    50   47   26 1    
    51    3   50 1    
    52    1   51 1    
    53    1   52 1    
    54    4   53 1    
    55    4   54 1    
    56    4   55 1    
    57    7   56 1    
    58    7   57 1    
    59    7   58 1    
    60   35   59 1    
    61   35   60 1    
    62   35   61 1    
    63   51   62 1    
    64   51   63 1    
    65   51   64 1    
    66   52   65 1    
    67   52   66 1    
    68   52   67 1    
    69   54   68 1    
    70   54   69 1    
    71   54   70 1    
    72   55   71 1    
    73   55   72 1    
    74   55   73 1    
@<TRIPOS>SUBSTRUCTURE
     1 TOS1       26 GROUP             0 I     ****    1  
     2 APM2       36 GROUP             0 I     ****    1 ROOT 
@<TRIPOS>SET
UNK_ATOMS       STATIC     ATOMS    AMSOM    **** 
30 26 27 28 29 30 31 32 33 34 0 36 37 38 39 40 41 42 43 44 \
 45 46 47 48 49 0 0 0 0 0 0
@<TRIPOS>NORMAL
@<TRIPOS>FF_PBC
FORCE_FIELD_SETUP_FEATURE Force Field Setup information
v1.0  0 0.000000 0.000000 0.000000 0.000000 0.000000 0.000000 NONE 0 0 0 0 0 0 0 0 0 0 0 0 0
