#	Name:			88
#	Creating user name:	jeff
#	Creation time:		Fri Dec 13 10:13:05 2002

#	Modifying user name:	jeff
#	Modification time:	Fri Dec 13 10:13:07 2002

@<TRIPOS>MOLECULE
88
   49    50     2     1     1
SMALL
USER_CHARGES


@<TRIPOS>ATOM
      1 ****        3.843914   -8.685206   14.036285 H         1 TOS1        0.192400 
      2 ****        4.050236   -6.523821   15.214924 H         1 TOS1        0.194700 
      3 ****        8.266003   -6.466389   14.350163 H         1 TOS1        0.211100 
      4 ****        8.049944   -8.628618   13.170710 H         1 TOS1        0.207800 
      5 ****        6.322760   -4.967085   15.532736 C.3       1 TOS1       -0.445200 
      6 ****        5.366356   -4.591651   15.926119 H         1 TOS1        0.133000 
      7 ****        6.712122   -4.234903   14.807460 H         1 TOS1        0.134600 
      8 ****        6.759724   -9.199905   10.405598 H         2 APM2        0.091000 
      9 ****        5.266241  -10.450510    8.663099 H         2 APM2        0.136000 
     10 ****        6.167172   -9.047472    8.089188 H         2 APM2        0.099300 
     11 ****        2.803720  -10.362334    8.523334 H         2 APM2        0.190700 
     12 ****        5.107221   -6.834029    7.747578 H         2 APM2        0.191000 
     13 ****        3.078600   -5.675949    6.960258 H         2 APM2        0.199300 
     14 ****        0.884617   -6.755917    7.140901 H         2 APM2        0.158200 
     15 ****        4.023479  -10.036020   11.036728 H         2 APM2        0.353200 
     16 ****       -1.591151   -9.381838    7.047280 H         2 APM2        0.565300 
     17 ****       -0.545553   -8.089362    6.454139 H         2 APM2        0.552300 
     18 ****        0.860434  -10.843581    9.102354 H         2 APM2        0.536400 
     19 ****       -0.782609  -10.963199    8.467229 H         2 APM2        0.572000 
     20 N20         6.268107   -6.618884   10.132855 N.am      2 APM2       -0.758800 
     21 ****        7.086504   -6.868878    9.614104 H         2 APM2        0.455300 
     22 C22         6.032567   -5.201118   10.396912 C.3       2 APM2       -0.067300 
     23 ****        6.876428   -4.789113   10.976265 H         2 APM2        0.111100 
     24 ****        5.105255   -5.028820   10.965086 H         2 APM2        0.113000 
     25 ****        5.955829   -4.661508    9.437548 H         2 APM2        0.091700 
     26 S           5.745456  -10.354420   12.671818 S.o2      1 TOS1        2.193500 
     27 O1          7.060778  -10.883649   12.373571 O.2       1 TOS1       -0.905000 
     28 O2          4.809821  -11.176430   13.408121 O.2       1 TOS1       -0.946300 
     29 C1          5.930564   -8.807703   13.528907 C.ar      1 TOS1       -0.433700 
     30 C2          4.810724   -8.200010   14.103210 C.ar      1 TOS1       -0.084800 
     31 C3          4.929583   -6.972731   14.764523 C.ar      1 TOS1       -0.230400 
     32 C4          6.171865   -6.331272   14.844627 C.ar      1 TOS1        0.335200 
     33 C5          7.293011   -6.945540   14.276366 C.ar      1 TOS1       -0.289200 
     34 C6          7.172089   -8.171471   13.615388 C.ar      1 TOS1       -0.098500 
     35 ****        7.033210   -5.053102   16.366547 H         1 TOS1        0.140600 
     36 C           5.407212   -7.565501   10.564617 C.2       2 APM2        0.694200 
     37 CA          5.691260   -9.009739   10.241334 C.3       2 APM2        0.143400 
     38 CB          5.351874   -9.358813    8.761639 C.3       2 APM2       -0.265100 
     39 CG          4.074624   -8.667736    8.248473 C.ar      2 APM2        0.069600 
     40 CD1         2.836820   -9.323198    8.221187 C.ar      2 APM2       -0.088200 
     41 CD2         4.154709   -7.352180    7.779480 C.ar      2 APM2       -0.031500 
     42 CE1         1.665444   -8.670217    7.806904 C.ar      2 APM2       -0.384300 
     43 CE2         3.005595   -6.690277    7.344672 C.ar      2 APM2       -0.186100 
     44 CZ          1.764763   -7.330540    7.406951 C.ar      2 APM2       -0.027000 
     45 CF          0.315846   -9.381884    7.783123 C.cat     2 APM2        1.087900 
     46 O           4.399966   -7.308181   11.205244 O.2       2 APM2       -0.603100 
     47 N           4.989265   -9.842666   11.202790 N.am      2 APM2       -0.875400 
     48 NG1        -0.667566   -8.918741    7.051251 N.pl3     2 APM2       -1.025900 
     49 NG2         0.122256  -10.465861    8.494186 N.pl3     2 APM2       -0.986300 
@<TRIPOS>BOND
     1   30    1 1    
     2   31    2 1    
     3   33    3 1    
     4   34    4 1    
     5   32    5 1    
     6    5    6 1    
     7    5    7 1    
     8   37    8 1    
     9   38    9 1    
    10   38   10 1    
    11   40   11 1    
    12   41   12 1    
    13   43   13 1    
    14   44   14 1    
    15   47   15 1    
    16   48   16 1    
    17   48   17 1    
    18   49   18 1    
    19   49   19 1    
    20   36   20 am   
    21   20   21 1    
    22   20   22 1    
    23   22   23 1    
    24   22   24 1    
    25   22   25 1    
    26   29   26 1    
    27   26   28 2    
    28   26   27 2    
    29   29   34 ar   
    30   30   29 ar   
    31   31   30 ar   
    32   32   31 ar   
    33    5   35 1    
    34   32   33 ar   
    35   33   34 ar   
    36   36   46 2    
    37   37   36 1    
    38   37   47 1    
    39   38   37 1    
    40   39   38 1    
    41   39   41 ar   
    42   40   39 ar   
    43   42   40 ar   
    44   45   42 1    
    45   42   44 ar   
    46   44   43 ar   
    47   43   41 ar   
    48   45   49 ar   
    49   45   48 ar   
    50   47   26 1    
@<TRIPOS>SUBSTRUCTURE
     1 TOS1       26 GROUP             0 I     ****    1  
     2 APM2       36 GROUP             0 I     ****    1 ROOT 
@<TRIPOS>SET
UNK_ATOMS       STATIC     ATOMS    AMSOM    **** 
30 26 27 28 29 30 31 32 33 34 0 36 37 38 39 40 41 42 43 44 \
 45 46 47 48 49 0 0 0 0 0 0
@<TRIPOS>NORMAL
@<TRIPOS>FF_PBC
FORCE_FIELD_SETUP_FEATURE Force Field Setup information
v1.0  0 0.000000 0.000000 0.000000 0.000000 0.000000 0.000000 NONE 0 0 0 0 0 0 0 0 0 0 0 0 0
