#	Name:			COO_24C
#	Creating user name:	jeff
#	Creation time:		Wed Dec 11 13:20:52 2002

#	Modifying user name:	jeff
#	Modification time:	Wed Dec 11 13:20:52 2002

@<TRIPOS>MOLECULE
COO_24C
   71    74     1     0     3
SMALL
USER_CHARGES
****
From 3DB ct
@<TRIPOS>ATOM
      1 N           3.817000   -0.966000    0.281000 N.am      1 <1>        -0.619400 
      2 C           5.202000   -1.040000   -0.151000 C.3       1 <1>         0.350100 
      3 H           5.219000   -1.342000   -1.212000 H         1 <1>         0.007000 
      4 C           5.713000    0.436000    0.007000 C.3       1 <1>        -0.402500 
      5 H           6.460000    0.526000    0.811000 H         1 <1>         0.174700 
      6 H           6.139000    0.830000   -0.930000 H         1 <1>         0.059800 
      7 C           4.482000    1.247000    0.415000 C.ar      1 <1>         0.107000 
      8 C           3.403000    0.388000    0.640000 C.ar      1 <1>         0.247600 
      9 C           2.205000    0.950000    1.123000 C.ar      1 <1>        -0.222700 
     10 H           1.308000    0.446000    1.423000 H         1 <1>         0.142400 
     11 C           2.122000    2.343000    1.258000 C.ar      1 <1>        -0.180400 
     12 H           1.191000    2.792000    1.595000 H         1 <1>         0.143700 
     13 C           3.203000    3.184000    0.975000 C.ar      1 <1>        -0.224900 
     14 H           3.103000    4.260000    1.082000 H         1 <1>         0.116200 
     15 C           4.414000    2.632000    0.556000 C.ar      1 <1>        -0.250600 
     16 H           5.277000    3.257000    0.347000 H         1 <1>         0.159500 
     17 C           6.025000   -2.020000    0.659000 C.2       1 <1>         0.704600 
     18 O           7.191000   -2.216000    0.356000 O.2       1 <1>        -0.990900 
     19 O           5.469000   -2.618000    1.709000 O.3       1 <1>        -0.927700 
     20 C           3.001000   -2.033000    0.345000 C.2       1 <1>         0.691700 
     21 O           3.359000   -3.169000    0.041000 O.2       1 <1>        -0.618500 
     22 C           1.541000   -1.910000    0.551000 C.3       1 <1>         0.089700 
     23 H           1.283000   -1.135000   -0.182000 H         1 <1>         0.009500 
     24 H           1.348000   -1.636000    1.596000 H         1 <1>         0.063300 
     25 C           0.761000   -3.192000    0.180000 C.3       1 <1>        -0.319400 
     26 H           1.337000   -3.888000   -0.451000 H         1 <1>         0.105800 
     27 H          -0.092000   -2.955000   -0.479000 H         1 <1>         0.090700 
     28 C           0.276000   -3.816000    1.523000 C.3       1 <1>         0.282500 
     29 H           1.056000   -3.815000    2.304000 H         1 <1>         0.044900 
     30 N          -0.877000   -2.981000    1.927000 N.am      1 <1>        -0.993700 
     31 H          -1.299000   -2.410000    1.269000 H         1 <1>         0.466600 
     32 C          -1.484000   -2.928000    3.131000 C.2       1 <1>         0.816100 
     33 O          -0.934000   -3.280000    4.163000 O.2       1 <1>        -0.611200 
     34 C          -2.964000   -2.499000    3.122000 C.3       1 <1>         0.079700 
     35 H          -3.047000   -1.431000    3.384000 H         1 <1>         0.110700 
     36 N          -3.766000   -2.834000    1.934000 N.am      1 <1>        -0.890300 
     37 H          -3.654000   -3.724000    1.495000 H         1 <1>         0.498700 
     38 C          -4.706000   -2.006000    1.410000 C.2       1 <1>         1.099700 
     39 O          -5.015000   -0.901000    1.828000 O.2       1 <1>        -0.770600 
     40 O          -5.200000   -2.552000    0.278000 O.3       1 <1>        -0.450900 
     41 C          -5.386000   -1.613000   -0.799000 C.3       1 <1>        -0.049700 
     42 H          -5.644000   -2.175000   -1.709000 H         1 <1>         0.114800 
     43 H          -6.217000   -0.934000   -0.554000 H         1 <1>         0.101000 
     44 C          -4.102000   -0.802000   -1.051000 C.ar      1 <1>         0.042100 
     45 C          -2.898000   -1.184000   -0.449000 C.ar      1 <1>        -0.146500 
     46 H          -2.833000   -2.177000   -0.082000 H         1 <1>         0.218600 
     47 C          -1.765000   -0.371000   -0.555000 C.ar      1 <1>        -0.148400 
     48 H          -0.848000   -0.630000   -0.067000 H         1 <1>         0.162500 
     49 C          -1.829000    0.822000   -1.278000 C.ar      1 <1>        -0.129100 
     50 H          -0.951000    1.455000   -1.365000 H         1 <1>         0.132600 
     51 C          -3.027000    1.202000   -1.890000 C.ar      1 <1>        -0.164300 
     52 H          -3.078000    2.129000   -2.453000 H         1 <1>         0.124500 
     53 C          -4.160000    0.391000   -1.780000 C.ar      1 <1>        -0.210100 
     54 H          -5.087000    0.689000   -2.259000 H         1 <1>         0.149900 
     55 C          -3.727000   -3.401000    4.109000 C.3       1 <1>        -0.334000 
     56 H          -3.478000   -3.033000    5.119000 H         1 <1>         0.105400 
     57 H          -4.823000   -3.338000    3.998000 H         1 <1>         0.114100 
     58 C          -3.250000   -4.863000    4.028000 C.ar      1 <1>         0.124300 
     59 C          -3.688000   -5.634000    5.112000 C.ar      1 <1>        -0.235300 
     60 H          -4.425000   -5.244000    5.808000 H         1 <1>         0.149000 
     61 C          -3.183000   -6.922000    5.320000 C.ar      1 <1>        -0.189900 
     62 H          -3.546000   -7.519000    6.151000 H         1 <1>         0.123400 
     63 C          -2.208000   -7.439000    4.464000 C.ar      1 <1>        -0.144600 
     64 H          -1.785000   -8.422000    4.651000 H         1 <1>         0.121800 
     65 C          -1.787000   -6.688000    3.364000 C.ar      1 <1>        -0.218200 
     66 H          -1.067000   -7.132000    2.695000 H         1 <1>         0.185400 
     67 C          -2.335000   -5.423000    3.128000 C.ar      1 <1>        -0.021300 
     68 H          -2.070000   -4.994000    2.189000 H         1 <1>         0.168000 
     69 C           0.079000   -5.243000    1.061000 C.2       1 <1>         0.726700 
     70 O          -0.597000   -5.527000    0.084000 O.2       1 <1>        -1.007700 
     71 O           0.788000   -6.164000    1.709000 O.3       1 <1>        -0.897900 
@<TRIPOS>BOND
     1    1    2 1    
     2    2    3 1    
     3    2    4 1    
     4    4    5 1    
     5    4    6 1    
     6    4    7 1    
     7    7    8 ar   
     8    8    1 1    
     9    8    9 ar   
    10    9   10 1    
    11    9   11 ar   
    12   11   12 1    
    13   11   13 ar   
    14   13   14 1    
    15   13   15 ar   
    16   15   16 1    
    17   15    7 ar   
    18    2   17 1    
    19   17   18 2    
    20   17   19 1    
    21    1   20 am   
    22   20   21 2    
    23   20   22 1    
    24   22   23 1    
    25   22   24 1    
    26   22   25 1    
    27   25   26 1    
    28   25   27 1    
    29   25   28 1    
    30   28   29 1    
    31   28   30 1    
    32   30   31 1    
    33   30   32 am   
    34   32   33 2    
    35   32   34 1    
    36   34   35 1    
    37   34   36 1    
    38   36   37 1    
    39   36   38 am   
    40   38   39 2    
    41   38   40 1    
    42   40   41 1    
    43   41   42 1    
    44   41   43 1    
    45   41   44 1    
    46   44   45 ar   
    47   45   46 1    
    48   45   47 ar   
    49   47   48 1    
    50   47   49 ar   
    51   49   50 1    
    52   49   51 ar   
    53   51   52 1    
    54   51   53 ar   
    55   53   54 1    
    56   53   44 ar   
    57   34   55 1    
    58   55   56 1    
    59   55   57 1    
    60   55   58 1    
    61   58   59 ar   
    62   59   60 1    
    63   59   61 ar   
    64   61   62 1    
    65   61   63 ar   
    66   63   64 1    
    67   63   65 ar   
    68   65   66 1    
    69   65   67 ar   
    70   67   68 1    
    71   67   58 ar   
    72   28   69 1    
    73   69   70 2    
    74   69   71 1    
@<TRIPOS>SUBSTRUCTURE
     1 ****        1 TEMP              0 ****  ****    0 ROOT 
@<TRIPOS>SET
UNITY_3DHIT     STATIC     ATOMS    <user>   **** Atoms matching 3D or FLEX Search
0
MATCH_ATOMS     DYNAMIC    ATOMS    <user>   **** 
(1,2,3,4,5,6,7,8,9,10,11,12,13,14,15,16,17,18,19,20,21,22,23,24,25,26,27,28,29,30,31,32,33,34,35,36,37,38,39,40,41,42,43,44,45,46,47,48,49,50,51,52,53,54,55,56,57,58,59,60,61,62,63,64,65,66,67,68,69,70,71,72,73,74,75,76,77,78,79,80,81,82,83,84,85,86,87)
ATOM$INVISIBLE  STATIC     ATOMS    DISPGROUP SYSTEM 
0
@<TRIPOS>UNITY_ATOM_ATTR
19 1
AtomExpr -1
71 1
AtomExpr -1
