#	Name:			COO_25E
#	Creating user name:	jeff
#	Creation time:		Wed Dec 11 13:20:52 2002

#	Modifying user name:	jeff
#	Modification time:	Wed Dec 11 13:20:52 2002

@<TRIPOS>MOLECULE
COO_25E
   71    74     1     0     3
SMALL
USER_CHARGES
****
From 3DB ct
@<TRIPOS>ATOM
      1 N           3.823000   -0.963000    0.279000 N.am      1 <1>        -0.464700 
      2 C           3.401000    0.391000    0.626000 C.3       1 <1>         0.011100 
      3 H           2.922000    0.807000   -0.279000 H         1 <1>         0.045900 
      4 C           4.766000    1.109000    0.843000 C.3       1 <1>         0.172000 
      5 H           4.674000    2.164000    0.521000 H         1 <1>        -0.039400 
      6 C           5.673000    0.438000   -0.209000 C.3       1 <1>        -0.480300 
      7 H           6.749000    0.564000   -0.014000 H         1 <1>         0.184600 
      8 H           5.447000    0.846000   -1.211000 H         1 <1>         0.065200 
      9 C           5.213000   -1.036000   -0.138000 C.3       1 <1>         0.232800 
     10 H           5.237000   -1.454000   -1.159000 H         1 <1>         0.022000 
     11 C           6.042000   -1.991000    0.675000 C.2       1 <1>         0.714900 
     12 O           7.199000   -2.218000    0.360000 O.2       1 <1>        -0.990800 
     13 O           5.477000   -2.623000    1.701000 O.3       1 <1>        -0.921900 
     14 C           5.276000    1.178000    2.320000 C.3       1 <1>        -0.031100 
     15 H           5.039000    2.168000    2.747000 H         1 <1>        -0.027400 
     16 H           6.372000    1.069000    2.353000 H         1 <1>         0.001800 
     17 C           4.604000    0.157000    3.268000 C.3       1 <1>        -0.045000 
     18 H           4.961000   -0.835000    2.994000 H         1 <1>         0.090600 
     19 H           4.937000    0.327000    4.307000 H         1 <1>        -0.044400 
     20 C           3.052000    0.194000    3.192000 C.3       1 <1>         0.030000 
     21 H           2.650000    0.804000    4.019000 H         1 <1>        -0.028200 
     22 H           2.673000   -0.830000    3.338000 H         1 <1>         0.071200 
     23 C           2.533000    0.796000    1.856000 C.3       1 <1>        -0.116500 
     24 H           2.598000    1.895000    1.941000 H         1 <1>         0.026000 
     25 H           1.459000    0.607000    1.716000 H         1 <1>         0.016800 
     26 C           3.009000   -2.032000    0.340000 C.2       1 <1>         0.636900 
     27 O           3.374000   -3.169000    0.045000 O.2       1 <1>        -0.645700 
     28 C           1.543000   -1.904000    0.550000 C.3       1 <1>         0.029100 
     29 H           1.301000   -1.106000   -0.161000 H         1 <1>         0.015700 
     30 H           1.321000   -1.591000    1.575000 H         1 <1>         0.113300 
     31 C           0.752000   -3.191000    0.185000 C.3       1 <1>        -0.512800 
     32 H           1.307000   -3.932000   -0.411000 H         1 <1>         0.178400 
     33 H          -0.120000   -2.933000   -0.438000 H         1 <1>         0.148000 
     34 C           0.247000   -3.823000    1.510000 C.3       1 <1>         0.302600 
     35 H           1.055000   -3.945000    2.250000 H         1 <1>         0.027500 
     36 N          -0.840000   -2.957000    2.008000 N.am      1 <1>        -0.806100 
     37 H          -1.056000   -2.099000    1.556000 H         1 <1>         0.384700 
     38 C          -1.648000   -3.329000    3.019000 C.2       1 <1>         0.764600 
     39 O          -1.340000   -4.240000    3.771000 O.2       1 <1>        -0.662700 
     40 C          -2.993000   -2.614000    3.152000 C.3       1 <1>        -0.066500 
     41 H          -2.916000   -1.556000    3.448000 H         1 <1>         0.098600 
     42 N          -3.805000   -2.883000    1.967000 N.am      1 <1>        -0.351600 
     43 C          -3.983000   -4.314000    1.718000 C.3       1 <1>         0.016800 
     44 H          -4.863000   -4.636000    1.137000 H         1 <1>         0.026300 
     45 H          -3.083000   -4.732000    1.245000 H         1 <1>         0.122300 
     46 C          -4.154000   -4.764000    3.199000 C.3       1 <1>        -0.028900 
     47 H          -3.431000   -5.562000    3.433000 H         1 <1>         0.101200 
     48 H          -5.163000   -5.160000    3.403000 H         1 <1>         0.015300 
     49 C          -3.902000   -3.484000    4.055000 C.3       1 <1>        -0.169900 
     50 H          -4.854000   -2.948000    4.217000 H         1 <1>         0.050600 
     51 H          -3.464000   -3.705000    5.042000 H         1 <1>         0.099200 
     52 C          -4.675000   -2.003000    1.400000 C.2       1 <1>         0.880900 
     53 O          -4.871000   -0.854000    1.765000 O.2       1 <1>        -0.688400 
     54 O          -5.199000   -2.545000    0.281000 O.3       1 <1>        -0.491100 
     55 C          -5.380000   -1.611000   -0.795000 C.3       1 <1>         0.066200 
     56 H          -5.643000   -2.171000   -1.704000 H         1 <1>         0.071600 
     57 H          -6.211000   -0.933000   -0.544000 H         1 <1>         0.083700 
     58 C          -4.089000   -0.805000   -1.042000 C.ar      1 <1>         0.121500 
     59 C          -2.865000   -1.175000   -0.486000 C.ar      1 <1>        -0.221700 
     60 H          -2.722000   -2.145000   -0.038000 H         1 <1>         0.223300 
     61 C          -1.755000   -0.345000   -0.630000 C.ar      1 <1>        -0.054100 
     62 H          -0.816000   -0.597000   -0.184000 H         1 <1>         0.151000 
     63 C          -1.867000    0.855000   -1.331000 C.ar      1 <1>        -0.188600 
     64 H          -1.003000    1.502000   -1.443000 H         1 <1>         0.151800 
     65 C          -3.091000    1.224000   -1.888000 C.ar      1 <1>        -0.089000 
     66 H          -3.179000    2.159000   -2.434000 H         1 <1>         0.115800 
     67 C          -4.202000    0.394000   -1.743000 C.ar      1 <1>        -0.316300 
     68 H          -5.151000    0.689000   -2.178000 H         1 <1>         0.155500 
     69 C          -0.337000   -5.169000    1.121000 C.2       1 <1>         0.750100 
     70 O          -0.908000   -5.379000    0.064000 O.2       1 <1>        -1.009700 
     71 O          -0.203000   -6.140000    2.021000 O.3       1 <1>        -0.938800 
@<TRIPOS>BOND
     1    1    2 1    
     2    2    3 1    
     3    2    4 1    
     4    4    5 1    
     5    4    6 1    
     6    6    7 1    
     7    6    8 1    
     8    6    9 1    
     9    9   10 1    
    10    9    1 1    
    11    9   11 1    
    12   11   12 2    
    13   11   13 1    
    14    4   14 1    
    15   14   15 1    
    16   14   16 1    
    17   14   17 1    
    18   17   18 1    
    19   17   19 1    
    20   17   20 1    
    21   20   21 1    
    22   20   22 1    
    23   20   23 1    
    24   23   24 1    
    25   23   25 1    
    26   23    2 1    
    27    1   26 am   
    28   26   27 2    
    29   26   28 1    
    30   28   29 1    
    31   28   30 1    
    32   28   31 1    
    33   31   32 1    
    34   31   33 1    
    35   31   34 1    
    36   34   35 1    
    37   34   36 1    
    38   36   37 1    
    39   36   38 am   
    40   38   39 2    
    41   38   40 1    
    42   40   41 1    
    43   40   42 1    
    44   42   43 1    
    45   43   44 1    
    46   43   45 1    
    47   43   46 1    
    48   46   47 1    
    49   46   48 1    
    50   46   49 1    
    51   49   50 1    
    52   49   51 1    
    53   49   40 1    
    54   42   52 am   
    55   52   53 2    
    56   52   54 1    
    57   54   55 1    
    58   55   56 1    
    59   55   57 1    
    60   55   58 1    
    61   58   59 ar   
    62   59   60 1    
    63   59   61 ar   
    64   61   62 1    
    65   61   63 ar   
    66   63   64 1    
    67   63   65 ar   
    68   65   66 1    
    69   65   67 ar   
    70   67   68 1    
    71   67   58 ar   
    72   34   69 1    
    73   69   70 2    
    74   69   71 1    
@<TRIPOS>SUBSTRUCTURE
     1 ****        1 TEMP              0 ****  ****    0 ROOT 
@<TRIPOS>SET
UNITY_3DHIT     STATIC     ATOMS    <user>   **** Atoms matching 3D or FLEX Search
0
MATCH_ATOMS     DYNAMIC    ATOMS    <user>   **** 
(1,2,3,4,5,6,7,8,9,10,11,12,13,14,15,16,17,18,19,20,21,22,23,24,25,26,27,28,29,30,31,32,33,34,35,36,37,38,39,40,41,42,43,44,45,46,47,48,49,50,51,52,53,54,55,56,57,58,59,60,61,62,63,64,65,66,67,68,69,70,71,72,73,74,75,76,77,78,79,80,81,82,83,84,85,86,87)
ATOM$INVISIBLE  STATIC     ATOMS    DISPGROUP SYSTEM 
0
@<TRIPOS>UNITY_ATOM_ATTR
13 1
AtomExpr -1
71 1
AtomExpr -1
