#	Name:			COO_26C
#	Creating user name:	jeff
#	Creation time:		Wed Dec 11 13:20:52 2002

#	Modifying user name:	jeff
#	Modification time:	Wed Dec 11 13:20:52 2002

@<TRIPOS>MOLECULE
COO_26C
   62    64     1     0     3
SMALL
USER_CHARGES
****
From 3DB ct
@<TRIPOS>ATOM
      1 N           3.831000   -0.961000    0.312000 N.am      1 <1>        -0.618600 
      2 C           3.418000    0.387000    0.692000 C.3       1 <1>         0.189400 
      3 H           2.811000    0.879000   -0.085000 H         1 <1>        -0.028900 
      4 C           4.786000    1.083000    0.953000 C.3       1 <1>         0.173300 
      5 H           4.674000    2.139000    0.640000 H         1 <1>        -0.027700 
      6 C           5.702000    0.435000   -0.104000 C.3       1 <1>        -0.412200 
      7 H           6.786000    0.536000    0.064000 H         1 <1>         0.176400 
      8 H           5.471000    0.868000   -1.094000 H         1 <1>         0.051300 
      9 C           5.226000   -1.036000   -0.088000 C.3       1 <1>         0.222200 
     10 H           5.256000   -1.424000   -1.121000 H         1 <1>         0.037500 
     11 C           6.046000   -1.997000    0.686000 C.2       1 <1>         0.692300 
     12 O           7.201000   -2.227000    0.368000 O.2       1 <1>        -0.958000 
     13 O           5.479000   -2.634000    1.707000 O.3       1 <1>        -0.919200 
     14 C           5.465000    1.205000    2.359000 C.3       1 <1>        -0.150600 
     15 H           5.111000    2.115000    2.875000 H         1 <1>         0.010000 
     16 H           6.557000    1.334000    2.261000 H         1 <1>         0.025100 
     17 C           5.155000    0.020000    3.290000 C.3       1 <1>         0.068100 
     18 H           5.832000   -0.804000    3.039000 H         1 <1>         0.070900 
     19 H           5.427000    0.299000    4.324000 H         1 <1>        -0.041400 
     20 C           3.642000   -0.350000    3.178000 C.3       1 <1>        -0.086400 
     21 H           3.187000   -0.234000    4.175000 H         1 <1>        -0.010500 
     22 H           3.553000   -1.415000    2.915000 H         1 <1>         0.098100 
     23 C           2.841000    0.525000    2.149000 C.3       1 <1>        -0.160100 
     24 H           2.885000    1.575000    2.479000 H         1 <1>         0.026000 
     25 H           1.770000    0.324000    2.215000 H         1 <1>         0.065600 
     26 C           3.006000   -2.023000    0.331000 C.2       1 <1>         0.749000 
     27 O           3.364000   -3.155000    0.008000 O.2       1 <1>        -0.635200 
     28 C           1.529000   -1.890000    0.549000 C.3       1 <1>        -0.092900 
     29 H           1.187000   -1.070000   -0.102000 H         1 <1>         0.066000 
     30 H           1.288000   -1.637000    1.584000 H         1 <1>         0.048900 
     31 C           0.725000   -3.165000    0.189000 C.3       1 <1>        -0.344700 
     32 H           1.260000   -3.816000   -0.522000 H         1 <1>         0.133900 
     33 H          -0.205000   -2.903000   -0.338000 H         1 <1>         0.127400 
     34 C           0.318000   -3.858000    1.520000 C.3       1 <1>         0.066200 
     35 H           1.285000   -3.909000    2.055000 H         1 <1>         0.124400 
     36 N          -0.608000   -3.361000    2.565000 N.am      1 <1>        -0.720700 
     37 H          -0.525000   -3.738000    3.491000 H         1 <1>         0.421900 
     38 C          -1.668000   -2.579000    2.265000 C.2       1 <1>         0.700400 
     39 O          -1.653000   -1.913000    1.241000 O.2       1 <1>        -0.574900 
     40 C          -2.968000   -2.490000    3.077000 C.3       1 <1>         0.225700 
     41 H          -3.110000   -1.436000    3.376000 H         1 <1>         0.035200 
     42 N          -3.802000   -2.811000    1.924000 N.4       1 <1>        -0.634300 
     43 H          -4.226000   -2.057000    1.418000 H         1 <1>         0.430400 
     44 H          -3.969000   -3.747000    1.608000 H         1 <1>         0.548900 
     45 H          -4.524000   -2.861000    2.458000 H         1 <1>         0.437400 
     46 C          -3.688000   -3.410000    4.108000 C.3       1 <1>        -0.336200 
     47 H          -3.375000   -3.041000    5.098000 H         1 <1>         0.128900 
     48 H          -4.787000   -3.327000    4.057000 H         1 <1>         0.112600 
     49 C          -3.251000   -4.882000    4.066000 C.ar      1 <1>         0.122900 
     50 C          -3.675000   -5.654000    5.155000 C.ar      1 <1>        -0.260400 
     51 H          -4.390000   -5.253000    5.867000 H         1 <1>         0.174500 
     52 C          -3.182000   -6.948000    5.340000 C.ar      1 <1>        -0.160700 
     53 H          -3.526000   -7.545000    6.179000 H         1 <1>         0.153100 
     54 C          -2.244000   -7.473000    4.447000 C.ar      1 <1>        -0.133100 
     55 H          -1.845000   -8.471000    4.603000 H         1 <1>         0.147200 
     56 C          -1.831000   -6.714000    3.349000 C.ar      1 <1>        -0.122400 
     57 H          -1.147000   -7.164000    2.644000 H         1 <1>         0.167500 
     58 C          -2.353000   -5.434000    3.145000 C.ar      1 <1>        -0.211100 
     59 H          -2.148000   -4.982000    2.196000 H         1 <1>         0.223300 
     60 C           0.148000   -5.304000    1.074000 C.2       1 <1>         0.921000 
     61 O          -0.464000   -5.690000    0.092000 O.2       1 <1>        -1.150700 
     62 O           0.809000   -6.193000    1.816000 O.3       1 <1>        -0.804600 
@<TRIPOS>BOND
     1    1    2 1    
     2    2    3 1    
     3    2    4 1    
     4    4    5 1    
     5    4    6 1    
     6    6    7 1    
     7    6    8 1    
     8    6    9 1    
     9    9   10 1    
    10    9    1 1    
    11    9   11 1    
    12   11   12 2    
    13   11   13 1    
    14    4   14 1    
    15   14   15 1    
    16   14   16 1    
    17   14   17 1    
    18   17   18 1    
    19   17   19 1    
    20   17   20 1    
    21   20   21 1    
    22   20   22 1    
    23   20   23 1    
    24   23   24 1    
    25   23   25 1    
    26   23    2 1    
    27    1   26 am   
    28   26   27 2    
    29   26   28 1    
    30   28   29 1    
    31   28   30 1    
    32   28   31 1    
    33   31   32 1    
    34   31   33 1    
    35   31   34 1    
    36   34   35 1    
    37   34   36 1    
    38   36   37 1    
    39   36   38 am   
    40   38   39 2    
    41   38   40 1    
    42   40   41 1    
    43   40   42 1    
    44   42   43 1    
    45   42   44 1    
    46   42   45 1    
    47   40   46 1    
    48   46   47 1    
    49   46   48 1    
    50   46   49 1    
    51   49   50 ar   
    52   50   51 1    
    53   50   52 ar   
    54   52   53 1    
    55   52   54 ar   
    56   54   55 1    
    57   54   56 ar   
    58   56   57 1    
    59   56   58 ar   
    60   58   59 1    
    61   58   49 ar   
    62   34   60 1    
    63   60   61 2    
    64   60   62 1    
@<TRIPOS>SUBSTRUCTURE
     1 ****        1 TEMP              0 ****  ****    0 ROOT 
@<TRIPOS>SET
UNITY_3DHIT     STATIC     ATOMS    <user>   **** Atoms matching 3D or FLEX Search
0
MATCH_ATOMS     DYNAMIC    ATOMS    <user>   **** 
(1,2,3,4,5,6,7,8,9,10,11,12,13,14,15,16,17,18,19,20,21,22,23,24,25,26,27,28,29,30,31,32,33,34,35,36,37,38,39,40,41,42,43,44,45,46,47,48,49,50,51,52,53,54,55,56,57,58,59,60,61,62,63,64,65,66,67,68,69,70,71,72,73,74,75,76,77,78,79,80,81,82,83,84,85,86,87)
ATOM$INVISIBLE  STATIC     ATOMS    DISPGROUP SYSTEM 
0
@<TRIPOS>UNITY_ATOM_ATTR
13 1
AtomExpr -1
42 1
AtomExpr +1
62 1
AtomExpr -1
