#	Name:			COO_25A
#	Creating user name:	jeff
#	Creation time:		Wed Dec 11 13:20:52 2002

#	Modifying user name:	jeff
#	Modification time:	Wed Dec 11 13:20:52 2002

@<TRIPOS>MOLECULE
COO_25A
   79    81     1     0     3
SMALL
USER_CHARGES
****
From 3DB ct
@<TRIPOS>ATOM
      1 N           3.821000   -0.963000    0.276000 N.am      1 <1>        -0.470100 
      2 C           3.398000    0.393000    0.618000 C.3       1 <1>        -0.164300 
      3 H           3.052000    0.801000   -0.349000 H         1 <1>         0.048500 
      4 C           4.767000    1.070000    0.940000 C.3       1 <1>         0.330500 
      5 H           4.733000    2.165000    0.793000 H         1 <1>        -0.018100 
      6 C           5.714000    0.426000   -0.094000 C.3       1 <1>        -0.622500 
      7 H           6.779000    0.519000    0.171000 H         1 <1>         0.192400 
      8 H           5.552000    0.906000   -1.075000 H         1 <1>         0.094000 
      9 C           5.214000   -1.036000   -0.134000 C.3       1 <1>         0.410300 
     10 H           5.254000   -1.405000   -1.173000 H         1 <1>        -0.015400 
     11 C           6.037000   -1.995000    0.675000 C.2       1 <1>         0.667100 
     12 O           7.193000   -2.223000    0.359000 O.2       1 <1>        -0.961000 
     13 O           5.478000   -2.616000    1.709000 O.3       1 <1>        -0.938800 
     14 C           5.205000    0.787000    2.404000 C.3       1 <1>        -0.194900 
     15 H           6.177000    1.269000    2.598000 H         1 <1>         0.015500 
     16 H           5.320000   -0.291000    2.579000 H         1 <1>         0.173500 
     17 C           4.148000    1.319000    3.404000 C.3       1 <1>        -0.104600 
     18 H           4.457000    1.098000    4.439000 H         1 <1>         0.038500 
     19 H           4.063000    2.414000    3.303000 H         1 <1>         0.025000 
     20 C           2.779000    0.650000    3.117000 C.3       1 <1>        -0.152100 
     21 H           2.022000    1.061000    3.807000 H         1 <1>         0.011900 
     22 H           2.842000   -0.438000    3.280000 H         1 <1>         0.135000 
     23 C           2.360000    0.935000    1.655000 C.3       1 <1>         0.022600 
     24 H           2.336000    2.033000    1.548000 H         1 <1>         0.030500 
     25 H           1.323000    0.632000    1.462000 H         1 <1>        -0.030400 
     26 C           3.007000   -2.031000    0.334000 C.2       1 <1>         0.567000 
     27 O           3.372000   -3.169000    0.043000 O.2       1 <1>        -0.632900 
     28 C           1.544000   -1.898000    0.546000 C.3       1 <1>         0.218400 
     29 H           1.303000   -1.116000   -0.185000 H         1 <1>         0.035600 
     30 H           1.370000   -1.557000    1.567000 H         1 <1>         0.019600 
     31 C           0.733000   -3.172000    0.194000 C.3       1 <1>        -0.434500 
     32 H           1.238000   -3.849000   -0.514000 H         1 <1>         0.162300 
     33 H          -0.216000   -2.885000   -0.282000 H         1 <1>         0.112700 
     34 C           0.322000   -3.854000    1.522000 C.3       1 <1>         0.397100 
     35 H           1.260000   -4.063000    2.065000 H         1 <1>         0.053700 
     36 N          -0.522000   -3.050000    2.419000 N.am      1 <1>        -1.151400 
     37 H          -0.150000   -2.348000    3.029000 H         1 <1>         0.486000 
     38 C          -1.833000   -3.277000    2.372000 C.2       1 <1>         0.780800 
     39 O          -2.203000   -4.208000    1.671000 O.2       1 <1>        -0.573200 
     40 C          -2.967000   -2.537000    3.072000 C.3       1 <1>         0.424400 
     41 H          -2.825000   -1.462000    3.265000 H         1 <1>         0.077500 
     42 N          -3.852000   -2.831000    1.951000 N.am      1 <1>        -1.023100 
     43 H          -3.924000   -3.776000    1.590000 H         1 <1>         0.459300 
     44 C          -4.713000   -1.976000    1.398000 C.2       1 <1>         1.096800 
     45 O          -4.942000   -0.833000    1.764000 O.2       1 <1>        -0.713000 
     46 O          -5.207000   -2.544000    0.278000 O.3       1 <1>        -0.491200 
     47 C          -5.383000   -1.614000   -0.800000 C.3       1 <1>        -0.009500 
     48 H          -5.637000   -2.181000   -1.708000 H         1 <1>         0.108600 
     49 H          -6.219000   -0.935000   -0.562000 H         1 <1>         0.119300 
     50 C          -4.093000   -0.809000   -1.042000 C.ar      1 <1>         0.010500 
     51 C          -4.189000    0.392000   -1.754000 C.ar      1 <1>        -0.191100 
     52 H          -5.134000    0.685000   -2.201000 H         1 <1>         0.152100 
     53 C          -3.075000    1.224000   -1.897000 C.ar      1 <1>        -0.162100 
     54 H          -3.158000    2.153000   -2.452000 H         1 <1>         0.144900 
     55 C          -1.854000    0.858000   -1.324000 C.ar      1 <1>        -0.121300 
     56 H          -0.987000    1.503000   -1.431000 H         1 <1>         0.150900 
     57 C          -1.752000   -0.338000   -0.608000 C.ar      1 <1>        -0.187200 
     58 H          -0.829000   -0.591000   -0.122000 H         1 <1>         0.170000 
     59 C          -2.868000   -1.169000   -0.466000 C.ar      1 <1>        -0.078500 
     60 H          -2.710000   -2.122000    0.009000 H         1 <1>         0.152200 
     61 C          -3.711000   -3.387000    4.134000 C.3       1 <1>        -0.549500 
     62 H          -3.399000   -2.968000    5.105000 H         1 <1>         0.146100 
     63 H          -4.810000   -3.303000    4.081000 H         1 <1>         0.149100 
     64 C          -3.254000   -4.868000    4.071000 C.3       1 <1>         0.180900 
     65 H          -2.161000   -4.836000    4.193000 H         1 <1>         0.064100 
     66 H          -3.533000   -5.420000    3.161000 H         1 <1>         0.082900 
     67 C          -3.786000   -5.683000    5.281000 C.3       1 <1>        -0.214200 
     68 H          -4.763000   -6.122000    5.020000 H         1 <1>         0.084900 
     69 H          -3.936000   -5.048000    6.170000 H         1 <1>         0.083700 
     70 C          -2.770000   -6.797000    5.659000 C.3       1 <1>        -0.021900 
     71 H          -3.276000   -7.527000    6.314000 H         1 <1>         0.074000 
     72 H          -1.934000   -6.356000    6.229000 H         1 <1>         0.109700 
     73 N          -2.207000   -7.465000    4.463000 N.4       1 <1>        -0.344600 
     74 H          -1.698000   -8.371000    4.766000 H         1 <1>         0.335100 
     75 H          -2.980000   -7.803000    3.786000 H         1 <1>         0.451400 
     76 H          -1.637000   -6.914000    4.037000 H         1 <1>         0.450200 
     77 C          -0.199000   -5.231000    1.106000 C.2       1 <1>         0.781800 
     78 O          -0.808000   -5.416000    0.066000 O.2       1 <1>        -0.927000 
     79 O           0.027000   -6.229000    1.959000 O.3       1 <1>        -1.012700 
@<TRIPOS>BOND
     1    1    2 1    
     2    2    3 1    
     3    2    4 1    
     4    4    5 1    
     5    4    6 1    
     6    6    7 1    
     7    6    8 1    
     8    6    9 1    
     9    9   10 1    
    10    9    1 1    
    11    9   11 1    
    12   11   12 2    
    13   11   13 1    
    14    4   14 1    
    15   14   15 1    
    16   14   16 1    
    17   14   17 1    
    18   17   18 1    
    19   17   19 1    
    20   17   20 1    
    21   20   21 1    
    22   20   22 1    
    23   20   23 1    
    24   23   24 1    
    25   23   25 1    
    26   23    2 1    
    27    1   26 am   
    28   26   27 2    
    29   26   28 1    
    30   28   29 1    
    31   28   30 1    
    32   28   31 1    
    33   31   32 1    
    34   31   33 1    
    35   31   34 1    
    36   34   35 1    
    37   34   36 1    
    38   36   37 1    
    39   36   38 am   
    40   38   39 2    
    41   38   40 1    
    42   40   41 1    
    43   40   42 1    
    44   42   43 1    
    45   42   44 am   
    46   44   45 2    
    47   44   46 1    
    48   46   47 1    
    49   47   48 1    
    50   47   49 1    
    51   47   50 1    
    52   50   51 ar   
    53   51   52 1    
    54   51   53 ar   
    55   53   54 1    
    56   53   55 ar   
    57   55   56 1    
    58   55   57 ar   
    59   57   58 1    
    60   57   59 ar   
    61   59   60 1    
    62   59   50 ar   
    63   40   61 1    
    64   61   62 1    
    65   61   63 1    
    66   61   64 1    
    67   64   65 1    
    68   64   66 1    
    69   64   67 1    
    70   67   68 1    
    71   67   69 1    
    72   67   70 1    
    73   70   71 1    
    74   70   72 1    
    75   70   73 1    
    76   73   74 1    
    77   73   75 1    
    78   73   76 1    
    79   34   77 1    
    80   77   78 2    
    81   77   79 1    
@<TRIPOS>SUBSTRUCTURE
     1 ****        1 TEMP              0 ****  ****    0 ROOT 
@<TRIPOS>SET
UNITY_3DHIT     STATIC     ATOMS    <user>   **** Atoms matching 3D or FLEX Search
0
MATCH_ATOMS     DYNAMIC    ATOMS    <user>   **** 
(1,2,3,4,5,6,7,8,9,10,11,12,13,14,15,16,17,18,19,20,21,22,23,24,25,26,27,28,29,30,31,32,33,34,35,36,37,38,39,40,41,42,43,44,45,46,47,48,49,50,51,52,53,54,55,56,57,58,59,60,61,62,63,64,65,66,67,68,69,70,71,72,73,74,75,76,77,78,79,80,81,82,83,84,85,86,87)
ATOM$INVISIBLE  STATIC     ATOMS    DISPGROUP SYSTEM 
0
@<TRIPOS>UNITY_ATOM_ATTR
13 1
AtomExpr -1
73 1
AtomExpr +1
79 1
AtomExpr -1
