#	Name:			COO_23J
#	Creating user name:	jeff
#	Creation time:		Wed Dec 11 13:20:52 2002

#	Modifying user name:	jeff
#	Modification time:	Wed Dec 11 13:20:52 2002

@<TRIPOS>MOLECULE
COO_23J
   57    58     1     0     3
SMALL
USER_CHARGES
****
From 3DB ct
@<TRIPOS>ATOM
      1 N           3.821000   -0.968000    0.281000 N.am      1 <1>        -0.467100 
      2 C           5.210000   -1.035000   -0.138000 C.3       1 <1>         0.047100 
      3 H           5.219000   -1.387000   -1.185000 H         1 <1>         0.042800 
      4 C           5.748000    0.384000   -0.054000 C.3       1 <1>        -0.154300 
      5 H           6.597000    0.444000    0.649000 H         1 <1>         0.081000 
      6 H           6.121000    0.720000   -1.038000 H         1 <1>         0.011800 
      7 C           4.610000    1.276000    0.431000 C.3       1 <1>        -0.072400 
      8 H           4.397000    2.068000   -0.310000 H         1 <1>        -0.011300 
      9 H           4.880000    1.781000    1.374000 H         1 <1>         0.100900 
     10 C           3.397000    0.384000    0.635000 C.3       1 <1>         0.001900 
     11 H           3.058000    0.400000    1.684000 H         1 <1>         0.074900 
     12 H           2.569000    0.724000   -0.009000 H         1 <1>         0.028400 
     13 C           6.035000   -2.005000    0.668000 C.2       1 <1>         0.776100 
     14 O           7.195000   -2.222000    0.357000 O.2       1 <1>        -0.992900 
     15 O           5.470000   -2.612000    1.709000 O.3       1 <1>        -0.944400 
     16 C           3.009000   -2.039000    0.336000 C.2       1 <1>         0.699900 
     17 O           3.376000   -3.174000    0.035000 O.2       1 <1>        -0.637100 
     18 C           1.538000   -1.903000    0.545000 C.3       1 <1>        -0.086400 
     19 H           1.320000   -1.214000   -0.278000 H         1 <1>         0.011500 
     20 H           1.269000   -1.422000    1.496000 H         1 <1>        -0.008300 
     21 C           0.731000   -3.191000    0.199000 C.3       1 <1>        -0.102100 
     22 H          -0.226000   -2.909000   -0.264000 H         1 <1>         0.041300 
     23 H           1.237000   -3.832000   -0.541000 H         1 <1>         0.067700 
     24 C           0.316000   -3.981000    1.477000 C.3       1 <1>         0.242800 
     25 H           1.246000   -4.166000    2.041000 H         1 <1>         0.016300 
     26 N          -0.611000   -3.218000    2.351000 N.am      1 <1>        -0.772000 
     27 H          -0.229000   -2.529000    2.970000 H         1 <1>         0.394600 
     28 C          -1.961000   -3.379000    2.300000 C.2       1 <1>         0.662100 
     29 O          -2.467000   -4.224000    1.578000 O.2       1 <1>        -0.621000 
     30 C          -2.951000   -2.516000    3.093000 C.3       1 <1>         0.276800 
     31 H          -2.531000   -1.509000    3.252000 H         1 <1>         0.057000 
     32 N          -4.117000   -2.492000    2.199000 N.am      1 <1>        -0.915000 
     33 H          -4.415000   -3.371000    1.820000 H         1 <1>         0.470300 
     34 C          -4.755000   -1.346000    1.865000 C.2       1 <1>         1.110700 
     35 O          -4.589000   -0.291000    2.455000 O.2       1 <1>        -0.714500 
     36 O          -5.622000   -1.373000    0.836000 O.3       1 <1>        -0.632600 
     37 C          -5.074000   -1.894000   -0.403000 C.3       1 <1>         0.233900 
     38 H          -4.720000   -2.934000   -0.377000 H         1 <1>         0.052700 
     39 H          -5.897000   -1.860000   -1.135000 H         1 <1>         0.059700 
     40 C          -3.954000   -0.936000   -0.843000 C.ar      1 <1>        -0.142200 
     41 C          -2.633000   -1.105000   -0.414000 C.ar      1 <1>        -0.086400 
     42 H          -2.372000   -1.980000    0.160000 H         1 <1>         0.176500 
     43 C          -1.662000   -0.147000   -0.721000 C.ar      1 <1>        -0.198100 
     44 H          -0.656000   -0.259000   -0.358000 H         1 <1>         0.180600 
     45 C          -2.005000    0.983000   -1.471000 C.ar      1 <1>        -0.073400 
     46 H          -1.251000    1.731000   -1.695000 H         1 <1>         0.127200 
     47 C          -3.317000    1.141000   -1.927000 C.ar      1 <1>        -0.231500 
     48 H          -3.578000    2.014000   -2.517000 H         1 <1>         0.136900 
     49 C          -4.284000    0.179000   -1.621000 C.ar      1 <1>        -0.079300 
     50 H          -5.295000    0.319000   -1.989000 H         1 <1>         0.146500 
     51 C          -3.309000   -3.182000    4.442000 C.3       1 <1>        -0.314200 
     52 H          -3.649000   -4.215000    4.274000 H         1 <1>         0.118100 
     53 H          -2.431000   -3.198000    5.104000 H         1 <1>         0.099300 
     54 H          -4.119000   -2.617000    4.928000 H         1 <1>         0.074000 
     55 C          -0.179000   -5.370000    1.115000 C.2       1 <1>         0.730900 
     56 O          -0.122000   -5.879000    0.008000 O.2       1 <1>        -0.937000 
     57 O          -0.681000   -6.063000    2.135000 O.3       1 <1>        -1.002800 
@<TRIPOS>BOND
     1    1    2 1    
     2    2    3 1    
     3    2    4 1    
     4    4    5 1    
     5    4    6 1    
     6    4    7 1    
     7    7    8 1    
     8    7    9 1    
     9    7   10 1    
    10   10   11 1    
    11   10   12 1    
    12   10    1 1    
    13    2   13 1    
    14   13   14 2    
    15   13   15 1    
    16    1   16 am   
    17   16   17 2    
    18   16   18 1    
    19   18   19 1    
    20   18   20 1    
    21   18   21 1    
    22   21   22 1    
    23   21   23 1    
    24   21   24 1    
    25   24   25 1    
    26   24   26 1    
    27   26   27 1    
    28   26   28 am   
    29   28   29 2    
    30   28   30 1    
    31   30   31 1    
    32   30   32 1    
    33   32   33 1    
    34   32   34 am   
    35   34   35 2    
    36   34   36 1    
    37   36   37 1    
    38   37   38 1    
    39   37   39 1    
    40   37   40 1    
    41   40   41 ar   
    42   41   42 1    
    43   41   43 ar   
    44   43   44 1    
    45   43   45 ar   
    46   45   46 1    
    47   45   47 ar   
    48   47   48 1    
    49   47   49 ar   
    50   49   50 1    
    51   49   40 ar   
    52   30   51 1    
    53   51   52 1    
    54   51   53 1    
    55   51   54 1    
    56   24   55 1    
    57   55   56 2    
    58   55   57 1    
@<TRIPOS>SUBSTRUCTURE
     1 ****        1 TEMP              0 ****  ****    0 ROOT 
@<TRIPOS>SET
UNITY_3DHIT     STATIC     ATOMS    <user>   **** Atoms matching 3D or FLEX Search
0
MATCH_ATOMS     DYNAMIC    ATOMS    <user>   **** 
(1,2,3,4,5,6,7,8,9,10,11,12,13,14,15,16,17,18,19,20,21,22,23,24,25,26,27,28,29,30,31,32,33,34,35,36,37,38,39,40,41,42,43,44,45,46,47,48,49,50,51,52,53,54,55,56,57,58,59,60,61,62,63,64,65,66,67,68,69,70,71,72,73,74,75,76,77,78,79,80,81,82,83,84,85,86,87)
ATOM$INVISIBLE  STATIC     ATOMS    DISPGROUP SYSTEM 
0
@<TRIPOS>UNITY_ATOM_ATTR
15 1
AtomExpr -1
57 1
AtomExpr -1
