#	Name:			COO_26A
#	Creating user name:	jeff
#	Creation time:		Wed Dec 11 13:20:52 2002

#	Modifying user name:	jeff
#	Modification time:	Wed Dec 11 13:20:52 2002

@<TRIPOS>MOLECULE
COO_26A
   64    65     1     0     3
SMALL
USER_CHARGES
****
From 3DB ct
@<TRIPOS>ATOM
      1 N           3.821000   -0.964000    0.278000 N.am      1 <1>        -0.478900 
      2 C           3.403000    0.391000    0.627000 C.3       1 <1>         0.112300 
      3 H           2.891000    0.808000   -0.257000 H         1 <1>        -0.024300 
      4 C           4.769000    1.113000    0.822000 C.3       1 <1>         0.110400 
      5 H           4.665000    2.162000    0.482000 H         1 <1>         0.018800 
      6 C           5.664000    0.435000   -0.234000 C.3       1 <1>        -0.373000 
      7 H           6.743000    0.563000   -0.053000 H         1 <1>         0.182700 
      8 H           5.427000    0.831000   -1.238000 H         1 <1>         0.073400 
      9 C           5.209000   -1.039000   -0.144000 C.3       1 <1>         0.064600 
     10 H           5.229000   -1.467000   -1.161000 H         1 <1>         0.086200 
     11 C           6.040000   -1.992000    0.673000 C.2       1 <1>         0.785200 
     12 O           7.197000   -2.218000    0.358000 O.2       1 <1>        -0.916900 
     13 O           5.476000   -2.621000    1.702000 O.3       1 <1>        -1.029400 
     14 C           5.307000    1.230000    2.285000 C.3       1 <1>        -0.266900 
     15 H           5.019000    2.210000    2.707000 H         1 <1>         0.040500 
     16 H           6.408000    1.191000    2.294000 H         1 <1>         0.077100 
     17 C           4.719000    0.183000    3.258000 C.3       1 <1>         0.061200 
     18 H           5.158000   -0.782000    3.006000 H         1 <1>         0.067300 
     19 H           5.044000    0.404000    4.290000 H         1 <1>        -0.015100 
     20 C           3.166000    0.111000    3.190000 C.3       1 <1>        -0.137100 
     21 H           2.728000    0.637000    4.056000 H         1 <1>        -0.044700 
     22 H           2.863000   -0.945000    3.268000 H         1 <1>         0.090600 
     23 C           2.582000    0.755000    1.901000 C.3       1 <1>         0.307400 
     24 H           2.629000    1.852000    2.017000 H         1 <1>        -0.082000 
     25 H           1.508000    0.548000    1.800000 H         1 <1>        -0.132900 
     26 C           3.005000   -2.031000    0.341000 C.2       1 <1>         0.611800 
     27 O           3.366000   -3.169000    0.044000 O.2       1 <1>        -0.622500 
     28 C           1.532000   -1.899000    0.559000 C.3       1 <1>         0.025400 
     29 H           1.184000   -1.071000   -0.080000 H         1 <1>         0.052300 
     30 H           1.331000   -1.650000    1.605000 H         1 <1>        -0.026500 
     31 C           0.726000   -3.174000    0.188000 C.3       1 <1>        -0.305500 
     32 H           1.234000   -3.860000   -0.508000 H         1 <1>         0.140700 
     33 H          -0.214000   -2.875000   -0.305000 H         1 <1>         0.087600 
     34 C           0.270000   -3.872000    1.493000 C.3       1 <1>         0.136400 
     35 H           1.192000   -4.103000    2.057000 H         1 <1>         0.197300 
     36 N          -0.671000   -3.166000    2.374000 N.am      1 <1>        -0.779100 
     37 H          -0.297000   -2.729000    3.196000 H         1 <1>         0.490500 
     38 C          -2.006000   -3.143000    2.118000 C.2       1 <1>         0.893200 
     39 O          -2.489000   -3.629000    1.108000 O.2       1 <1>        -0.628100 
     40 C          -2.958000   -2.481000    3.103000 C.3       1 <1>        -0.004600 
     41 H          -2.360000   -1.760000    3.688000 H         1 <1>         0.212200 
     42 N          -3.925000   -1.712000    2.323000 N.4       1 <1>        -0.562600 
     43 H          -4.212000   -0.803000    2.630000 H         1 <1>         0.488500 
     44 H          -4.360000   -2.140000    1.527000 H         1 <1>         0.474500 
     45 H          -3.273000   -1.362000    1.811000 H         1 <1>         0.460600 
     46 C          -3.738000   -3.399000    4.083000 C.3       1 <1>        -0.258800 
     47 H          -3.674000   -2.954000    5.094000 H         1 <1>         0.091800 
     48 H          -4.807000   -3.423000    3.815000 H         1 <1>         0.130900 
     49 C          -3.237000   -4.860000    4.081000 C.3       1 <1>        -0.132900 
     50 H          -3.598000   -5.202000    5.068000 H         1 <1>         0.079700 
     51 H          -2.137000   -4.849000    4.125000 H         1 <1>         0.118100 
     52 C          -3.760000   -5.929000    3.096000 C.3       1 <1>        -0.056600 
     53 H          -3.229000   -5.848000    2.136000 H         1 <1>         0.103800 
     54 H          -4.837000   -5.792000    2.907000 H         1 <1>         0.060100 
     55 C          -3.516000   -7.330000    3.744000 C.3       1 <1>         0.009000 
     56 H          -3.611000   -8.100000    2.959000 H         1 <1>         0.087200 
     57 H          -4.308000   -7.522000    4.489000 H         1 <1>         0.084000 
     58 N          -2.209000   -7.454000    4.449000 N.4       1 <1>        -0.357700 
     59 H          -2.037000   -8.490000    4.711000 H         1 <1>         0.343600 
     60 H          -1.392000   -7.187000    3.792000 H         1 <1>         0.427400 
     61 H          -2.200000   -6.938000    5.186000 H         1 <1>         0.454800 
     62 C          -0.305000   -5.246000    1.145000 C.2       1 <1>         0.776400 
     63 O          -0.496000   -5.805000    0.077000 O.2       1 <1>        -0.867000 
     64 O          -0.625000   -5.933000    2.239000 O.3       1 <1>        -1.012100 
@<TRIPOS>BOND
     1    1    2 1    
     2    2    3 1    
     3    2    4 1    
     4    4    5 1    
     5    4    6 1    
     6    6    7 1    
     7    6    8 1    
     8    6    9 1    
     9    9   10 1    
    10    9    1 1    
    11    9   11 1    
    12   11   12 2    
    13   11   13 1    
    14    4   14 1    
    15   14   15 1    
    16   14   16 1    
    17   14   17 1    
    18   17   18 1    
    19   17   19 1    
    20   17   20 1    
    21   20   21 1    
    22   20   22 1    
    23   20   23 1    
    24   23   24 1    
    25   23   25 1    
    26   23    2 1    
    27    1   26 am   
    28   26   27 2    
    29   26   28 1    
    30   28   29 1    
    31   28   30 1    
    32   28   31 1    
    33   31   32 1    
    34   31   33 1    
    35   31   34 1    
    36   34   35 1    
    37   34   36 1    
    38   36   37 1    
    39   36   38 am   
    40   38   39 2    
    41   38   40 1    
    42   40   41 1    
    43   40   42 1    
    44   42   43 1    
    45   42   44 1    
    46   42   45 1    
    47   40   46 1    
    48   46   47 1    
    49   46   48 1    
    50   46   49 1    
    51   49   50 1    
    52   49   51 1    
    53   49   52 1    
    54   52   53 1    
    55   52   54 1    
    56   52   55 1    
    57   55   56 1    
    58   55   57 1    
    59   55   58 1    
    60   58   59 1    
    61   58   60 1    
    62   58   61 1    
    63   34   62 1    
    64   62   63 2    
    65   62   64 1    
@<TRIPOS>SUBSTRUCTURE
     1 ****        1 TEMP              0 ****  ****    0 ROOT 
@<TRIPOS>SET
UNITY_3DHIT     STATIC     ATOMS    <user>   **** Atoms matching 3D or FLEX Search
0
MATCH_ATOMS     DYNAMIC    ATOMS    <user>   **** 
(1,2,3,4,5,6,7,8,9,10,11,12,13,14,15,16,17,18,19,20,21,22,23,24,25,26,27,28,29,30,31,32,33,34,35,36,37,38,39,40,41,42,43,44,45,46,47,48,49,50,51,52,53,54,55,56,57,58,59,60,61,62,63,64,65,66,67,68,69,70,71,72,73,74,75,76,77,78,79,80,81,82,83,84,85,86,87)
ATOM$INVISIBLE  STATIC     ATOMS    DISPGROUP SYSTEM 
0
@<TRIPOS>UNITY_ATOM_ATTR
13 1
AtomExpr -1
42 1
AtomExpr +1
58 1
AtomExpr +1
64 1
AtomExpr -1
