#	Name:			COO_23A
#	Creating user name:	jeff
#	Creation time:		Wed Dec 11 13:20:51 2002

#	Modifying user name:	jeff
#	Modification time:	Wed Dec 11 13:20:52 2002

@<TRIPOS>MOLECULE
COO_23A
   69    70     1     0     3
SMALL
USER_CHARGES
****
From 3DB ct
@<TRIPOS>ATOM
      1 N           3.821000   -0.967000    0.280000 N.am      1 <1>        -0.411300 
      2 C           5.211000   -1.035000   -0.138000 C.3       1 <1>         0.080900 
      3 H           5.221000   -1.387000   -1.183000 H         1 <1>         0.031700 
      4 C           5.749000    0.384000   -0.053000 C.3       1 <1>        -0.195300 
      5 H           6.596000    0.443000    0.651000 H         1 <1>         0.100300 
      6 H           6.124000    0.720000   -1.036000 H         1 <1>         0.021600 
      7 C           4.611000    1.276000    0.431000 C.3       1 <1>        -0.040300 
      8 H           4.399000    2.067000   -0.310000 H         1 <1>        -0.005600 
      9 H           4.880000    1.783000    1.375000 H         1 <1>         0.093900 
     10 C           3.397000    0.384000    0.634000 C.3       1 <1>         0.014500 
     11 H           3.060000    0.401000    1.684000 H         1 <1>         0.045700 
     12 H           2.570000    0.727000   -0.008000 H         1 <1>         0.029000 
     13 C           6.035000   -2.004000    0.669000 C.2       1 <1>         0.765100 
     14 O           7.194000   -2.223000    0.357000 O.2       1 <1>        -0.967600 
     15 O           5.471000   -2.613000    1.709000 O.3       1 <1>        -0.952000 
     16 C           3.009000   -2.038000    0.335000 C.2       1 <1>         0.687200 
     17 O           3.376000   -3.173000    0.034000 O.2       1 <1>        -0.658400 
     18 C           1.540000   -1.892000    0.538000 C.3       1 <1>        -0.376800 
     19 H           1.336000   -1.211000   -0.300000 H         1 <1>         0.048900 
     20 H           1.271000   -1.371000    1.467000 H         1 <1>         0.135100 
     21 C           0.720000   -3.168000    0.204000 C.3       1 <1>         0.332700 
     22 H           1.204000   -3.868000   -0.498000 H         1 <1>         0.012600 
     23 H          -0.218000   -2.859000   -0.283000 H         1 <1>        -0.047900 
     24 C           0.238000   -3.840000    1.517000 C.3       1 <1>        -0.087400 
     25 H           1.164000   -4.354000    1.839000 H         1 <1>         0.173100 
     26 N          -0.194000   -3.016000    2.702000 N.am      1 <1>        -0.857500 
     27 H           0.613000   -2.747000    3.244000 H         1 <1>         0.456400 
     28 C          -1.399000   -2.554000    3.255000 C.2       1 <1>         0.725700 
     29 O          -1.190000   -1.940000    4.294000 O.2       1 <1>        -0.707200 
     30 C          -2.959000   -2.505000    3.103000 C.3       1 <1>         0.313300 
     31 H          -3.226000   -1.460000    3.345000 H         1 <1>         0.077800 
     32 N          -3.741000   -2.842000    1.915000 N.am      1 <1>        -0.908000 
     33 H          -3.518000   -3.708000    1.459000 H         1 <1>         0.409800 
     34 C          -4.704000   -2.019000    1.407000 C.2       1 <1>         1.095000 
     35 O          -5.051000   -0.930000    1.838000 O.2       1 <1>        -0.742600 
     36 O          -5.191000   -2.560000    0.275000 O.3       1 <1>        -0.412400 
     37 C          -5.378000   -1.619000   -0.795000 C.3       1 <1>        -0.121100 
     38 H          -5.632000   -2.175000   -1.709000 H         1 <1>         0.135200 
     39 H          -6.215000   -0.948000   -0.544000 H         1 <1>         0.123100 
     40 C          -4.086000   -0.812000   -1.029000 C.ar      1 <1>         0.040600 
     41 C          -4.210000    0.393000   -1.731000 C.ar      1 <1>        -0.177900 
     42 H          -5.168000    0.686000   -2.151000 H         1 <1>         0.164500 
     43 C          -3.103000    1.229000   -1.899000 C.ar      1 <1>        -0.169200 
     44 H          -3.207000    2.161000   -2.447000 H         1 <1>         0.140700 
     45 C          -1.863000    0.868000   -1.365000 C.ar      1 <1>        -0.118500 
     46 H          -1.000000    1.511000   -1.511000 H         1 <1>         0.138500 
     47 C          -1.740000   -0.320000   -0.641000 C.ar      1 <1>        -0.201400 
     48 H          -0.797000   -0.566000   -0.189000 H         1 <1>         0.173800 
     49 C          -2.849000   -1.154000   -0.471000 C.ar      1 <1>        -0.096200 
     50 H          -2.667000   -2.088000    0.025000 H         1 <1>         0.155600 
     51 C          -3.721000   -3.393000    4.124000 C.3       1 <1>        -0.479000 
     52 H          -4.816000   -3.351000    3.990000 H         1 <1>         0.124900 
     53 H          -3.503000   -3.005000    5.134000 H         1 <1>         0.143500 
     54 C          -3.240000   -4.858000    4.044000 C.3       1 <1>         0.202800 
     55 H          -3.394000   -5.327000    3.060000 H         1 <1>         0.103700 
     56 H          -2.159000   -4.782000    4.232000 H         1 <1>         0.071400 
     57 C          -3.876000   -5.741000    5.151000 C.3       1 <1>        -0.285500 
     58 H          -4.173000   -5.148000    6.032000 H         1 <1>         0.110600 
     59 H          -4.784000   -6.224000    4.752000 H         1 <1>         0.086900 
     60 C          -2.853000   -6.808000    5.620000 C.3       1 <1>         0.052300 
     61 H          -2.072000   -6.327000    6.234000 H         1 <1>         0.111700 
     62 H          -3.374000   -7.547000    6.253000 H         1 <1>         0.052100 
     63 N          -2.206000   -7.464000    4.464000 N.4       1 <1>        -0.357600 
     64 H          -2.938000   -7.855000    3.770000 H         1 <1>         0.372000 
     65 H          -1.649000   -8.325000    4.811000 H         1 <1>         0.350500 
     66 H          -1.657000   -6.886000    4.045000 H         1 <1>         0.482800 
     67 C          -0.605000   -5.039000    1.133000 C.2       1 <1>         0.924000 
     68 O          -1.089000   -5.290000    0.040000 O.2       1 <1>        -0.919500 
     69 O          -0.824000   -5.884000    2.137000 O.3       1 <1>        -1.037400 
@<TRIPOS>BOND
     1    1    2 1    
     2    2    3 1    
     3    2    4 1    
     4    4    5 1    
     5    4    6 1    
     6    4    7 1    
     7    7    8 1    
     8    7    9 1    
     9    7   10 1    
    10   10   11 1    
    11   10   12 1    
    12   10    1 1    
    13    2   13 1    
    14   13   14 2    
    15   13   15 1    
    16    1   16 am   
    17   16   17 2    
    18   16   18 1    
    19   18   19 1    
    20   18   20 1    
    21   18   21 1    
    22   21   22 1    
    23   21   23 1    
    24   21   24 1    
    25   24   25 1    
    26   24   26 1    
    27   26   27 1    
    28   26   28 am   
    29   28   29 2    
    30   28   30 1    
    31   30   31 1    
    32   30   32 1    
    33   32   33 1    
    34   32   34 am   
    35   34   35 2    
    36   34   36 1    
    37   36   37 1    
    38   37   38 1    
    39   37   39 1    
    40   37   40 1    
    41   40   41 ar   
    42   41   42 1    
    43   41   43 ar   
    44   43   44 1    
    45   43   45 ar   
    46   45   46 1    
    47   45   47 ar   
    48   47   48 1    
    49   47   49 ar   
    50   49   50 1    
    51   49   40 ar   
    52   30   51 1    
    53   51   52 1    
    54   51   53 1    
    55   51   54 1    
    56   54   55 1    
    57   54   56 1    
    58   54   57 1    
    59   57   58 1    
    60   57   59 1    
    61   57   60 1    
    62   60   61 1    
    63   60   62 1    
    64   60   63 1    
    65   63   64 1    
    66   63   65 1    
    67   63   66 1    
    68   24   67 1    
    69   67   68 2    
    70   67   69 1    
@<TRIPOS>SUBSTRUCTURE
     1 ****        1 TEMP              0 ****  ****    0 ROOT 
@<TRIPOS>SET
UNITY_3DHIT     STATIC     ATOMS    <user>   **** Atoms matching 3D or FLEX Search
0
MATCH_ATOMS     DYNAMIC    ATOMS    <user>   **** 
(1,2,3,4,5,6,7,8,9,10,11,12,13,14,15,16,17,18,19,20,21,22,23,24,25,26,27,28,29,30,31,32,33,34,35,36,37,38,39,40,41,42,43,44,45,46,47,48,49,50,51,52,53,54,55,56,57,58,59,60,61,62,63,64,65,66,67,68,69,70,71,72,73,74,75,76,77,78,79,80,81,82,83,84,85,86,87,88,89,90,91,92,93,94,95,96,97,98,99,100,101,102,103)
ATOM$INVISIBLE  STATIC     ATOMS    DISPGROUP SYSTEM 
0
@<TRIPOS>UNITY_ATOM_ATTR
15 1
AtomExpr -1
63 1
AtomExpr +1
69 1
AtomExpr -1
