#	Name:			COO_23E
#	Creating user name:	jeff
#	Creation time:		Wed Dec 11 13:20:52 2002

#	Modifying user name:	jeff
#	Modification time:	Wed Dec 11 13:20:52 2002

@<TRIPOS>MOLECULE
COO_23E
   61    63     1     0     3
SMALL
USER_CHARGES
****
From 3DB ct
@<TRIPOS>ATOM
      1 N          -4.459000   -3.286000    2.022000 N.am      1 <1>        -1.013000 
      2 C          -3.102000   -3.826000    2.209000 C.3       1 <1>         0.330500 
      3 H          -3.132000   -4.417000    3.141000 H         1 <1>         0.177900 
      4 C          -3.181000   -4.858000    1.040000 C.3       1 <1>         0.179100 
      5 H          -2.715000   -5.821000    1.281000 H         1 <1>         0.024200 
      6 H          -2.725000   -4.456000    0.122000 H         1 <1>        -0.030700 
      7 C          -4.690000   -5.188000    0.814000 C.3       1 <1>        -0.281000 
      8 H          -4.994000   -4.888000   -0.203000 H         1 <1>         0.052000 
      9 H          -4.931000   -6.260000    0.921000 H         1 <1>         0.084000 
     10 C          -5.439000   -4.362000    1.888000 C.3       1 <1>         0.157600 
     11 H          -5.501000   -4.924000    2.834000 H         1 <1>         0.071400 
     12 H          -6.461000   -4.064000    1.598000 H         1 <1>         0.071700 
     13 C          -1.957000   -2.872000    2.507000 C.2       1 <1>         0.693700 
     14 O          -2.377000   -1.880000    3.083000 O.2       1 <1>        -0.734000 
     15 N          -0.596000   -2.941000    2.328000 N.am      1 <1>        -0.903300 
     16 H          -0.096000   -2.244000    2.844000 H         1 <1>         0.434500 
     17 C           0.250000   -3.844000    1.502000 C.3       1 <1>         0.190600 
     18 H           1.169000   -4.059000    2.075000 H         1 <1>         0.053000 
     19 C           0.730000   -3.178000    0.194000 C.3       1 <1>         0.063200 
     20 H           1.248000   -3.880000   -0.479000 H         1 <1>         0.055300 
     21 H          -0.208000   -2.911000   -0.320000 H         1 <1>        -0.070400 
     22 C           1.542000   -1.892000    0.530000 C.3       1 <1>        -0.089600 
     23 H           1.329000   -1.220000   -0.313000 H         1 <1>         0.009700 
     24 H           1.312000   -1.346000    1.449000 H         1 <1>         0.033000 
     25 C           3.011000   -2.039000    0.334000 C.2       1 <1>         0.585700 
     26 O           3.378000   -3.173000    0.034000 O.2       1 <1>        -0.610500 
     27 N           3.822000   -0.967000    0.280000 N.am      1 <1>        -0.401700 
     28 C           5.213000   -1.035000   -0.138000 C.3       1 <1>         0.101200 
     29 H           5.222000   -1.386000   -1.184000 H         1 <1>         0.030500 
     30 C           5.750000    0.385000   -0.053000 C.3       1 <1>        -0.188500 
     31 H           6.596000    0.443000    0.652000 H         1 <1>         0.086500 
     32 H           6.125000    0.721000   -1.036000 H         1 <1>         0.013700 
     33 C           4.611000    1.277000    0.430000 C.3       1 <1>        -0.039500 
     34 H           4.398000    2.066000   -0.312000 H         1 <1>        -0.012900 
     35 H           4.881000    1.785000    1.373000 H         1 <1>         0.099600 
     36 C           3.398000    0.384000    0.633000 C.3       1 <1>        -0.111100 
     37 H           3.064000    0.403000    1.684000 H         1 <1>         0.097000 
     38 H           2.568000    0.725000   -0.008000 H         1 <1>         0.072400 
     39 C           6.035000   -2.005000    0.669000 C.2       1 <1>         0.756900 
     40 O           7.195000   -2.223000    0.356000 O.2       1 <1>        -0.987000 
     41 O           5.470000   -2.613000    1.709000 O.3       1 <1>        -0.937700 
     42 C          -0.282000   -5.227000    1.156000 C.2       1 <1>         0.676800 
     43 O          -0.385000   -5.809000    0.090000 O.2       1 <1>        -0.915600 
     44 O          -0.593000   -5.899000    2.262000 O.3       1 <1>        -0.958300 
     45 C          -4.700000   -2.075000    1.420000 C.2       1 <1>         1.193400 
     46 O          -4.404000   -0.935000    1.740000 O.2       1 <1>        -0.768500 
     47 O          -5.216000   -2.532000    0.269000 O.3       1 <1>        -0.250300 
     48 C          -5.377000   -1.604000   -0.800000 C.3       1 <1>        -0.367700 
     49 H          -5.647000   -2.156000   -1.712000 H         1 <1>         0.154700 
     50 H          -6.199000   -0.918000   -0.539000 H         1 <1>         0.168300 
     51 C          -4.091000   -0.806000   -1.037000 C.ar      1 <1>         0.249100 
     52 C          -2.865000   -1.160000   -0.461000 C.ar      1 <1>        -0.145100 
     53 H          -2.719000   -2.091000    0.059000 H         1 <1>         0.172600 
     54 C          -1.747000   -0.334000   -0.606000 C.ar      1 <1>        -0.106200 
     55 H          -0.819000   -0.590000   -0.125000 H         1 <1>         0.132300 
     56 C          -1.842000    0.851000   -1.339000 C.ar      1 <1>        -0.172800 
     57 H          -0.969000    1.483000   -1.469000 H         1 <1>         0.144400 
     58 C          -3.069000    1.223000   -1.899000 C.ar      1 <1>        -0.175900 
     59 H          -3.152000    2.154000   -2.451000 H         1 <1>         0.131000 
     60 C          -4.187000    0.396000   -1.752000 C.ar      1 <1>        -0.284400 
     61 H          -5.132000    0.693000   -2.195000 H         1 <1>         0.164100 
@<TRIPOS>BOND
     1    1    2 1    
     2    2    3 1    
     3    2    4 1    
     4    4    5 1    
     5    4    6 1    
     6    4    7 1    
     7    7    8 1    
     8    7    9 1    
     9    7   10 1    
    10   10   11 1    
    11   10   12 1    
    12   10    1 1    
    13    2   13 1    
    14   13   14 2    
    15   13   15 am   
    16   15   16 1    
    17   15   17 1    
    18   17   18 1    
    19   17   19 1    
    20   19   20 1    
    21   19   21 1    
    22   19   22 1    
    23   22   23 1    
    24   22   24 1    
    25   22   25 1    
    26   25   26 2    
    27   25   27 am   
    28   27   28 1    
    29   28   29 1    
    30   28   30 1    
    31   30   31 1    
    32   30   32 1    
    33   30   33 1    
    34   33   34 1    
    35   33   35 1    
    36   33   36 1    
    37   36   37 1    
    38   36   38 1    
    39   36   27 1    
    40   28   39 1    
    41   39   40 2    
    42   39   41 1    
    43   17   42 1    
    44   42   43 2    
    45   42   44 1    
    46    1   45 am   
    47   45   46 2    
    48   45   47 1    
    49   47   48 1    
    50   48   49 1    
    51   48   50 1    
    52   48   51 1    
    53   51   52 ar   
    54   52   53 1    
    55   52   54 ar   
    56   54   55 1    
    57   54   56 ar   
    58   56   57 1    
    59   56   58 ar   
    60   58   59 1    
    61   58   60 ar   
    62   60   61 1    
    63   60   51 ar   
@<TRIPOS>SUBSTRUCTURE
     1 ****        1 TEMP              0 ****  ****    0 ROOT 
@<TRIPOS>SET
UNITY_3DHIT     STATIC     ATOMS    <user>   **** Atoms matching 3D or FLEX Search
0
MATCH_ATOMS     DYNAMIC    ATOMS    <user>   **** 
(1,2,3,4,5,6,7,8,9,10,11,12,13,14,15,16,17,18,19,20,21,22,23,24,25,26,27,28,29,30,31,32,33,34,35,36,37,38,39,40,41,42,43,44,45,46,47,48,49,50,51,52,53,54,55,56,57,58,59,60,61,62,63,64,65,66,67,68,69,70,71,72,73,74,75,76,77,78,79,80,81,82,83,84,85,86,87,88,89,90)
ATOM$INVISIBLE  STATIC     ATOMS    DISPGROUP SYSTEM 
0
@<TRIPOS>UNITY_ATOM_ATTR
41 1
AtomExpr -1
44 1
AtomExpr -1
