#	Name:			COO_24A
#	Creating user name:	jeff
#	Creation time:		Wed Dec 11 13:20:52 2002

#	Modifying user name:	jeff
#	Modification time:	Wed Dec 11 13:20:52 2002

@<TRIPOS>MOLECULE
COO_24A
   73    75     1     0     3
SMALL
USER_CHARGES
****
From 3DB ct
@<TRIPOS>ATOM
      1 N           3.823000   -0.958000    0.276000 N.am      1 <1>        -0.719700 
      2 C           5.215000   -1.036000   -0.132000 C.3       1 <1>         0.349500 
      3 H           5.282000   -1.222000   -1.216000 H         1 <1>         0.000600 
      4 C           5.755000    0.384000    0.275000 C.3       1 <1>        -0.363500 
      5 H           6.439000    0.374000    1.140000 H         1 <1>         0.173100 
      6 H           6.262000    0.869000   -0.573000 H         1 <1>         0.063400 
      7 C           4.526000    1.209000    0.682000 C.ar      1 <1>         0.066000 
      8 C           3.402000    0.400000    0.613000 C.ar      1 <1>         0.338800 
      9 C           2.149000    0.998000    0.857000 C.ar      1 <1>        -0.314900 
     10 H           1.183000    0.535000    0.879000 H         1 <1>         0.168300 
     11 C           2.097000    2.376000    1.105000 C.ar      1 <1>        -0.152300 
     12 H           1.134000    2.852000    1.280000 H         1 <1>         0.141600 
     13 C           3.249000    3.170000    1.133000 C.ar      1 <1>        -0.226600 
     14 H           3.171000    4.244000    1.271000 H         1 <1>         0.127300 
     15 C           4.499000    2.572000    0.977000 C.ar      1 <1>        -0.228000 
     16 H           5.415000    3.146000    1.053000 H         1 <1>         0.167400 
     17 C           6.030000   -2.020000    0.658000 C.2       1 <1>         0.708500 
     18 O           7.193000   -2.228000    0.352000 O.2       1 <1>        -0.974700 
     19 O           5.470000   -2.617000    1.707000 O.3       1 <1>        -0.935500 
     20 C           3.006000   -2.024000    0.338000 C.2       1 <1>         0.826900 
     21 O           3.369000   -3.164000    0.052000 O.2       1 <1>        -0.643300 
     22 C           1.541000   -1.914000    0.544000 C.3       1 <1>        -0.093300 
     23 H           1.333000   -1.247000   -0.302000 H         1 <1>         0.049900 
     24 H           1.285000   -1.523000    1.540000 H         1 <1>         0.130500 
     25 C           0.717000   -3.175000    0.208000 C.3       1 <1>        -0.321000 
     26 H           1.219000   -3.868000   -0.488000 H         1 <1>         0.126600 
     27 H          -0.227000   -2.886000   -0.280000 H         1 <1>         0.140600 
     28 C           0.280000   -3.862000    1.535000 C.3       1 <1>         0.087300 
     29 H           1.241000   -4.187000    1.973000 H         1 <1>         0.155000 
     30 N          -0.553000   -3.369000    2.662000 N.am      1 <1>        -0.951300 
     31 H          -0.447000   -3.849000    3.532000 H         1 <1>         0.422800 
     32 C          -1.557000   -2.477000    2.492000 C.2       1 <1>         0.704200 
     33 O          -1.332000   -1.536000    1.756000 O.2       1 <1>        -0.531400 
     34 C          -2.979000   -2.484000    3.089000 C.3       1 <1>         0.290300 
     35 H          -3.177000   -1.438000    3.382000 H         1 <1>         0.065300 
     36 N          -3.813000   -2.865000    1.953000 N.am      1 <1>        -1.034200 
     37 H          -3.652000   -3.772000    1.548000 H         1 <1>         0.542100 
     38 C          -4.708000   -2.010000    1.403000 C.2       1 <1>         1.093600 
     39 O          -4.987000   -0.887000    1.793000 O.2       1 <1>        -0.711000 
     40 O          -5.195000   -2.558000    0.276000 O.3       1 <1>        -0.471300 
     41 C          -5.379000   -1.620000   -0.795000 C.3       1 <1>         0.012600 
     42 H          -5.627000   -2.178000   -1.710000 H         1 <1>         0.101600 
     43 H          -6.222000   -0.954000   -0.548000 H         1 <1>         0.095900 
     44 C          -4.089000   -0.811000   -1.026000 C.ar      1 <1>         0.016200 
     45 C          -4.230000    0.411000   -1.692000 C.ar      1 <1>        -0.222000 
     46 H          -5.201000    0.722000   -2.066000 H         1 <1>         0.161800 
     47 C          -3.125000    1.243000   -1.890000 C.ar      1 <1>        -0.157900 
     48 H          -3.239000    2.182000   -2.422000 H         1 <1>         0.135500 
     49 C          -1.871000    0.864000   -1.402000 C.ar      1 <1>        -0.102800 
     50 H          -1.008000    1.501000   -1.566000 H         1 <1>         0.134300 
     51 C          -1.732000   -0.337000   -0.701000 C.ar      1 <1>        -0.192100 
     52 H          -0.764000   -0.591000   -0.324000 H         1 <1>         0.167100 
     53 C          -2.839000   -1.169000   -0.507000 C.ar      1 <1>        -0.078400 
     54 H          -2.697000   -2.131000   -0.044000 H         1 <1>         0.165100 
     55 C          -3.685000   -3.386000    4.135000 C.3       1 <1>        -0.357400 
     56 H          -3.335000   -2.947000    5.084000 H         1 <1>         0.100100 
     57 H          -4.785000   -3.283000    4.132000 H         1 <1>         0.113000 
     58 C          -3.265000   -4.872000    4.056000 C.3       1 <1>         0.165800 
     59 H          -2.262000   -4.964000    3.664000 H         1 <1>         0.066300 
     60 H          -3.936000   -5.418000    3.372000 H         1 <1>         0.074200 
     61 C          -3.333000   -5.472000    5.500000 C.3       1 <1>        -0.287500 
     62 H          -2.906000   -4.784000    6.250000 H         1 <1>         0.102700 
     63 H          -4.399000   -5.595000    5.753000 H         1 <1>         0.099200 
     64 C          -2.567000   -6.808000    5.718000 C.3       1 <1>         0.064000 
     65 H          -3.187000   -7.484000    6.329000 H         1 <1>         0.052200 
     66 H          -1.624000   -6.641000    6.275000 H         1 <1>         0.110600 
     67 N          -2.207000   -7.467000    4.453000 N.4       1 <1>        -0.361900 
     68 H          -1.821000   -8.458000    4.659000 H         1 <1>         0.350900 
     69 H          -3.072000   -7.647000    3.829000 H         1 <1>         0.374000 
     70 H          -1.596000   -6.979000    4.008000 H         1 <1>         0.493400 
     71 C          -0.447000   -5.127000    1.114000 C.2       1 <1>         0.971800 
     72 O          -0.994000   -5.265000    0.032000 O.2       1 <1>        -0.955200 
     73 O          -0.453000   -6.113000    2.010000 O.3       1 <1>        -1.103000 
@<TRIPOS>BOND
     1    1    2 1    
     2    2    3 1    
     3    2    4 1    
     4    4    5 1    
     5    4    6 1    
     6    4    7 1    
     7    7    8 ar   
     8    8    1 1    
     9    8    9 ar   
    10    9   10 1    
    11    9   11 ar   
    12   11   12 1    
    13   11   13 ar   
    14   13   14 1    
    15   13   15 ar   
    16   15   16 1    
    17   15    7 ar   
    18    2   17 1    
    19   17   18 2    
    20   17   19 1    
    21    1   20 am   
    22   20   21 2    
    23   20   22 1    
    24   22   23 1    
    25   22   24 1    
    26   22   25 1    
    27   25   26 1    
    28   25   27 1    
    29   25   28 1    
    30   28   29 1    
    31   28   30 1    
    32   30   31 1    
    33   30   32 am   
    34   32   33 2    
    35   32   34 1    
    36   34   35 1    
    37   34   36 1    
    38   36   37 1    
    39   36   38 am   
    40   38   39 2    
    41   38   40 1    
    42   40   41 1    
    43   41   42 1    
    44   41   43 1    
    45   41   44 1    
    46   44   45 ar   
    47   45   46 1    
    48   45   47 ar   
    49   47   48 1    
    50   47   49 ar   
    51   49   50 1    
    52   49   51 ar   
    53   51   52 1    
    54   51   53 ar   
    55   53   54 1    
    56   53   44 ar   
    57   34   55 1    
    58   55   56 1    
    59   55   57 1    
    60   55   58 1    
    61   58   59 1    
    62   58   60 1    
    63   58   61 1    
    64   61   62 1    
    65   61   63 1    
    66   61   64 1    
    67   64   65 1    
    68   64   66 1    
    69   64   67 1    
    70   67   68 1    
    71   67   69 1    
    72   67   70 1    
    73   28   71 1    
    74   71   72 2    
    75   71   73 1    
@<TRIPOS>SUBSTRUCTURE
     1 ****        1 TEMP              0 ****  ****    0 ROOT 
@<TRIPOS>SET
UNITY_3DHIT     STATIC     ATOMS    <user>   **** Atoms matching 3D or FLEX Search
0
MATCH_ATOMS     DYNAMIC    ATOMS    <user>   **** 
(1,2,3,4,5,6,7,8,9,10,11,12,13,14,15,16,17,18,19,20,21,22,23,24,25,26,27,28,29,30,31,32,33,34,35,36,37,38,39,40,41,42,43,44,45,46,47,48,49,50,51,52,53,54,55,56,57,58,59,60,61,62,63,64,65,66,67,68,69,70,71,72,73,74,75,76,77,78,79,80,81,82,83,84,85,86,87)
ATOM$INVISIBLE  STATIC     ATOMS    DISPGROUP SYSTEM 
0
@<TRIPOS>UNITY_ATOM_ATTR
19 1
AtomExpr -1
67 1
AtomExpr +1
73 1
AtomExpr -1
