#	Name:			COO_26H
#	Creating user name:	jeff
#	Creation time:		Wed Dec 11 13:20:52 2002

#	Modifying user name:	jeff
#	Modification time:	Wed Dec 11 13:20:52 2002

@<TRIPOS>MOLECULE
COO_26H
   62    64     1     0     3
SMALL
USER_CHARGES
****
From 3DB ct
@<TRIPOS>ATOM
      1 N           3.825000   -0.963000    0.277000 N.am      1 <1>        -0.382500 
      2 C           3.409000    0.392000    0.628000 C.3       1 <1>        -0.069200 
      3 H           2.726000    0.745000   -0.163000 H         1 <1>         0.024700 
      4 C           4.725000    1.247000    0.538000 C.3       1 <1>         0.246600 
      5 H           4.531000    2.207000    0.023000 H         1 <1>        -0.041800 
      6 C           5.700000    0.412000   -0.324000 C.3       1 <1>        -0.505800 
      7 H           6.767000    0.524000   -0.077000 H         1 <1>         0.195100 
      8 H           5.567000    0.709000   -1.380000 H         1 <1>         0.064900 
      9 C           5.214000   -1.038000   -0.145000 C.3       1 <1>         0.275800 
     10 H           5.215000   -1.516000   -1.140000 H         1 <1>         0.019100 
     11 C           6.040000   -1.989000    0.675000 C.2       1 <1>         0.685100 
     12 O           7.197000   -2.221000    0.360000 O.2       1 <1>        -0.958700 
     13 O           5.476000   -2.611000    1.708000 O.3       1 <1>        -0.923600 
     14 C           5.352000    1.640000    1.917000 C.3       1 <1>        -0.157500 
     15 H           4.880000    2.554000    2.314000 H         1 <1>        -0.004700 
     16 H           6.421000    1.887000    1.803000 H         1 <1>         0.040300 
     17 C           5.178000    0.522000    2.971000 C.3       1 <1>         0.075100 
     18 H           5.776000   -0.339000    2.649000 H         1 <1>         0.082200 
     19 H           5.601000    0.854000    3.935000 H         1 <1>        -0.041100 
     20 C           3.679000    0.134000    3.146000 C.3       1 <1>        -0.159600 
     21 H           3.300000    0.512000    4.111000 H         1 <1>        -0.001100 
     22 H           3.580000   -0.964000    3.158000 H         1 <1>         0.114600 
     23 C           2.785000    0.716000    2.018000 C.3       1 <1>         0.047200 
     24 H           2.714000    1.810000    2.122000 H         1 <1>        -0.018000 
     25 H           1.746000    0.394000    2.136000 H         1 <1>        -0.033700 
     26 C           3.008000   -2.029000    0.337000 C.2       1 <1>         0.485400 
     27 O           3.369000   -3.167000    0.039000 O.2       1 <1>        -0.598300 
     28 C           1.536000   -1.895000    0.558000 C.3       1 <1>         0.159400 
     29 H           1.161000   -1.065000   -0.061000 H         1 <1>        -0.027100 
     30 H           1.361000   -1.650000    1.610000 H         1 <1>         0.071700 
     31 C           0.765000   -3.187000    0.182000 C.3       1 <1>        -0.293200 
     32 H           1.348000   -3.896000   -0.426000 H         1 <1>         0.126600 
     33 H          -0.065000   -2.942000   -0.503000 H         1 <1>         0.104800 
     34 C           0.269000   -3.812000    1.521000 C.3       1 <1>         0.122700 
     35 H           1.039000   -3.813000    2.312000 H         1 <1>         0.068500 
     36 N          -0.899000   -2.987000    1.901000 N.am      1 <1>        -0.939400 
     37 H          -1.428000   -2.580000    1.156000 H         1 <1>         0.461100 
     38 C          -1.472000   -2.916000    3.128000 C.2       1 <1>         0.781500 
     39 O          -0.899000   -3.224000    4.161000 O.2       1 <1>        -0.534200 
     40 C          -2.946000   -2.497000    3.129000 C.3       1 <1>         0.116400 
     41 H          -3.419000   -2.654000    2.144000 H         1 <1>         0.241800 
     42 N          -3.087000   -1.087000    3.473000 N.4       1 <1>        -0.695800 
     43 H          -2.341000   -0.451000    3.267000 H         1 <1>         0.492000 
     44 H          -3.964000   -0.749000    3.818000 H         1 <1>         0.505900 
     45 H          -2.778000   -1.228000    4.307000 H         1 <1>         0.510400 
     46 C          -3.731000   -3.411000    4.095000 C.3       1 <1>        -0.391800 
     47 H          -3.540000   -3.030000    5.112000 H         1 <1>         0.148300 
     48 H          -4.816000   -3.356000    3.907000 H         1 <1>         0.105300 
     49 C          -3.263000   -4.883000    4.057000 C.ar      1 <1>         0.051500 
     50 C          -3.690000   -5.650000    5.148000 C.ar      1 <1>        -0.186200 
     51 H          -4.424000   -5.257000    5.845000 H         1 <1>         0.152700 
     52 C          -3.172000   -6.931000    5.358000 C.ar      1 <1>        -0.162500 
     53 H          -3.491000   -7.512000    6.218000 H         1 <1>         0.148600 
     54 C          -2.243000   -7.466000    4.461000 C.ar      1 <1>        -0.109100 
     55 H          -1.834000   -8.457000    4.629000 H         1 <1>         0.145600 
     56 C          -1.848000   -6.723000    3.346000 C.ar      1 <1>        -0.139400 
     57 H          -1.176000   -7.182000    2.637000 H         1 <1>         0.182800 
     58 C          -2.360000   -5.438000    3.144000 C.ar      1 <1>        -0.128900 
     59 H          -2.147000   -4.962000    2.208000 H         1 <1>         0.178800 
     60 C           0.045000   -5.240000    1.076000 C.2       1 <1>         0.773400 
     61 O          -0.623000   -5.519000    0.094000 O.2       1 <1>        -1.080900 
     62 O           0.718000   -6.167000    1.753000 O.3       1 <1>        -0.844100 
@<TRIPOS>BOND
     1    1    2 1    
     2    2    3 1    
     3    2    4 1    
     4    4    5 1    
     5    4    6 1    
     6    6    7 1    
     7    6    8 1    
     8    6    9 1    
     9    9   10 1    
    10    9    1 1    
    11    9   11 1    
    12   11   12 2    
    13   11   13 1    
    14    4   14 1    
    15   14   15 1    
    16   14   16 1    
    17   14   17 1    
    18   17   18 1    
    19   17   19 1    
    20   17   20 1    
    21   20   21 1    
    22   20   22 1    
    23   20   23 1    
    24   23   24 1    
    25   23   25 1    
    26   23    2 1    
    27    1   26 am   
    28   26   27 2    
    29   26   28 1    
    30   28   29 1    
    31   28   30 1    
    32   28   31 1    
    33   31   32 1    
    34   31   33 1    
    35   31   34 1    
    36   34   35 1    
    37   34   36 1    
    38   36   37 1    
    39   36   38 am   
    40   38   39 2    
    41   38   40 1    
    42   40   41 1    
    43   40   42 1    
    44   42   43 1    
    45   42   44 1    
    46   42   45 1    
    47   40   46 1    
    48   46   47 1    
    49   46   48 1    
    50   46   49 1    
    51   49   50 ar   
    52   50   51 1    
    53   50   52 ar   
    54   52   53 1    
    55   52   54 ar   
    56   54   55 1    
    57   54   56 ar   
    58   56   57 1    
    59   56   58 ar   
    60   58   59 1    
    61   58   49 ar   
    62   34   60 1    
    63   60   61 2    
    64   60   62 1    
@<TRIPOS>SUBSTRUCTURE
     1 ****        1 TEMP              0 ****  ****    0 ROOT 
@<TRIPOS>SET
UNITY_3DHIT     STATIC     ATOMS    <user>   **** Atoms matching 3D or FLEX Search
0
MATCH_ATOMS     DYNAMIC    ATOMS    <user>   **** 
(1,2,3,4,5,6,7,8,9,10,11,12,13,14,15,16,17,18,19,20,21,22,23,24,25,26,27,28,29,30,31,32,33,34,35,36,37,38,39,40,41,42,43,44,45,46,47,48,49,50,51,52,53,54,55,56,57,58,59,60,61,62,63,64,65,66,67,68,69,70,71,72,73,74,75,76,77,78,79,80,81,82,83,84,85,86,87)
ATOM$INVISIBLE  STATIC     ATOMS    DISPGROUP SYSTEM 
0
@<TRIPOS>UNITY_ATOM_ATTR
13 1
AtomExpr -1
42 1
AtomExpr +1
62 1
AtomExpr -1
