#	Name:			mol_23
#	Creating user name:	jeff
#	Creation time:		Wed Dec 11 13:20:53 2002

#	Modifying user name:	jeff
#	Modification time:	Wed Dec 11 13:20:53 2002

@<TRIPOS>MOLECULE
mol_23
   52    54     1     0     3
SMALL
USER_CHARGES
****
From 3DB ct
@<TRIPOS>ATOM
      1 S           5.128000    1.941000    1.957000 S.3       1 <1>         0.028300 
      2 C           4.543000    1.260000    0.379000 C.3       1 <1>         0.031800 
      3 S           4.156000    2.649000   -0.729000 S.3       1 <1>        -0.144400 
      4 C           5.519000    3.693000   -0.141000 C.3       1 <1>        -0.190200 
      5 H           6.477000    3.305000   -0.514000 H         1 <1>         0.097300 
      6 H           5.384000    4.735000   -0.470000 H         1 <1>         0.102900 
      7 C           5.504000    3.632000    1.398000 C.3       1 <1>        -0.213600 
      8 H           4.715000    4.302000    1.770000 H         1 <1>         0.066300 
      9 H           6.481000    3.946000    1.792000 H         1 <1>         0.089500 
     10 C           3.301000    0.378000    0.634000 C.3       1 <1>        -0.235700 
     11 H           2.990000    0.415000    1.688000 H         1 <1>         0.111800 
     12 H           2.470000    0.685000   -0.015000 H         1 <1>         0.281600 
     13 N           3.774000   -0.938000    0.283000 N.am      1 <1>        -0.434000 
     14 C           5.127000   -1.077000   -0.225000 C.3       1 <1>         0.281400 
     15 H           5.098000   -1.444000   -1.263000 H         1 <1>         0.013900 
     16 C           5.659000    0.372000   -0.223000 C.3       1 <1>        -0.454100 
     17 H           6.574000    0.425000    0.387000 H         1 <1>         0.204800 
     18 H           5.899000    0.688000   -1.252000 H         1 <1>         0.098400 
     19 C           5.974000   -1.985000    0.632000 C.2       1 <1>         0.669400 
     20 O           7.141000   -2.186000    0.340000 O.2       1 <1>        -0.999300 
     21 O           5.494000   -2.593000    1.692000 O.3       1 <1>        -0.907000 
     22 C           2.963000   -2.022000    0.353000 C.2       1 <1>         0.866500 
     23 O           3.431000   -3.118000    0.049000 O.2       1 <1>        -0.692000 
     24 C           1.495000   -1.943000    0.710000 C.3       1 <1>        -0.821900 
     25 H           1.173000   -0.894000    0.774000 H         1 <1>         0.189100 
     26 H           1.361000   -2.414000    1.691000 H         1 <1>         0.138300 
     27 P           0.369000   -2.795000   -0.496000 P.3       1 <1>         1.644900 
     28 O           0.341000   -2.008000   -1.750000 O.2       1 <1>        -1.123600 
     29 O           0.781000   -4.332000   -0.663000 O.3       1 <1>        -1.085300 
     30 C          -1.311000   -2.730000    0.247000 C.3       1 <1>        -0.864900 
     31 H          -1.584000   -1.681000    0.435000 H         1 <1>         0.132000 
     32 H          -2.053000   -3.179000   -0.432000 H         1 <1>         0.152600 
     33 C          -1.316000   -3.496000    1.585000 C.3       1 <1>         0.231000 
     34 H          -1.229000   -4.570000    1.375000 H         1 <1>         0.018200 
     35 H          -0.454000   -3.172000    2.186000 H         1 <1>         0.003000 
     36 C          -2.594000   -3.208000    2.399000 C.3       1 <1>         0.038000 
     37 H          -2.824000   -2.134000    2.336000 H         1 <1>        -0.002100 
     38 H          -3.443000   -3.784000    2.009000 H         1 <1>        -0.002600 
     39 C          -2.376000   -3.523000    3.893000 C.3       1 <1>        -0.231300 
     40 H          -1.409000   -3.109000    4.212000 H         1 <1>         0.076700 
     41 H          -3.180000   -3.039000    4.465000 H         1 <1>         0.028000 
     42 C          -2.421000   -5.019000    4.196000 C.ar      1 <1>         0.067000 
     43 C          -1.391000   -5.867000    3.782000 C.ar      1 <1>        -0.129200 
     44 H          -0.549000   -5.468000    3.229000 H         1 <1>         0.168800 
     45 C          -1.449000   -7.230000    4.082000 C.ar      1 <1>        -0.172500 
     46 H          -0.657000   -7.890000    3.751000 H         1 <1>         0.153300 
     47 C          -2.526000   -7.743000    4.809000 C.ar      1 <1>        -0.141900 
     48 H          -2.569000   -8.801000    5.040000 H         1 <1>         0.119100 
     49 C          -3.547000   -6.893000    5.239000 C.ar      1 <1>        -0.203600 
     50 H          -4.379000   -7.287000    5.810000 H         1 <1>         0.125900 
     51 C          -3.493000   -5.532000    4.931000 C.ar      1 <1>        -0.167600 
     52 H          -4.287000   -4.872000    5.260000 H         1 <1>         0.143000 
@<TRIPOS>BOND
     1    1    2 1    
     2    2    3 1    
     3    3    4 1    
     4    4    5 1    
     5    4    6 1    
     6    4    7 1    
     7    7    8 1    
     8    7    9 1    
     9    7    1 1    
    10    2   10 1    
    11   10   11 1    
    12   10   12 1    
    13   10   13 1    
    14   13   14 1    
    15   14   15 1    
    16   14   16 1    
    17   16   17 1    
    18   16   18 1    
    19   16    2 1    
    20   14   19 1    
    21   19   20 2    
    22   19   21 1    
    23   13   22 am   
    24   22   23 2    
    25   22   24 1    
    26   24   25 1    
    27   24   26 1    
    28   24   27 1    
    29   27   28 2    
    30   27   29 1    
    31   27   30 1    
    32   30   31 1    
    33   30   32 1    
    34   30   33 1    
    35   33   34 1    
    36   33   35 1    
    37   33   36 1    
    38   36   37 1    
    39   36   38 1    
    40   36   39 1    
    41   39   40 1    
    42   39   41 1    
    43   39   42 1    
    44   42   43 ar   
    45   43   44 1    
    46   43   45 ar   
    47   45   46 1    
    48   45   47 ar   
    49   47   48 1    
    50   47   49 ar   
    51   49   50 1    
    52   49   51 ar   
    53   51   52 1    
    54   51   42 ar   
@<TRIPOS>SUBSTRUCTURE
     1 ****        1 TEMP              0 ****  ****    0 ROOT 
@<TRIPOS>SET
UNITY_3DHIT     STATIC     ATOMS    <user>   **** Atoms matching 3D or FLEX Search
0
MATCH_ATOMS     DYNAMIC    ATOMS    <user>   **** 
(1,2,3,4,5,6,7,8,9,10,11,12,13,14,15,16,17,18,19,20,21,22,23,24,25,26,27,28,29,30,31,32,33,34,35,36,37,38,39,40,41,42,43,44)
ATOM$INVISIBLE  STATIC     ATOMS    DISPGROUP SYSTEM 
0
@<TRIPOS>UNITY_ATOM_ATTR
21 1
AtomExpr -1
29 1
AtomExpr -1
