#	Name:			mol_19
#	Creating user name:	jeff
#	Creation time:		Wed Dec 11 13:20:52 2002

#	Modifying user name:	jeff
#	Modification time:	Wed Dec 11 13:20:52 2002

@<TRIPOS>MOLECULE
mol_19
   60    61     1     0     3
SMALL
USER_CHARGES
****
From 3DB ct
@<TRIPOS>ATOM
      1 N           3.761000   -0.958000    0.307000 N.am      1 <1>        -0.394900 
      2 C           5.185000   -1.116000    0.044000 C.3       1 <1>         0.026700 
      3 H           5.339000   -1.419000   -1.001000 H         1 <1>         0.104900 
      4 C           5.723000    0.317000    0.242000 C.3       1 <1>        -0.231400 
      5 H           6.518000    0.335000    1.003000 H         1 <1>         0.126100 
      6 H           6.121000    0.696000   -0.711000 H         1 <1>         0.094500 
      7 C           4.527000    1.183000    0.694000 C.3       1 <1>        -0.022800 
      8 H           4.577000    1.312000    1.784000 H         1 <1>         0.065600 
      9 H           4.542000    2.167000    0.203000 H         1 <1>         0.050000 
     10 C           3.251000    0.399000    0.321000 C.3       1 <1>         0.000200 
     11 H           2.436000    0.600000    1.018000 H         1 <1>         0.039200 
     12 H           2.934000    0.676000   -0.694000 H         1 <1>         0.091200 
     13 C           5.919000   -2.075000    0.948000 C.2       1 <1>         0.787600 
     14 O           7.110000   -2.263000    0.769000 O.2       1 <1>        -0.815900 
     15 O           5.318000   -2.728000    1.915000 O.3       1 <1>        -0.906000 
     16 C           2.954000   -2.049000    0.331000 C.2       1 <1>         0.607300 
     17 O           3.460000   -3.121000    0.007000 O.2       1 <1>        -0.574000 
     18 C           1.504000   -1.927000    0.769000 C.3       1 <1>         0.003600 
     19 H           1.022000   -1.090000    0.238000 H         1 <1>         0.104900 
     20 N           0.793000   -3.175000    0.418000 N.4       1 <1>        -0.230300 
     21 H          -0.274000   -3.044000    0.526000 H         1 <1>         0.387100 
     22 H           0.963000   -3.356000   -0.447000 H         1 <1>         0.387300 
     23 C           1.265000   -4.321000    1.224000 C.3       1 <1>        -0.024400 
     24 H           2.188000   -4.017000    1.733000 H         1 <1>         0.114500 
     25 C           0.371000   -4.788000    2.405000 C.3       1 <1>         0.011400 
     26 H           0.387000   -4.034000    3.203000 H         1 <1>        -0.012200 
     27 H           0.782000   -5.727000    2.798000 H         1 <1>         0.087100 
     28 C          -1.096000   -5.029000    2.030000 C.3       1 <1>        -0.294200 
     29 H          -1.576000   -4.065000    1.807000 H         1 <1>         0.050800 
     30 H          -1.101000   -5.645000    1.120000 H         1 <1>         0.156100 
     31 C          -1.878000   -5.771000    3.125000 C.ar      1 <1>         0.086800 
     32 C          -2.968000   -5.164000    3.755000 C.ar      1 <1>        -0.190400 
     33 H          -3.152000   -4.107000    3.618000 H         1 <1>         0.140600 
     34 C          -3.827000   -5.920000    4.558000 C.ar      1 <1>        -0.181700 
     35 H          -4.676000   -5.448000    5.039000 H         1 <1>         0.149100 
     36 C          -3.588000   -7.282000    4.757000 C.ar      1 <1>        -0.114700 
     37 H          -4.243000   -7.863000    5.396000 H         1 <1>         0.139000 
     38 C          -2.484000   -7.884000    4.147000 C.ar      1 <1>        -0.151400 
     39 H          -2.293000   -8.939000    4.307000 H         1 <1>         0.151300 
     40 C          -1.626000   -7.126000    3.345000 C.ar      1 <1>        -0.193700 
     41 H          -0.767000   -7.601000    2.886000 H         1 <1>         0.203700 
     42 C           1.762000   -5.402000    0.317000 C.2       1 <1>         0.728400 
     43 O           2.868000   -5.865000    0.542000 O.2       1 <1>        -0.760000 
     44 O           1.094000   -5.898000   -0.695000 O.3       1 <1>        -0.940800 
     45 C           1.304000   -1.743000    2.303000 C.3       1 <1>        -0.294400 
     46 H           0.227000   -1.847000    2.503000 H         1 <1>         0.124700 
     47 H           1.846000   -2.527000    2.848000 H         1 <1>         0.130200 
     48 C           1.777000   -0.423000    2.939000 C.3       1 <1>         0.114700 
     49 H           2.855000   -0.299000    2.768000 H         1 <1>         0.053900 
     50 H           1.219000    0.427000    2.524000 H         1 <1>         0.024700 
     51 C           1.526000   -0.470000    4.457000 C.3       1 <1>        -0.241100 
     52 H           0.455000   -0.643000    4.635000 H         1 <1>         0.092800 
     53 H           2.112000   -1.290000    4.899000 H         1 <1>         0.123300 
     54 C           1.933000    0.861000    5.119000 C.3       1 <1>         0.069900 
     55 H           1.383000    1.688000    4.644000 H         1 <1>         0.122500 
     56 H           1.673000    0.818000    6.188000 H         1 <1>         0.059000 
     57 N           3.383000    1.086000    4.988000 N.4       1 <1>        -0.338500 
     58 H           3.656000    1.984000    5.521000 H         1 <1>         0.361400 
     59 H           3.646000    1.200000    3.948000 H         1 <1>         0.346200 
     60 H           3.828000    0.385000    5.335000 H         1 <1>         0.394300 
@<TRIPOS>BOND
     1    1    2 1    
     2    2    3 1    
     3    2    4 1    
     4    4    5 1    
     5    4    6 1    
     6    4    7 1    
     7    7    8 1    
     8    7    9 1    
     9    7   10 1    
    10   10   11 1    
    11   10   12 1    
    12   10    1 1    
    13    2   13 1    
    14   13   14 2    
    15   13   15 1    
    16    1   16 am   
    17   16   17 2    
    18   16   18 1    
    19   18   19 1    
    20   18   20 1    
    21   20   21 1    
    22   20   22 1    
    23   20   23 1    
    24   23   24 1    
    25   23   25 1    
    26   25   26 1    
    27   25   27 1    
    28   25   28 1    
    29   28   29 1    
    30   28   30 1    
    31   28   31 1    
    32   31   32 ar   
    33   32   33 1    
    34   32   34 ar   
    35   34   35 1    
    36   34   36 ar   
    37   36   37 1    
    38   36   38 ar   
    39   38   39 1    
    40   38   40 ar   
    41   40   41 1    
    42   40   31 ar   
    43   23   42 1    
    44   42   43 2    
    45   42   44 1    
    46   18   45 1    
    47   45   46 1    
    48   45   47 1    
    49   45   48 1    
    50   48   49 1    
    51   48   50 1    
    52   48   51 1    
    53   51   52 1    
    54   51   53 1    
    55   51   54 1    
    56   54   55 1    
    57   54   56 1    
    58   54   57 1    
    59   57   58 1    
    60   57   59 1    
    61   57   60 1    
@<TRIPOS>SUBSTRUCTURE
     1 ****        1 TEMP              0 ****  ****    0 ROOT 
@<TRIPOS>SET
UNITY_3DHIT     STATIC     ATOMS    <user>   **** Atoms matching 3D or FLEX Search
0
MATCH_ATOMS     DYNAMIC    ATOMS    <user>   **** 
(1,2,3,4,5,6,7,8,9,10,11,12,13,14,15,16,17,18,19,20,21,22,23,24,25,26,27,28,29,30,31,32,33,34,35,36,37,38,39,40,41,42,43,44)
ATOM$INVISIBLE  STATIC     ATOMS    DISPGROUP SYSTEM 
0
@<TRIPOS>UNITY_ATOM_ATTR
15 1
AtomExpr -1
20 1
AtomExpr +1
44 1
AtomExpr -1
57 1
AtomExpr +1
