#	Name:			mol_54
#	Creating user name:	jeff
#	Creation time:		Wed Dec 11 13:20:54 2002

#	Modifying user name:	jeff
#	Modification time:	Wed Dec 11 13:20:54 2002

@<TRIPOS>MOLECULE
mol_54
   41    41     1     0     3
SMALL
USER_CHARGES
****
From 3DB ct
@<TRIPOS>ATOM
      1 N           3.776000   -0.935000    0.284000 N.am      1 <1>        -1.023500 
      2 H           3.435000   -0.030000    0.547000 H         1 <1>         0.470400 
      3 C           2.961000   -2.025000    0.354000 C.2       1 <1>         0.822400 
      4 O           3.432000   -3.119000    0.048000 O.2       1 <1>        -0.707600 
      5 C           1.531000   -1.912000    0.822000 C.3       1 <1>        -0.095100 
      6 H           1.194000   -0.866000    0.760000 H         1 <1>         0.143200 
      7 N           0.655000   -2.701000   -0.056000 N.3       1 <1>        -0.883600 
      8 H          -0.363000   -2.641000    0.301000 H         1 <1>         0.318000 
      9 H           0.979000   -3.731000   -0.065000 H         1 <1>         0.331700 
     10 C           1.375000   -2.373000    2.291000 C.3       1 <1>         0.157600 
     11 H           0.299000   -2.386000    2.525000 H         1 <1>         0.036700 
     12 C           1.963000   -3.786000    2.508000 C.3       1 <1>         0.085600 
     13 H           1.540000   -4.481000    1.772000 H         1 <1>        -0.005700 
     14 H           3.055000   -3.754000    2.397000 H         1 <1>         0.023100 
     15 C           1.637000   -4.325000    3.914000 C.3       1 <1>        -0.202300 
     16 H           2.121000   -3.700000    4.679000 H         1 <1>         0.057600 
     17 H           2.011000   -5.356000    3.995000 H         1 <1>         0.032900 
     18 H           0.548000   -4.316000    4.065000 H         1 <1>         0.026000 
     19 C           2.071000   -1.363000    3.229000 C.3       1 <1>        -0.371000 
     20 H           3.146000   -1.333000    2.996000 H         1 <1>         0.161900 
     21 H           1.928000   -1.659000    4.278000 H         1 <1>         0.062400 
     22 H           1.630000   -0.369000    3.073000 H         1 <1>         0.070900 
     23 C           5.148000   -1.061000   -0.195000 C.3       1 <1>         0.499600 
     24 H           5.128000   -1.440000   -1.230000 H         1 <1>        -0.013300 
     25 C           5.768000    0.353000   -0.191000 C.3       1 <1>        -0.319000 
     26 H           5.182000    1.004000   -0.855000 H         1 <1>         0.046500 
     27 H           5.730000    0.757000    0.832000 H         1 <1>         0.093500 
     28 C           7.210000    0.337000   -0.692000 C.ar      1 <1>         0.142400 
     29 C           8.265000    0.560000    0.197000 C.ar      1 <1>        -0.177800 
     30 H           8.061000    0.745000    1.244000 H         1 <1>         0.217100 
     31 C           9.583000    0.541000   -0.263000 C.ar      1 <1>        -0.159000 
     32 H          10.399000    0.721000    0.426000 H         1 <1>         0.131300 
     33 C           9.848000    0.292000   -1.611000 C.ar      1 <1>        -0.168700 
     34 H          10.871000    0.271000   -1.965000 H         1 <1>         0.117800 
     35 C           8.794000    0.069000   -2.501000 C.ar      1 <1>        -0.180000 
     36 H           9.002000   -0.121000   -3.546000 H         1 <1>         0.123300 
     37 C           7.476000    0.092000   -2.041000 C.ar      1 <1>        -0.217900 
     38 H           6.660000   -0.080000   -2.731000 H         1 <1>         0.160600 
     39 C           5.981000   -2.006000    0.639000 C.2       1 <1>         0.668800 
     40 O           7.145000   -2.222000    0.339000 O.2       1 <1>        -0.928900 
     41 O           5.502000   -2.657000    1.700000 O.3       1 <1>        -0.970000 
@<TRIPOS>BOND
     1    2    1 1    
     2    1    3 am   
     3    3    4 2    
     4    3    5 1    
     5    5    6 1    
     6    5    7 1    
     7    7    8 1    
     8    7    9 1    
     9    5   10 1    
    10   10   11 1    
    11   10   12 1    
    12   12   13 1    
    13   12   14 1    
    14   12   15 1    
    15   15   16 1    
    16   15   17 1    
    17   15   18 1    
    18   10   19 1    
    19   19   20 1    
    20   19   21 1    
    21   19   22 1    
    22    1   23 1    
    23   23   24 1    
    24   23   25 1    
    25   25   26 1    
    26   25   27 1    
    27   25   28 1    
    28   28   29 ar   
    29   29   30 1    
    30   29   31 ar   
    31   31   32 1    
    32   31   33 ar   
    33   33   34 1    
    34   33   35 ar   
    35   35   36 1    
    36   35   37 ar   
    37   37   38 1    
    38   37   28 ar   
    39   23   39 1    
    40   39   40 2    
    41   39   41 1    
@<TRIPOS>SUBSTRUCTURE
     1 ****        2 TEMP              0 ****  ****    0 ROOT 
@<TRIPOS>SET
UNITY_3DHIT     STATIC     ATOMS    <user>   **** Atoms matching 3D or FLEX Search
0
MATCH_ATOMS     DYNAMIC    ATOMS    <user>   **** 
(1,2,3,4,5,6,7,8,9,10,11,12,13,14,15,16,17,18,19,20,21,22,23,24,25,26,27,28,29,30,31,32,33,34,35)
ATOM$INVISIBLE  STATIC     ATOMS    DISPGROUP SYSTEM 
0
@<TRIPOS>UNITY_ATOM_ATTR
41 1
AtomExpr -1
