#	Name:			mol_14
#	Creating user name:	jeff
#	Creation time:		Wed Dec 11 13:20:52 2002

#	Modifying user name:	jeff
#	Modification time:	Wed Dec 11 13:20:52 2002

@<TRIPOS>MOLECULE
mol_14
   45    46     1     0     3
SMALL
USER_CHARGES
INVALID_CHARGES
From 3DB ct
@<TRIPOS>ATOM
      1 S          -1.601000   -4.599000   -0.227000 S.3       1 <1>        -0.145100 
      2 H          -2.600000   -4.936000   -0.185000 H         1 <1>         0.098100 
      3 C          -1.607000   -2.792000   -0.454000 C.3       1 <1>        -0.352200 
      4 H          -1.337000   -2.593000   -1.504000 H         1 <1>         0.184400 
      5 C          -2.974000   -2.155000   -0.150000 C.3       1 <1>        -0.296200 
      6 H          -3.145000   -2.065000    0.933000 H         1 <1>         0.127400 
      7 H          -3.753000   -2.795000   -0.583000 H         1 <1>         0.105500 
      8 C          -3.054000   -0.791000   -0.836000 C.ar      1 <1>         0.180700 
      9 C          -1.948000   -0.130000   -1.378000 C.ar      1 <1>        -0.163100 
     10 H          -0.949000   -0.511000   -1.201000 H         1 <1>         0.113100 
     11 C          -2.131000    1.022000   -2.151000 C.ar      1 <1>        -0.134600 
     12 H          -1.268000    1.543000   -2.548000 H         1 <1>         0.158800 
     13 C          -3.418000    1.491000   -2.421000 C.ar      1 <1>        -0.189100 
     14 H          -3.559000    2.370000   -3.038000 H         1 <1>         0.146500 
     15 C          -4.525000    0.822000   -1.894000 C.ar      1 <1>        -0.121800 
     16 H          -5.525000    1.163000   -2.124000 H         1 <1>         0.137300 
     17 C          -4.338000   -0.280000   -1.056000 C.ar      1 <1>        -0.268300 
     18 H          -5.192000   -0.741000   -0.574000 H         1 <1>         0.165700 
     19 C          -0.608000   -2.159000    0.460000 C.2       1 <1>         1.185600 
     20 O          -0.951000   -1.376000    1.333000 O.2       1 <1>        -0.707100 
     21 N           0.670000   -2.485000    0.236000 N.am      1 <1>        -1.060700 
     22 H           0.936000   -3.141000   -0.467000 H         1 <1>         0.419500 
     23 C           1.679000   -1.854000    1.048000 C.3       1 <1>         0.559800 
     24 H           1.418000   -0.793000    1.173000 H         1 <1>        -0.070300 
     25 C           1.747000   -2.506000    2.443000 C.3       1 <1>        -0.245100 
     26 H           2.532000   -2.013000    3.039000 H         1 <1>         0.091100 
     27 H           1.987000   -3.575000    2.343000 H         1 <1>         0.084700 
     28 H           0.778000   -2.392000    2.951000 H         1 <1>         0.032700 
     29 C           3.005000   -2.000000    0.375000 C.2       1 <1>         0.464200 
     30 O           3.420000   -3.110000    0.049000 O.2       1 <1>        -0.595800 
     31 N           3.785000   -0.902000    0.223000 N.am      1 <1>        -0.437500 
     32 C           5.147000   -1.047000   -0.260000 C.3       1 <1>         0.112000 
     33 H           5.148000   -1.424000   -1.292000 H         1 <1>         0.021800 
     34 C           5.662000    0.411000   -0.249000 C.3       1 <1>        -0.130600 
     35 H           6.561000    0.497000    0.378000 H         1 <1>         0.088200 
     36 H           5.902000    0.734000   -1.274000 H         1 <1>         0.012500 
     37 C           4.547000    1.314000    0.326000 C.3       1 <1>        -0.150600 
     38 H           4.896000    1.779000    1.262000 H         1 <1>         0.112000 
     39 H           4.293000    2.100000   -0.400000 H         1 <1>         0.020200 
     40 C           3.322000    0.420000    0.597000 C.3       1 <1>         0.078800 
     41 H           3.053000    0.470000    1.663000 H         1 <1>         0.058700 
     42 H           2.466000    0.721000   -0.025000 H         1 <1>         0.033300 
     43 C           5.979000   -1.957000    0.618000 C.2       1 <1>         0.780200 
     44 O           7.146000   -2.158000    0.321000 O.2       1 <1>        -0.968600 
     45 O           5.480000   -2.551000    1.673000 O.3       1 <1>        -0.958300 
@<TRIPOS>BOND
     1    2    1 1    
     2    1    3 1    
     3    3    4 1    
     4    3    5 1    
     5    5    6 1    
     6    5    7 1    
     7    5    8 1    
     8    8    9 ar   
     9    9   10 1    
    10    9   11 ar   
    11   11   12 1    
    12   11   13 ar   
    13   13   14 1    
    14   13   15 ar   
    15   15   16 1    
    16   15   17 ar   
    17   17   18 1    
    18   17    8 ar   
    19    3   19 1    
    20   19   20 2    
    21   19   21 am   
    22   21   22 1    
    23   21   23 1    
    24   23   24 1    
    25   23   25 1    
    26   25   26 1    
    27   25   27 1    
    28   25   28 1    
    29   23   29 1    
    30   29   30 2    
    31   29   31 am   
    32   31   32 1    
    33   32   33 1    
    34   32   34 1    
    35   34   35 1    
    36   34   36 1    
    37   34   37 1    
    38   37   38 1    
    39   37   39 1    
    40   37   40 1    
    41   40   41 1    
    42   40   42 1    
    43   40   31 1    
    44   32   43 1    
    45   43   44 2    
    46   43   45 1    
@<TRIPOS>SUBSTRUCTURE
     1 ****        2 TEMP              0 ****  ****    0 ROOT 
@<TRIPOS>SET
UNITY_3DHIT     STATIC     ATOMS    <user>   **** Atoms matching 3D or FLEX Search
0
MATCH_ATOMS     DYNAMIC    ATOMS    <user>   **** 
(1,2,3,4,5,6,7,8,9,10,11,12,13,14,15,16,17,18,19,20,21,22,23,24,25,26,27,28,29,30,31,32,33,34,35,36,37,38,39,40,41,42,43,44)
ATOM$INVISIBLE  STATIC     ATOMS    DISPGROUP SYSTEM 
0
@<TRIPOS>UNITY_ATOM_ATTR
45 1
AtomExpr -1
