#	Name:			mol_29
#	Creating user name:	jeff
#	Creation time:		Wed Dec 11 13:20:53 2002

#	Modifying user name:	jeff
#	Modification time:	Wed Dec 11 13:20:53 2002

@<TRIPOS>MOLECULE
mol_29
   45    46     1     0     3
SMALL
USER_CHARGES
****
From 3DB ct
@<TRIPOS>ATOM
      1 P           0.026000   -3.026000   -0.567000 P.3       1 <1>         1.674000 
      2 O           0.582000   -2.634000   -1.791000 O.2       1 <1>        -1.114900 
      3 N           0.997000   -3.191000    0.527000 N.pl3     1 <1>        -1.173300 
      4 H           0.501000   -3.610000    1.391000 H         1 <1>         0.397500 
      5 C           1.597000   -1.912000    0.905000 C.3       1 <1>         0.460200 
      6 H           1.149000   -1.011000    0.482000 H         1 <1>         0.084000 
      7 C           2.977000   -2.010000    0.364000 C.2       1 <1>         0.647200 
      8 N           3.775000   -0.917000    0.336000 N.am      1 <1>        -0.493300 
      9 C           5.151000   -1.028000   -0.117000 C.3       1 <1>         0.071200 
     10 H           5.173000   -1.337000   -1.172000 H         1 <1>         0.037100 
     11 C           5.680000    0.413000    0.012000 C.3       1 <1>        -0.143200 
     12 H           5.980000    0.802000   -0.970000 H         1 <1>         0.018900 
     13 H           6.537000    0.447000    0.699000 H         1 <1>         0.060800 
     14 C           4.539000    1.281000    0.578000 C.3       1 <1>        -0.062200 
     15 H           4.845000    1.689000    1.553000 H         1 <1>         0.075700 
     16 H           4.328000    2.102000   -0.119000 H         1 <1>        -0.020100 
     17 C           3.294000    0.388000    0.739000 C.3       1 <1>         0.083500 
     18 H           2.483000    0.735000    0.086000 H         1 <1>         0.074700 
     19 H           2.978000    0.405000    1.790000 H         1 <1>         0.001500 
     20 C           6.021000   -1.943000    0.703000 C.2       1 <1>         0.791200 
     21 O           7.128000   -2.223000    0.275000 O.2       1 <1>        -1.008600 
     22 O           5.658000   -2.477000    1.844000 O.3       1 <1>        -0.967200 
     23 O           3.460000   -3.100000    0.063000 O.2       1 <1>        -0.676900 
     24 C           1.576000   -1.813000    2.443000 C.3       1 <1>        -0.352100 
     25 H           2.089000   -0.915000    2.805000 H         1 <1>         0.063100 
     26 H           2.058000   -2.704000    2.869000 H         1 <1>         0.076900 
     27 H           0.526000   -1.779000    2.766000 H         1 <1>         0.058300 
     28 O          -0.761000   -4.416000   -0.464000 O.3       1 <1>        -1.112200 
     29 C          -1.297000   -2.008000    0.066000 C.3       1 <1>        -0.499900 
     30 H          -2.140000   -2.320000   -0.567000 H         1 <1>         0.064800 
     31 H          -1.534000   -2.244000    1.112000 H         1 <1>         0.075900 
     32 C          -0.974000   -0.526000   -0.104000 C.3       1 <1>         0.066200 
     33 H          -0.841000   -0.016000    0.863000 H         1 <1>         0.001500 
     34 H          -0.102000   -0.363000   -0.756000 H         1 <1>        -0.005300 
     35 C          -2.177000   -0.059000   -0.862000 C.ar      1 <1>         0.084400 
     36 C          -3.458000   -0.407000   -0.423000 C.ar      1 <1>        -0.243100 
     37 H          -3.580000   -0.995000    0.479000 H         1 <1>         0.141900 
     38 C          -4.581000    0.007000   -1.144000 C.ar      1 <1>        -0.174700 
     39 H          -5.574000   -0.257000   -0.799000 H         1 <1>         0.111200 
     40 C          -4.422000    0.762000   -2.309000 C.ar      1 <1>        -0.175600 
     41 H          -5.293000    1.073000   -2.876000 H         1 <1>         0.109100 
     42 C          -3.144000    1.115000   -2.745000 C.ar      1 <1>        -0.229200 
     43 H          -3.020000    1.704000   -3.646000 H         1 <1>         0.142400 
     44 C          -2.020000    0.706000   -2.018000 C.ar      1 <1>        -0.067100 
     45 H          -1.028000    0.985000   -2.354000 H         1 <1>         0.201700 
@<TRIPOS>BOND
     1    1    2 2    
     2    1    3 1    
     3    3    4 1    
     4    3    5 1    
     5    5    6 1    
     6    5    7 1    
     7    7    8 am   
     8    8    9 1    
     9    9   10 1    
    10    9   11 1    
    11   11   12 1    
    12   11   13 1    
    13   11   14 1    
    14   14   15 1    
    15   14   16 1    
    16   14   17 1    
    17   17   18 1    
    18   17   19 1    
    19   17    8 1    
    20    9   20 1    
    21   20   21 2    
    22   20   22 1    
    23    7   23 2    
    24    5   24 1    
    25   24   25 1    
    26   24   26 1    
    27   24   27 1    
    28    1   28 1    
    29    1   29 1    
    30   29   30 1    
    31   29   31 1    
    32   29   32 1    
    33   32   33 1    
    34   32   34 1    
    35   32   35 1    
    36   35   36 ar   
    37   36   37 1    
    38   36   38 ar   
    39   38   39 1    
    40   38   40 ar   
    41   40   41 1    
    42   40   42 ar   
    43   42   43 1    
    44   42   44 ar   
    45   44   45 1    
    46   44   35 ar   
@<TRIPOS>SUBSTRUCTURE
     1 ****        1 TEMP              0 ****  ****    0 ROOT 
@<TRIPOS>SET
UNITY_3DHIT     STATIC     ATOMS    <user>   **** Atoms matching 3D or FLEX Search
0
MATCH_ATOMS     DYNAMIC    ATOMS    <user>   **** 
(1,2,3,4,5,6,7,8,9,10,11,12,13,14,15,16,17,18,19,20,21,22,23,24,25,26,27,28,29,30,31,32,33,34,35,36,37,38,39,40,41,42,43,44)
ATOM$INVISIBLE  STATIC     ATOMS    DISPGROUP SYSTEM 
0
@<TRIPOS>UNITY_ATOM_ATTR
22 1
AtomExpr -1
28 1
AtomExpr -1
