#	Name:			mol_25
#	Creating user name:	jeff
#	Creation time:		Wed Dec 11 13:20:53 2002

#	Modifying user name:	jeff
#	Modification time:	Wed Dec 11 13:20:53 2002

@<TRIPOS>MOLECULE
mol_25
   62    64     1     0     3
SMALL
USER_CHARGES
****
From 3DB ct
@<TRIPOS>ATOM
      1 N           3.784000   -0.954000    0.294000 N.am      1 <1>        -0.409300 
      2 C           5.143000   -1.094000   -0.193000 C.3       1 <1>         0.080500 
      3 H           5.137000   -1.446000   -1.235000 H         1 <1>         0.052800 
      4 C           5.685000    0.348000   -0.132000 C.3       1 <1>        -0.203800 
      5 H           6.566000    0.395000    0.527000 H         1 <1>         0.123000 
      6 H           5.970000    0.682000   -1.139000 H         1 <1>         0.037000 
      7 C           4.563000    1.245000    0.436000 C.3       1 <1>        -0.115800 
      8 H           4.893000    1.645000    1.407000 H         1 <1>         0.107700 
      9 H           4.353000    2.073000   -0.256000 H         1 <1>         0.033800 
     10 C           3.304000    0.373000    0.628000 C.3       1 <1>         0.071500 
     11 H           2.961000    0.442000    1.670000 H         1 <1>         0.045200 
     12 H           2.505000    0.693000   -0.059000 H         1 <1>         0.048800 
     13 C           5.982000   -2.014000    0.655000 C.2       1 <1>         0.845700 
     14 O           7.148000   -2.220000    0.359000 O.2       1 <1>        -0.959800 
     15 O           5.507000   -2.626000    1.713000 O.3       1 <1>        -0.994800 
     16 C           2.977000   -2.043000    0.384000 C.2       1 <1>         0.347700 
     17 O           3.433000   -3.126000    0.025000 O.2       1 <1>        -0.580600 
     18 C           1.584000   -1.883000    0.877000 C.3       1 <1>         0.501300 
     19 H           1.079000   -1.009000    0.445000 H         1 <1>         0.014500 
     20 N           1.063000   -3.105000    0.272000 N.4       1 <1>        -0.266700 
     21 H           0.304000   -2.927000   -0.472000 H         1 <1>         0.378000 
     22 H           1.759000   -3.410000   -0.211000 H         1 <1>         0.402500 
     23 C           0.768000   -4.213000    1.171000 C.3       1 <1>        -0.136400 
     24 H           1.295000   -4.103000    2.129000 H         1 <1>         0.114700 
     25 C          -0.763000   -4.104000    1.480000 C.3       1 <1>         0.524600 
     26 H          -0.800000   -3.594000    2.454000 H         1 <1>         0.043200 
     27 N          -1.574000   -3.290000    0.565000 N.am      1 <1>        -0.932200 
     28 H          -2.028000   -3.770000   -0.183000 H         1 <1>         0.528300 
     29 C          -1.641000   -1.914000    0.658000 C.2       1 <1>         0.636200 
     30 O          -1.088000   -1.354000    1.590000 O.2       1 <1>        -0.629100 
     31 C          -2.341000   -0.953000   -0.314000 C.ar      1 <1>        -0.016600 
     32 C          -1.619000    0.152000   -0.765000 C.ar      1 <1>        -0.142300 
     33 H          -0.583000    0.279000   -0.473000 H         1 <1>         0.176100 
     34 C          -2.231000    1.094000   -1.590000 C.ar      1 <1>        -0.153700 
     35 H          -1.670000    1.954000   -1.940000 H         1 <1>         0.148700 
     36 C          -3.564000    0.932000   -1.965000 C.ar      1 <1>        -0.124800 
     37 H          -4.040000    1.665000   -2.607000 H         1 <1>         0.140200 
     38 C          -4.285000   -0.173000   -1.515000 C.ar      1 <1>        -0.157300 
     39 H          -5.321000   -0.299000   -1.806000 H         1 <1>         0.152600 
     40 C          -3.673000   -1.115000   -0.689000 C.ar      1 <1>        -0.143100 
     41 H          -4.234000   -1.974000   -0.339000 H         1 <1>         0.160100 
     42 C          -1.267000   -5.545000    1.739000 C.3       1 <1>        -0.568500 
     43 H          -0.394000   -6.214000    1.780000 H         1 <1>         0.186500 
     44 H          -1.905000   -5.872000    0.903000 H         1 <1>         0.196500 
     45 C          -1.982000   -5.795000    3.076000 C.ar      1 <1>         0.183900 
     46 C          -2.921000   -4.896000    3.580000 C.ar      1 <1>        -0.191900 
     47 H          -3.072000   -3.940000    3.091000 H         1 <1>         0.172800 
     48 C          -3.664000   -5.225000    4.712000 C.ar      1 <1>        -0.157600 
     49 H          -4.393000   -4.526000    5.104000 H         1 <1>         0.146200 
     50 C          -3.469000   -6.454000    5.340000 C.ar      1 <1>        -0.152700 
     51 H          -4.046000   -6.711000    6.221000 H         1 <1>         0.136000 
     52 C          -2.530000   -7.354000    4.836000 C.ar      1 <1>        -0.164600 
     53 H          -2.379000   -8.309000    5.324000 H         1 <1>         0.145300 
     54 C          -1.787000   -7.024000    3.704000 C.ar      1 <1>        -0.205800 
     55 H          -1.058000   -7.724000    3.312000 H         1 <1>         0.167300 
     56 C           1.482000   -5.392000    0.519000 C.2       1 <1>         0.732300 
     57 O           2.340000   -6.039000    1.096000 O.2       1 <1>        -0.826600 
     58 O           1.114000   -5.675000   -0.707000 O.3       1 <1>        -0.962700 
     59 C           1.611000   -1.817000    2.423000 C.3       1 <1>        -0.464400 
     60 H           1.866000   -0.802000    2.756000 H         1 <1>         0.219700 
     61 H           2.369000   -2.515000    2.808000 H         1 <1>         0.172000 
     62 H           0.635000   -2.090000    2.845000 H         1 <1>         0.065500 
@<TRIPOS>BOND
     1    1    2 1    
     2    2    3 1    
     3    2    4 1    
     4    4    5 1    
     5    4    6 1    
     6    4    7 1    
     7    7    8 1    
     8    7    9 1    
     9    7   10 1    
    10   10   11 1    
    11   10   12 1    
    12   10    1 1    
    13    2   13 1    
    14   13   14 2    
    15   13   15 1    
    16    1   16 am   
    17   16   17 2    
    18   16   18 1    
    19   18   19 1    
    20   18   20 1    
    21   20   21 1    
    22   20   22 1    
    23   20   23 1    
    24   23   24 1    
    25   23   25 1    
    26   25   26 1    
    27   25   27 1    
    28   27   28 1    
    29   27   29 am   
    30   29   30 2    
    31   29   31 1    
    32   31   32 ar   
    33   32   33 1    
    34   32   34 ar   
    35   34   35 1    
    36   34   36 ar   
    37   36   37 1    
    38   36   38 ar   
    39   38   39 1    
    40   38   40 ar   
    41   40   41 1    
    42   40   31 ar   
    43   25   42 1    
    44   42   43 1    
    45   42   44 1    
    46   42   45 1    
    47   45   46 ar   
    48   46   47 1    
    49   46   48 ar   
    50   48   49 1    
    51   48   50 ar   
    52   50   51 1    
    53   50   52 ar   
    54   52   53 1    
    55   52   54 ar   
    56   54   55 1    
    57   54   45 ar   
    58   23   56 1    
    59   56   57 2    
    60   56   58 1    
    61   18   59 1    
    62   59   60 1    
    63   59   61 1    
    64   59   62 1    
@<TRIPOS>SUBSTRUCTURE
     1 ****        1 TEMP              0 ****  ****    0 ROOT 
@<TRIPOS>SET
UNITY_3DHIT     STATIC     ATOMS    <user>   **** Atoms matching 3D or FLEX Search
0
MATCH_ATOMS     DYNAMIC    ATOMS    <user>   **** 
(1,2,3,4,5,6,7,8,9,10,11,12,13,14,15,16,17,18,19,20,21,22,23,24,25,26,27,28,29,30,31,32,33,34,35,36,37,38,39,40,41,42,43,44)
ATOM$INVISIBLE  STATIC     ATOMS    DISPGROUP SYSTEM 
0
@<TRIPOS>UNITY_ATOM_ATTR
15 1
AtomExpr -1
20 1
AtomExpr +1
58 1
AtomExpr -1
