#	Name:			mol_59
#	Creating user name:	jeff
#	Creation time:		Wed Dec 11 13:20:54 2002

#	Modifying user name:	jeff
#	Modification time:	Wed Dec 11 13:20:54 2002

@<TRIPOS>MOLECULE
mol_59
   25    25     1     0     3
SMALL
USER_CHARGES
INVALID_CHARGES
From 3DB ct
@<TRIPOS>ATOM
      1 S           0.994000   -4.442000   -0.665000 S.3       1 <1>        -0.175300 
      2 H           0.122000   -5.000000   -0.869000 H         1 <1>         0.067100 
      3 C           0.502000   -2.798000   -0.064000 C.3       1 <1>        -0.232300 
      4 H           0.322000   -2.838000    1.020000 H         1 <1>         0.117800 
      5 H          -0.421000   -2.486000   -0.578000 H         1 <1>         0.064700 
      6 C           1.616000   -1.774000   -0.356000 C.3       1 <1>         0.020800 
      7 H           1.219000   -0.775000   -0.137000 H         1 <1>         0.010100 
      8 H           1.898000   -1.827000   -1.417000 H         1 <1>         0.062500 
      9 C           2.844000   -2.040000    0.534000 C.3       1 <1>         0.117400 
     10 H           3.324000   -2.977000    0.211000 H         1 <1>         0.104800 
     11 H           2.510000   -2.150000    1.576000 H         1 <1>         0.033800 
     12 N           3.790000   -0.936000    0.456000 N.am      1 <1>        -0.450600 
     13 C           5.127000   -1.031000   -0.096000 C.3       1 <1>        -0.248900 
     14 H           5.089000   -1.311000   -1.158000 H         1 <1>         0.129700 
     15 C           5.681000    0.406000    0.048000 C.3       1 <1>        -0.008300 
     16 H           5.900000    0.827000   -0.943000 H         1 <1>        -0.009300 
     17 H           6.592000    0.422000    0.665000 H         1 <1>         0.099100 
     18 C           4.586000    1.248000    0.733000 C.3       1 <1>        -0.433800 
     19 H           4.946000    1.629000    1.699000 H         1 <1>         0.189200 
     20 H           4.290000    2.087000    0.088000 H         1 <1>         0.092600 
     21 C           3.461000    0.279000    0.927000 C.2       1 <1>         0.827600 
     22 O           2.407000    0.599000    1.453000 O.2       1 <1>        -0.715200 
     23 C           5.969000   -2.008000    0.677000 C.2       1 <1>         0.864600 
     24 O           7.127000   -2.222000    0.356000 O.2       1 <1>        -0.984200 
     25 O           5.500000   -2.664000    1.711000 O.3       1 <1>        -0.965700 
@<TRIPOS>BOND
     1    2    1 1    
     2    1    3 1    
     3    3    4 1    
     4    3    5 1    
     5    3    6 1    
     6    6    7 1    
     7    6    8 1    
     8    6    9 1    
     9    9   10 1    
    10    9   11 1    
    11    9   12 1    
    12   12   13 1    
    13   13   14 1    
    14   13   15 1    
    15   15   16 1    
    16   15   17 1    
    17   15   18 1    
    18   18   19 1    
    19   18   20 1    
    20   18   21 1    
    21   21   12 am   
    22   21   22 2    
    23   13   23 1    
    24   23   24 2    
    25   23   25 1    
@<TRIPOS>SUBSTRUCTURE
     1 ****        2 TEMP              0 ****  ****    0 ROOT 
@<TRIPOS>SET
UNITY_3DHIT     STATIC     ATOMS    <user>   **** Atoms matching 3D or FLEX Search
0
MATCH_ATOMS     DYNAMIC    ATOMS    <user>   **** 
(1,2,3,4,5,6,7,8,9,10,11,12,13,14,15,16,17,18,19,20,21,22,23,24,25,26,27,28,29,30,31,32)
ATOM$INVISIBLE  STATIC     ATOMS    DISPGROUP SYSTEM 
0
@<TRIPOS>UNITY_ATOM_ATTR
25 1
AtomExpr -1
