#	Name:			mol_49
#	Creating user name:	jeff
#	Creation time:		Wed Dec 11 13:20:53 2002

#	Modifying user name:	jeff
#	Modification time:	Wed Dec 11 13:20:53 2002

@<TRIPOS>MOLECULE
mol_49
   32    32     1     0     3
SMALL
USER_CHARGES
****
From 3DB ct
@<TRIPOS>ATOM
      1 N           3.776000   -0.935000    0.284000 N.am      1 <1>        -0.337300 
      2 C           5.138000   -1.081000   -0.193000 C.3       1 <1>        -0.054400 
      3 H           5.134000   -1.439000   -1.232000 H         1 <1>         0.067100 
      4 C           5.695000    0.354000   -0.121000 C.3       1 <1>        -0.111600 
      5 H           6.580000    0.394000    0.533000 H         1 <1>         0.093100 
      6 H           5.970000    0.701000   -1.129000 H         1 <1>         0.008300 
      7 C           4.584000    1.252000    0.464000 C.3       1 <1>        -0.165800 
      8 H           4.378000    2.076000   -0.232000 H         1 <1>         0.020100 
      9 H           4.915000    1.659000    1.432000 H         1 <1>         0.117500 
     10 C           3.319000    0.390000    0.652000 C.3       1 <1>         0.144100 
     11 H           2.530000    0.733000   -0.033000 H         1 <1>         0.003800 
     12 H           2.971000    0.440000    1.693000 H         1 <1>         0.007000 
     13 C           5.974000   -2.002000    0.653000 C.2       1 <1>         0.830000 
     14 O           7.140000   -2.207000    0.358000 O.2       1 <1>        -0.971100 
     15 O           5.492000   -2.666000    1.705000 O.3       1 <1>        -0.991200 
     16 C           2.961000   -2.025000    0.354000 C.2       1 <1>         0.597600 
     17 O           3.432000   -3.119000    0.048000 O.2       1 <1>        -0.656900 
     18 C           1.534000   -1.905000    0.821000 C.3       1 <1>         0.213700 
     19 H           1.196000   -0.861000    0.775000 H         1 <1>         0.020200 
     20 N           0.652000   -2.696000   -0.048000 N.3       1 <1>        -0.975100 
     21 H          -0.361000   -2.644000    0.323000 H         1 <1>         0.320700 
     22 H           0.981000   -3.725000   -0.067000 H         1 <1>         0.370200 
     23 C           1.379000   -2.369000    2.294000 C.3       1 <1>         0.243800 
     24 H           0.317000   -2.317000    2.577000 H         1 <1>        -0.035000 
     25 C           1.859000   -3.818000    2.512000 C.3       1 <1>        -0.323900 
     26 H           1.684000   -4.093000    3.564000 H         1 <1>         0.056900 
     27 H           2.936000   -3.899000    2.303000 H         1 <1>         0.134700 
     28 H           1.299000   -4.508000    1.867000 H         1 <1>         0.041700 
     29 C           2.164000   -1.447000    3.245000 C.3       1 <1>        -0.437000 
     30 H           3.230000   -1.461000    2.982000 H         1 <1>         0.204300 
     31 H           2.045000   -1.794000    4.283000 H         1 <1>         0.074000 
     32 H           1.776000   -0.422000    3.166000 H         1 <1>         0.068700 
@<TRIPOS>BOND
     1    1    2 1    
     2    2    3 1    
     3    2    4 1    
     4    4    5 1    
     5    4    6 1    
     6    4    7 1    
     7    7    8 1    
     8    7    9 1    
     9    7   10 1    
    10   10   11 1    
    11   10   12 1    
    12   10    1 1    
    13    2   13 1    
    14   13   14 2    
    15   13   15 1    
    16    1   16 am   
    17   16   17 2    
    18   16   18 1    
    19   18   19 1    
    20   18   20 1    
    21   20   21 1    
    22   20   22 1    
    23   18   23 1    
    24   23   24 1    
    25   23   25 1    
    26   25   26 1    
    27   25   27 1    
    28   25   28 1    
    29   23   29 1    
    30   29   30 1    
    31   29   31 1    
    32   29   32 1    
@<TRIPOS>SUBSTRUCTURE
     1 ****        1 TEMP              0 ****  ****    0 ROOT 
@<TRIPOS>SET
UNITY_3DHIT     STATIC     ATOMS    <user>   **** Atoms matching 3D or FLEX Search
0
MATCH_ATOMS     DYNAMIC    ATOMS    <user>   **** 
(1,2,3,4,5,6,7,8,9,10,11,12,13,14,15,16,17,18,19,20,21,22,23,24,25,26,27,28,29,30,31,32,33,34,35)
ATOM$INVISIBLE  STATIC     ATOMS    DISPGROUP SYSTEM 
0
@<TRIPOS>UNITY_ATOM_ATTR
15 1
AtomExpr -1
