#	Name:			mol_22
#	Creating user name:	jeff
#	Creation time:		Wed Dec 11 13:20:53 2002

#	Modifying user name:	jeff
#	Modification time:	Wed Dec 11 13:20:53 2002

@<TRIPOS>MOLECULE
mol_22
   50    52     1     0     3
SMALL
USER_CHARGES
****
From 3DB ct
@<TRIPOS>ATOM
      1 S           4.665000    1.525000    0.605000 S.3       1 <1>        -0.240000 
      2 C           3.305000    0.356000    0.874000 C.3       1 <1>         0.193400 
      3 H           3.136000    0.255000    1.954000 H         1 <1>         0.113500 
      4 N           3.775000   -0.910000    0.345000 N.am      1 <1>        -0.509900 
      5 C           5.144000   -1.046000   -0.145000 C.3       1 <1>        -0.276200 
      6 H           5.122000   -1.424000   -1.179000 H         1 <1>         0.167900 
      7 C           5.806000    0.348000   -0.171000 C.3       1 <1>         0.001600 
      8 H           5.995000    0.655000   -1.211000 H         1 <1>         0.038800 
      9 H           6.752000    0.343000    0.389000 H         1 <1>         0.157200 
     10 C           5.982000   -1.995000    0.677000 C.2       1 <1>         0.894000 
     11 O           7.142000   -2.201000    0.363000 O.2       1 <1>        -0.929100 
     12 O           5.495000   -2.618000    1.722000 O.3       1 <1>        -1.035800 
     13 C           2.985000   -2.004000    0.342000 C.2       1 <1>         0.727700 
     14 C           1.515000   -2.061000    0.702000 C.3       1 <1>         0.293800 
     15 H           1.411000   -1.999000    1.793000 H         1 <1>         0.206400 
     16 C           0.579000   -1.014000    0.078000 C.3       1 <1>        -0.231300 
     17 H          -0.461000   -1.336000    0.249000 H         1 <1>         0.059400 
     18 H           0.765000   -0.925000   -1.002000 H         1 <1>         0.116500 
     19 C           0.776000    0.333000    0.776000 C.3       1 <1>        -0.050800 
     20 H           0.850000    0.196000    1.867000 H         1 <1>         0.035400 
     21 H          -0.085000    0.974000    0.544000 H         1 <1>         0.043400 
     22 C           2.054000    0.976000    0.219000 C.3       1 <1>        -0.241100 
     23 H           2.015000    2.043000    0.478000 H         1 <1>         0.110200 
     24 H           2.086000    0.862000   -0.874000 H         1 <1>         0.088100 
     25 N           1.008000   -3.372000    0.244000 N.4       1 <1>        -0.711300 
     26 H           0.014000   -3.292000   -0.176000 H         1 <1>         0.497600 
     27 H           1.555000   -3.659000   -0.411000 H         1 <1>         0.499100 
     28 C           1.030000   -4.383000    1.309000 C.3       1 <1>         0.052700 
     29 H           1.896000   -4.207000    1.965000 H         1 <1>         0.132000 
     30 C          -0.280000   -4.320000    2.124000 C.3       1 <1>         0.052800 
     31 H          -0.416000   -3.301000    2.519000 H         1 <1>         0.001400 
     32 H          -1.134000   -4.581000    1.482000 H         1 <1>         0.091500 
     33 C          -0.187000   -5.311000    3.298000 C.3       1 <1>        -0.430600 
     34 H           0.493000   -6.139000    3.049000 H         1 <1>         0.165100 
     35 H           0.222000   -4.768000    4.161000 H         1 <1>         0.120100 
     36 C          -1.549000   -5.880000    3.689000 C.ar      1 <1>         0.206400 
     37 C          -1.682000   -7.256000    3.886000 C.ar      1 <1>        -0.200500 
     38 H          -0.857000   -7.926000    3.675000 H         1 <1>         0.222800 
     39 C          -2.888000   -7.772000    4.368000 C.ar      1 <1>        -0.164200 
     40 H          -2.997000   -8.839000    4.529000 H         1 <1>         0.146700 
     41 C          -3.955000   -6.913000    4.641000 C.ar      1 <1>        -0.160100 
     42 H          -4.888000   -7.316000    5.015000 H         1 <1>         0.131600 
     43 C          -3.828000   -5.540000    4.419000 C.ar      1 <1>        -0.149500 
     44 H          -4.671000   -4.882000    4.599000 H         1 <1>         0.134500 
     45 C          -2.617000   -5.020000    3.957000 C.ar      1 <1>        -0.289300 
     46 H          -2.502000   -3.951000    3.815000 H         1 <1>         0.182900 
     47 C           1.171000   -5.733000    0.668000 C.2       1 <1>         0.693600 
     48 O           2.088000   -6.474000    0.981000 O.2       1 <1>        -0.809600 
     49 O           0.302000   -6.107000   -0.238000 O.3       1 <1>        -0.932500 
     50 O           3.447000   -3.099000    0.058000 O.2       1 <1>        -0.638600 
@<TRIPOS>BOND
     1    1    2 1    
     2    2    3 1    
     3    2    4 1    
     4    4    5 1    
     5    5    6 1    
     6    5    7 1    
     7    7    8 1    
     8    7    9 1    
     9    7    1 1    
    10    5   10 1    
    11   10   11 2    
    12   10   12 1    
    13    4   13 am   
    14   13   14 1    
    15   14   15 1    
    16   14   16 1    
    17   16   17 1    
    18   16   18 1    
    19   16   19 1    
    20   19   20 1    
    21   19   21 1    
    22   19   22 1    
    23   22   23 1    
    24   22   24 1    
    25   22    2 1    
    26   14   25 1    
    27   25   26 1    
    28   25   27 1    
    29   25   28 1    
    30   28   29 1    
    31   28   30 1    
    32   30   31 1    
    33   30   32 1    
    34   30   33 1    
    35   33   34 1    
    36   33   35 1    
    37   33   36 1    
    38   36   37 ar   
    39   37   38 1    
    40   37   39 ar   
    41   39   40 1    
    42   39   41 ar   
    43   41   42 1    
    44   41   43 ar   
    45   43   44 1    
    46   43   45 ar   
    47   45   46 1    
    48   45   36 ar   
    49   28   47 1    
    50   47   48 2    
    51   47   49 1    
    52   13   50 2    
@<TRIPOS>SUBSTRUCTURE
     1 ****        1 TEMP              0 ****  ****    0 ROOT 
@<TRIPOS>SET
UNITY_3DHIT     STATIC     ATOMS    <user>   **** Atoms matching 3D or FLEX Search
0
MATCH_ATOMS     DYNAMIC    ATOMS    <user>   **** 
(1,2,3,4,5,6,7,8,9,10,11,12,13,14,15,16,17,18,19,20,21,22,23,24,25,26,27,28,29,30,31,32,33,34,35,36,37,38,39,40,41,42,43,44)
ATOM$INVISIBLE  STATIC     ATOMS    DISPGROUP SYSTEM 
0
@<TRIPOS>UNITY_ATOM_ATTR
12 1
AtomExpr -1
25 1
AtomExpr +1
49 1
AtomExpr -1
