#	Name:			mol_24
#	Creating user name:	jeff
#	Creation time:		Wed Dec 11 13:20:53 2002

#	Modifying user name:	jeff
#	Modification time:	Wed Dec 11 13:20:53 2002

@<TRIPOS>MOLECULE
mol_24
   57    59     1     0     3
SMALL
USER_CHARGES
****
From 3DB ct
@<TRIPOS>ATOM
      1 P           0.270000   -2.955000   -0.153000 P.3       1 <1>         1.546900 
      2 O          -0.390000   -2.052000   -1.118000 O.2       1 <1>        -1.094100 
      3 O           0.741000   -4.255000   -0.966000 O.3       1 <1>        -1.045100 
      4 C           1.515000   -2.005000    0.835000 C.3       1 <1>        -0.714500 
      5 H           1.532000   -2.487000    1.821000 H         1 <1>         0.137300 
      6 H           1.149000   -0.975000    0.964000 H         1 <1>         0.123900 
      7 C           2.944000   -2.026000    0.340000 C.2       1 <1>         0.872400 
      8 N           3.729000   -0.929000    0.266000 N.am      1 <1>        -0.584100 
      9 C           5.109000   -1.066000   -0.168000 C.3       1 <1>         0.146600 
     10 H           5.118000   -1.417000   -1.209000 H         1 <1>         0.036500 
     11 C           5.593000    0.397000   -0.141000 C.3       1 <1>        -0.160500 
     12 H           6.086000    0.627000   -1.097000 H         1 <1>         0.005200 
     13 H           6.291000    0.566000    0.691000 H         1 <1>         0.094000 
     14 C           4.354000    1.299000    0.051000 C.3       1 <1>        -0.132500 
     15 H           4.565000    2.087000    0.789000 H         1 <1>        -0.007600 
     16 H           4.099000    1.760000   -0.914000 H         1 <1>         0.050400 
     17 C           3.199000    0.395000    0.530000 C.3       1 <1>         0.286100 
     18 H           2.292000    0.602000   -0.061000 H         1 <1>         0.003500 
     19 H           3.002000    0.540000    1.604000 H         1 <1>        -0.004600 
     20 C           5.953000   -2.006000    0.668000 C.2       1 <1>         0.728700 
     21 O           7.107000   -2.229000    0.338000 O.2       1 <1>        -0.995800 
     22 O           5.463000   -2.614000    1.721000 O.3       1 <1>        -0.963000 
     23 O           3.388000   -3.133000    0.041000 O.2       1 <1>        -0.686700 
     24 C          -0.920000   -3.789000    0.985000 C.3       1 <1>        -0.858100 
     25 H          -1.718000   -4.246000    0.383000 H         1 <1>         0.162400 
     26 H          -0.324000   -4.583000    1.438000 H         1 <1>         0.130100 
     27 C          -1.524000   -2.923000    2.110000 C.3       1 <1>         1.057200 
     28 H          -0.695000   -2.582000    2.746000 H         1 <1>        -0.119200 
     29 N          -2.052000   -1.770000    1.401000 N.am      1 <1>        -1.156100 
     30 H          -1.629000   -0.886000    1.605000 H         1 <1>         0.566600 
     31 C          -2.964000   -1.896000    0.407000 C.2       1 <1>         0.828300 
     32 O          -3.640000   -2.893000    0.203000 O.2       1 <1>        -0.750400 
     33 C          -3.096000   -0.724000   -0.535000 C.ar      1 <1>        -0.023600 
     34 C          -4.284000   -0.368000   -1.181000 C.ar      1 <1>        -0.174800 
     35 H          -5.174000   -0.971000   -1.041000 H         1 <1>         0.170000 
     36 C          -4.330000    0.758000   -2.007000 C.ar      1 <1>        -0.176100 
     37 H          -5.260000    1.041000   -2.485000 H         1 <1>         0.117300 
     38 C          -3.179000    1.520000   -2.216000 C.ar      1 <1>        -0.178500 
     39 H          -3.208000    2.384000   -2.872000 H         1 <1>         0.121200 
     40 C          -1.988000    1.166000   -1.578000 C.ar      1 <1>        -0.133400 
     41 H          -1.093000    1.758000   -1.736000 H         1 <1>         0.133500 
     42 C          -1.949000    0.053000   -0.734000 C.ar      1 <1>        -0.112500 
     43 H          -1.020000   -0.200000   -0.236000 H         1 <1>         0.200100 
     44 C          -2.623000   -3.518000    3.036000 C.3       1 <1>        -0.780800 
     45 H          -2.740000   -2.789000    3.852000 H         1 <1>         0.182000 
     46 H          -3.563000   -3.530000    2.469000 H         1 <1>         0.218900 
     47 C          -2.538000   -4.902000    3.717000 C.ar      1 <1>         0.306300 
     48 C          -3.638000   -5.164000    4.546000 C.ar      1 <1>        -0.254700 
     49 H          -4.378000   -4.396000    4.724000 H         1 <1>         0.159000 
     50 C          -3.780000   -6.422000    5.133000 C.ar      1 <1>        -0.177500 
     51 H          -4.631000   -6.635000    5.767000 H         1 <1>         0.125800 
     52 C          -2.823000   -7.418000    4.907000 C.ar      1 <1>        -0.177000 
     53 H          -2.931000   -8.391000    5.374000 H         1 <1>         0.122000 
     54 C          -1.728000   -7.159000    4.080000 C.ar      1 <1>        -0.161100 
     55 H          -0.991000   -7.933000    3.895000 H         1 <1>         0.153300 
     56 C          -1.586000   -5.899000    3.491000 C.ar      1 <1>        -0.200000 
     57 H          -0.737000   -5.701000    2.848000 H         1 <1>         0.192500 
@<TRIPOS>BOND
     1    1    2 2    
     2    1    3 1    
     3    1    4 1    
     4    4    5 1    
     5    4    6 1    
     6    4    7 1    
     7    7    8 am   
     8    8    9 1    
     9    9   10 1    
    10    9   11 1    
    11   11   12 1    
    12   11   13 1    
    13   11   14 1    
    14   14   15 1    
    15   14   16 1    
    16   14   17 1    
    17   17   18 1    
    18   17   19 1    
    19   17    8 1    
    20    9   20 1    
    21   20   21 2    
    22   20   22 1    
    23    7   23 2    
    24    1   24 1    
    25   24   25 1    
    26   24   26 1    
    27   24   27 1    
    28   27   28 1    
    29   27   29 1    
    30   29   30 1    
    31   29   31 am   
    32   31   32 2    
    33   31   33 1    
    34   33   34 ar   
    35   34   35 1    
    36   34   36 ar   
    37   36   37 1    
    38   36   38 ar   
    39   38   39 1    
    40   38   40 ar   
    41   40   41 1    
    42   40   42 ar   
    43   42   43 1    
    44   42   33 ar   
    45   27   44 1    
    46   44   45 1    
    47   44   46 1    
    48   44   47 1    
    49   47   48 ar   
    50   48   49 1    
    51   48   50 ar   
    52   50   51 1    
    53   50   52 ar   
    54   52   53 1    
    55   52   54 ar   
    56   54   55 1    
    57   54   56 ar   
    58   56   57 1    
    59   56   47 ar   
@<TRIPOS>SUBSTRUCTURE
     1 ****        1 TEMP              0 ****  ****    0 ROOT 
@<TRIPOS>SET
UNITY_3DHIT     STATIC     ATOMS    <user>   **** Atoms matching 3D or FLEX Search
0
MATCH_ATOMS     DYNAMIC    ATOMS    <user>   **** 
(1,2,3,4,5,6,7,8,9,10,11,12,13,14,15,16,17,18,19,20,21,22,23,24,25,26,27,28,29,30,31,32,33,34,35,36,37,38,39,40,41,42,43,44)
ATOM$INVISIBLE  STATIC     ATOMS    DISPGROUP SYSTEM 
0
@<TRIPOS>UNITY_ATOM_ATTR
3 1
AtomExpr -1
22 1
AtomExpr -1
