#	Name:			mol_66
#	Creating user name:	jeff
#	Creation time:		Wed Dec 11 13:20:54 2002

#	Modifying user name:	jeff
#	Modification time:	Wed Dec 11 13:20:54 2002

@<TRIPOS>MOLECULE
mol_66
   32    32     1     0     3
SMALL
USER_CHARGES
****
From 3DB ct
@<TRIPOS>ATOM
      1 N           3.764000   -0.949000    0.311000 N.am      1 <1>        -0.411500 
      2 C           5.136000   -1.062000   -0.152000 C.3       1 <1>         0.067700 
      3 H           5.159000   -1.367000   -1.209000 H         1 <1>         0.043900 
      4 C           5.668000    0.377000   -0.012000 C.3       1 <1>        -0.164100 
      5 H           6.531000    0.399000    0.672000 H         1 <1>         0.107300 
      6 H           5.967000    0.758000   -1.000000 H         1 <1>         0.027600 
      7 C           4.531000    1.241000    0.571000 C.3       1 <1>        -0.116000 
      8 H           4.840000    1.601000    1.564000 H         1 <1>         0.104800 
      9 H           4.340000    2.099000   -0.087000 H         1 <1>         0.025400 
     10 C           3.274000    0.357000    0.705000 C.3       1 <1>         0.107100 
     11 H           2.968000    0.379000    1.759000 H         1 <1>         0.028400 
     12 H           2.460000    0.707000    0.051000 H         1 <1>         0.018800 
     13 C           5.976000   -2.002000    0.672000 C.2       1 <1>         0.834700 
     14 O           7.137000   -2.203000    0.358000 O.2       1 <1>        -0.953900 
     15 O           5.494000   -2.622000    1.721000 O.3       1 <1>        -0.987600 
     16 C           2.978000   -2.045000    0.336000 C.2       1 <1>         0.366700 
     17 O           3.430000   -3.127000   -0.002000 O.2       1 <1>        -0.536400 
     18 C           1.526000   -1.990000    0.758000 C.3       1 <1>         0.507400 
     19 H           1.026000   -1.191000    0.192000 H         1 <1>        -0.038400 
     20 N           0.801000   -3.238000    0.434000 N.4       1 <1>        -0.420600 
     21 H           0.948000   -3.415000   -0.622000 H         1 <1>         0.388100 
     22 H          -0.077000   -3.119000    0.593000 H         1 <1>         0.460400 
     23 C           1.264000   -4.440000    1.157000 C.3       1 <1>        -0.067700 
     24 H           0.416000   -4.920000    1.645000 H         1 <1>         0.089400 
     25 H           2.013000   -4.154000    1.911000 H         1 <1>         0.105500 
     26 C           1.880000   -5.422000    0.197000 C.2       1 <1>         0.814400 
     27 O           3.012000   -5.825000    0.402000 O.2       1 <1>        -0.836600 
     28 O           1.222000   -5.858000   -0.849000 O.3       1 <1>        -1.003200 
     29 C           1.352000   -1.694000    2.263000 C.3       1 <1>        -0.481700 
     30 H           1.515000   -0.627000    2.468000 H         1 <1>         0.183100 
     31 H           2.060000   -2.298000    2.852000 H         1 <1>         0.204100 
     32 H           0.321000   -1.947000    2.555000 H         1 <1>         0.111000 
@<TRIPOS>BOND
     1    1    2 1    
     2    2    3 1    
     3    2    4 1    
     4    4    5 1    
     5    4    6 1    
     6    4    7 1    
     7    7    8 1    
     8    7    9 1    
     9    7   10 1    
    10   10   11 1    
    11   10   12 1    
    12   10    1 1    
    13    2   13 1    
    14   13   14 2    
    15   13   15 1    
    16    1   16 am   
    17   16   17 2    
    18   16   18 1    
    19   18   19 1    
    20   18   20 1    
    21   20   21 1    
    22   20   22 1    
    23   20   23 1    
    24   23   24 1    
    25   23   25 1    
    26   23   26 1    
    27   26   27 2    
    28   26   28 1    
    29   18   29 1    
    30   29   30 1    
    31   29   31 1    
    32   29   32 1    
@<TRIPOS>SUBSTRUCTURE
     1 ****        1 TEMP              0 ****  ****    0 ROOT 
@<TRIPOS>SET
UNITY_3DHIT     STATIC     ATOMS    <user>   **** Atoms matching 3D or FLEX Search
0
MATCH_ATOMS     DYNAMIC    ATOMS    <user>   **** 
(1,2,3,4,5,6,7,8,9,10,11,12,13,14,15,16,17,18,19,20,21,22,23,24,25,26,27,28,29,30,31,32)
ATOM$INVISIBLE  STATIC     ATOMS    DISPGROUP SYSTEM 
0
@<TRIPOS>UNITY_ATOM_ATTR
15 1
AtomExpr -1
20 1
AtomExpr +1
28 1
AtomExpr -1
