#	Name:			mol_38
#	Creating user name:	jeff
#	Creation time:		Wed Dec 11 13:20:53 2002

#	Modifying user name:	jeff
#	Modification time:	Wed Dec 11 13:20:53 2002

@<TRIPOS>MOLECULE
mol_38
   22    21     1     0     3
SMALL
USER_CHARGES
****
From 3DB ct
@<TRIPOS>ATOM
      1 N           3.776000   -0.935000    0.284000 N.am      1 <1>        -1.083000 
      2 H           3.447000   -0.028000    0.548000 H         1 <1>         0.466200 
      3 C           2.961000   -2.025000    0.354000 C.2       1 <1>         0.930100 
      4 O           3.432000   -3.119000    0.048000 O.2       1 <1>        -0.692000 
      5 C           1.540000   -1.886000    0.826000 C.3       1 <1>        -0.218100 
      6 H           1.527000   -1.721000    1.914000 H         1 <1>         0.006300 
      7 H           1.059000   -1.032000    0.330000 H         1 <1>         0.113100 
      8 C           0.758000   -3.174000    0.490000 C.3       1 <1>        -0.142700 
      9 H           1.186000   -4.006000    1.072000 H         1 <1>         0.004500 
     10 H          -0.298000   -3.049000    0.761000 H         1 <1>        -0.011300 
     11 C           0.866000   -3.454000   -0.984000 C.2       1 <1>         0.817500 
     12 O           0.548000   -2.605000   -1.801000 O.2       1 <1>        -0.996000 
     13 O           1.303000   -4.620000   -1.395000 O.3       1 <1>        -1.027600 
     14 C           5.141000   -1.079000   -0.202000 C.3       1 <1>         0.415400 
     15 H           5.121000   -1.461000   -1.235000 H         1 <1>        -0.050300 
     16 C           5.802000    0.314000   -0.243000 C.3       1 <1>        -0.187500 
     17 H           6.820000    0.220000   -0.650000 H         1 <1>         0.016600 
     18 H           5.848000    0.737000    0.772000 H         1 <1>         0.039600 
     19 H           5.204000    0.972000   -0.890000 H         1 <1>         0.009400 
     20 C           5.981000   -2.006000    0.639000 C.2       1 <1>         0.692300 
     21 O           7.145000   -2.222000    0.339000 O.2       1 <1>        -0.979700 
     22 O           5.502000   -2.657000    1.700000 O.3       1 <1>        -0.966900 
@<TRIPOS>BOND
     1    2    1 1    
     2    1    3 am   
     3    3    4 2    
     4    3    5 1    
     5    5    6 1    
     6    5    7 1    
     7    5    8 1    
     8    8    9 1    
     9    8   10 1    
    10    8   11 1    
    11   11   12 2    
    12   11   13 1    
    13    1   14 1    
    14   14   15 1    
    15   14   16 1    
    16   16   17 1    
    17   16   18 1    
    18   16   19 1    
    19   14   20 1    
    20   20   21 2    
    21   20   22 1    
@<TRIPOS>SUBSTRUCTURE
     1 ****        2 TEMP              0 ****  ****    0 ROOT 
@<TRIPOS>SET
UNITY_3DHIT     STATIC     ATOMS    <user>   **** Atoms matching 3D or FLEX Search
0
MATCH_ATOMS     DYNAMIC    ATOMS    <user>   **** 
(1,2,3,4,5,6,7,8,9,10,11,12,13,14,15,16,17,18,19,20,21,22,23,24,25,26,27,28,29,30,31,32,33,34,35)
ATOM$INVISIBLE  STATIC     ATOMS    DISPGROUP SYSTEM 
0
@<TRIPOS>UNITY_ATOM_ATTR
13 1
AtomExpr -1
22 1
AtomExpr -1
