#	Name:			mol_41
#	Creating user name:	jeff
#	Creation time:		Wed Dec 11 13:20:53 2002

#	Modifying user name:	jeff
#	Modification time:	Wed Dec 11 13:20:53 2002

@<TRIPOS>MOLECULE
mol_41
   28    28     1     0     3
SMALL
USER_CHARGES
INVALID_CHARGES
From 3DB ct
@<TRIPOS>ATOM
      1 S           0.618000   -3.679000   -1.293000 S.3       1 <1>        -0.281300 
      2 H          -0.400000   -3.745000   -1.564000 H         1 <1>         0.227000 
      3 C           0.722000   -3.251000    0.473000 C.3       1 <1>        -0.331700 
      4 H           1.209000   -4.086000    1.001000 H         1 <1>         0.121000 
      5 H          -0.305000   -3.142000    0.855000 H         1 <1>         0.159400 
      6 C           1.517000   -1.960000    0.793000 C.3       1 <1>         0.201400 
      7 H           1.020000   -1.107000    0.313000 H         1 <1>         0.033600 
      8 C           2.961000   -2.025000    0.354000 C.2       1 <1>         0.603500 
      9 N           3.776000   -0.935000    0.284000 N.am      1 <1>        -0.510500 
     10 C           5.138000   -1.079000   -0.191000 C.3       1 <1>         0.133900 
     11 H           5.755000   -1.758000    0.417000 H         1 <1>         0.019900 
     12 C           5.690000    0.358000   -0.124000 C.3       1 <1>        -0.167000 
     13 H           6.572000    0.390000    0.533000 H         1 <1>         0.017500 
     14 H           5.970000    0.700000   -1.130000 H         1 <1>         0.094400 
     15 C           4.573000    1.259000    0.451000 C.3       1 <1>        -0.104200 
     16 H           4.337000    2.065000   -0.258000 H         1 <1>         0.100800 
     17 H           4.901000    1.698000    1.406000 H         1 <1>         0.006700 
     18 C           3.324000    0.383000    0.676000 C.3       1 <1>         0.142400 
     19 H           2.494000    0.731000    0.045000 H         1 <1>         0.008800 
     20 H           3.042000    0.408000    1.737000 H         1 <1>         0.008200 
     21 C           5.134000   -1.579000   -1.608000 C.2       1 <1>         0.774400 
     22 O           4.763000   -2.713000   -1.865000 O.2       1 <1>        -0.966900 
     23 O           5.560000   -0.838000   -2.634000 O.3       1 <1>        -0.963400 
     24 O           3.432000   -3.119000    0.048000 O.2       1 <1>        -0.618500 
     25 C           1.443000   -1.772000    2.324000 C.3       1 <1>        -0.405200 
     26 H           1.869000   -0.809000    2.630000 H         1 <1>         0.096000 
     27 H           1.988000   -2.591000    2.819000 H         1 <1>         0.110100 
     28 H           0.386000   -1.801000    2.632000 H         1 <1>         0.067800 
@<TRIPOS>BOND
     1    2    1 1    
     2    1    3 1    
     3    3    4 1    
     4    3    5 1    
     5    3    6 1    
     6    6    7 1    
     7    6    8 1    
     8    8    9 am   
     9    9   10 1    
    10   10   11 1    
    11   10   12 1    
    12   12   13 1    
    13   12   14 1    
    14   12   15 1    
    15   15   16 1    
    16   15   17 1    
    17   15   18 1    
    18   18   19 1    
    19   18   20 1    
    20   18    9 1    
    21   10   21 1    
    22   21   22 2    
    23   21   23 1    
    24    8   24 2    
    25    6   25 1    
    26   25   26 1    
    27   25   27 1    
    28   25   28 1    
@<TRIPOS>SUBSTRUCTURE
     1 ****        2 TEMP              0 ****  ****    0 ROOT 
@<TRIPOS>SET
UNITY_3DHIT     STATIC     ATOMS    <user>   **** Atoms matching 3D or FLEX Search
0
MATCH_ATOMS     DYNAMIC    ATOMS    <user>   **** 
(1,2,3,4,5,6,7,8,9,10,11,12,13,14,15,16,17,18,19,20,21,22,23,24,25,26,27,28,29,30,31,32,33,34,35)
ATOM$INVISIBLE  STATIC     ATOMS    DISPGROUP SYSTEM 
0
@<TRIPOS>UNITY_ATOM_ATTR
23 1
AtomExpr -1
