#	Name:			mol_51
#	Creating user name:	jeff
#	Creation time:		Wed Dec 11 13:20:53 2002

#	Modifying user name:	jeff
#	Modification time:	Wed Dec 11 13:20:53 2002

@<TRIPOS>MOLECULE
mol_51
   29    29     1     0     3
SMALL
USER_CHARGES
****
From 3DB ct
@<TRIPOS>ATOM
      1 N           3.776000   -0.935000    0.284000 N.am      1 <1>        -1.145300 
      2 H           3.435000   -0.030000    0.547000 H         1 <1>         0.478500 
      3 C           2.961000   -2.025000    0.354000 C.2       1 <1>         0.891300 
      4 O           3.432000   -3.119000    0.048000 O.2       1 <1>        -0.730400 
      5 C           1.546000   -1.856000    0.819000 C.3       1 <1>         0.062400 
      6 H           1.539000   -1.727000    1.910000 H         1 <1>         0.088900 
      7 H           1.081000   -0.979000    0.347000 H         1 <1>         0.056700 
      8 N           0.735000   -3.038000    0.483000 N.3       1 <1>        -0.874400 
      9 H          -0.288000   -2.867000    0.790000 H         1 <1>         0.313800 
     10 H           1.130000   -3.897000    1.008000 H         1 <1>         0.318700 
     11 C           5.148000   -1.061000   -0.195000 C.3       1 <1>         0.601100 
     12 H           5.128000   -1.440000   -1.230000 H         1 <1>        -0.055500 
     13 C           5.768000    0.353000   -0.191000 C.3       1 <1>        -0.295300 
     14 H           5.182000    1.004000   -0.855000 H         1 <1>         0.040900 
     15 H           5.730000    0.757000    0.832000 H         1 <1>         0.113200 
     16 C           7.210000    0.337000   -0.692000 C.ar      1 <1>         0.087900 
     17 C           8.265000    0.560000    0.197000 C.ar      1 <1>        -0.207700 
     18 H           8.061000    0.745000    1.244000 H         1 <1>         0.218700 
     19 C           9.583000    0.541000   -0.263000 C.ar      1 <1>        -0.145100 
     20 H          10.399000    0.721000    0.426000 H         1 <1>         0.119800 
     21 C           9.848000    0.292000   -1.611000 C.ar      1 <1>        -0.179500 
     22 H          10.871000    0.271000   -1.965000 H         1 <1>         0.117600 
     23 C           8.794000    0.069000   -2.501000 C.ar      1 <1>        -0.209100 
     24 H           9.002000   -0.121000   -3.546000 H         1 <1>         0.128700 
     25 C           7.476000    0.092000   -2.041000 C.ar      1 <1>        -0.131500 
     26 H           6.660000   -0.080000   -2.731000 H         1 <1>         0.154200 
     27 C           5.981000   -2.006000    0.639000 C.2       1 <1>         0.597000 
     28 O           7.145000   -2.222000    0.339000 O.2       1 <1>        -0.908900 
     29 O           5.502000   -2.657000    1.700000 O.3       1 <1>        -0.928500 
@<TRIPOS>BOND
     1    2    1 1    
     2    1    3 am   
     3    3    4 2    
     4    3    5 1    
     5    5    6 1    
     6    5    7 1    
     7    5    8 1    
     8    8    9 1    
     9    8   10 1    
    10    1   11 1    
    11   11   12 1    
    12   11   13 1    
    13   13   14 1    
    14   13   15 1    
    15   13   16 1    
    16   16   17 ar   
    17   17   18 1    
    18   17   19 ar   
    19   19   20 1    
    20   19   21 ar   
    21   21   22 1    
    22   21   23 ar   
    23   23   24 1    
    24   23   25 ar   
    25   25   26 1    
    26   25   16 ar   
    27   11   27 1    
    28   27   28 2    
    29   27   29 1    
@<TRIPOS>SUBSTRUCTURE
     1 ****        2 TEMP              0 ****  ****    0 ROOT 
@<TRIPOS>SET
UNITY_3DHIT     STATIC     ATOMS    <user>   **** Atoms matching 3D or FLEX Search
0
MATCH_ATOMS     DYNAMIC    ATOMS    <user>   **** 
(1,2,3,4,5,6,7,8,9,10,11,12,13,14,15,16,17,18,19,20,21,22,23,24,25,26,27,28,29,30,31,32,33,34,35)
ATOM$INVISIBLE  STATIC     ATOMS    DISPGROUP SYSTEM 
0
@<TRIPOS>UNITY_ATOM_ATTR
29 1
AtomExpr -1
