#	Name:			mol_18
#	Creating user name:	jeff
#	Creation time:		Wed Dec 11 13:20:52 2002

#	Modifying user name:	jeff
#	Modification time:	Wed Dec 11 13:20:52 2002

@<TRIPOS>MOLECULE
mol_18
   48    49     1     0     3
SMALL
USER_CHARGES
****
From 3DB ct
@<TRIPOS>ATOM
      1 N           3.765000   -0.949000    0.310000 N.am      1 <1>        -0.480400 
      2 C           5.136000   -1.062000   -0.152000 C.3       1 <1>         0.137000 
      3 H           5.160000   -1.368000   -1.209000 H         1 <1>         0.038400 
      4 C           5.668000    0.377000   -0.013000 C.3       1 <1>        -0.219300 
      5 H           6.532000    0.398000    0.671000 H         1 <1>         0.110000 
      6 H           5.968000    0.758000   -1.001000 H         1 <1>         0.040700 
      7 C           4.531000    1.241000    0.569000 C.3       1 <1>        -0.039100 
      8 H           4.840000    1.601000    1.562000 H         1 <1>         0.089900 
      9 H           4.341000    2.099000   -0.089000 H         1 <1>         0.006000 
     10 C           3.275000    0.357000    0.704000 C.3       1 <1>         0.082400 
     11 H           2.968000    0.380000    1.758000 H         1 <1>         0.019200 
     12 H           2.461000    0.708000    0.049000 H         1 <1>         0.022900 
     13 C           5.976000   -2.002000    0.672000 C.2       1 <1>         0.807500 
     14 O           7.137000   -2.203000    0.358000 O.2       1 <1>        -0.947600 
     15 O           5.494000   -2.622000    1.721000 O.3       1 <1>        -0.989100 
     16 C           2.978000   -2.045000    0.336000 C.2       1 <1>         0.412400 
     17 O           3.430000   -3.127000   -0.002000 O.2       1 <1>        -0.527600 
     18 C           1.531000   -1.987000    0.756000 C.3       1 <1>         0.642700 
     19 H           1.026000   -1.191000    0.191000 H         1 <1>        -0.048200 
     20 N           0.859000   -3.247000    0.387000 N.4       1 <1>        -0.697400 
     21 H          -0.212000   -3.096000    0.402000 H         1 <1>         0.440600 
     22 H           1.082000   -3.416000   -0.469000 H         1 <1>         0.484000 
     23 C           1.230000   -4.450000    1.164000 C.3       1 <1>         0.120400 
     24 H           1.958000   -4.180000    1.943000 H         1 <1>         0.137400 
     25 C          -0.091000   -4.963000    1.800000 C.3       1 <1>         0.024600 
     26 H          -0.670000   -5.551000    1.076000 H         1 <1>         0.067000 
     27 H          -0.664000   -4.065000    2.068000 H         1 <1>        -0.018300 
     28 C           0.026000   -5.758000    3.117000 C.3       1 <1>        -0.338000 
     29 H           0.553000   -6.707000    2.938000 H         1 <1>         0.151100 
     30 H           0.597000   -5.164000    3.846000 H         1 <1>         0.092300 
     31 C          -1.382000   -6.018000    3.684000 C.ar      1 <1>         0.179100 
     32 C          -1.830000   -7.326000    3.894000 C.ar      1 <1>        -0.216900 
     33 H          -1.194000   -8.163000    3.638000 H         1 <1>         0.201400 
     34 C          -3.095000   -7.558000    4.441000 C.ar      1 <1>        -0.166900 
     35 H          -3.436000   -8.572000    4.610000 H         1 <1>         0.144000 
     36 C          -3.932000   -6.484000    4.758000 C.ar      1 <1>        -0.145600 
     37 H          -4.920000   -6.666000    5.164000 H         1 <1>         0.129600 
     38 C          -3.494000   -5.178000    4.527000 C.ar      1 <1>        -0.147900 
     39 H          -4.146000   -4.345000    4.765000 H         1 <1>         0.137100 
     40 C          -2.230000   -4.948000    3.979000 C.ar      1 <1>        -0.269500 
     41 H          -1.905000   -3.931000    3.793000 H         1 <1>         0.185100 
     42 C           1.879000   -5.422000    0.198000 C.2       1 <1>         0.677500 
     43 O           3.011000   -5.825000    0.402000 O.2       1 <1>        -0.791800 
     44 O           1.222000   -5.858000   -0.849000 O.3       1 <1>        -0.939300 
     45 C           1.350000   -1.695000    2.262000 C.3       1 <1>        -0.463200 
     46 H           1.516000   -0.629000    2.467000 H         1 <1>         0.193400 
     47 H           2.060000   -2.297000    2.852000 H         1 <1>         0.177600 
     48 H           0.321000   -1.946000    2.554000 H         1 <1>         0.072800 
@<TRIPOS>BOND
     1    1    2 1    
     2    2    3 1    
     3    2    4 1    
     4    4    5 1    
     5    4    6 1    
     6    4    7 1    
     7    7    8 1    
     8    7    9 1    
     9    7   10 1    
    10   10   11 1    
    11   10   12 1    
    12   10    1 1    
    13    2   13 1    
    14   13   14 2    
    15   13   15 1    
    16    1   16 am   
    17   16   17 2    
    18   16   18 1    
    19   18   19 1    
    20   18   20 1    
    21   20   21 1    
    22   20   22 1    
    23   20   23 1    
    24   23   24 1    
    25   23   25 1    
    26   25   26 1    
    27   25   27 1    
    28   25   28 1    
    29   28   29 1    
    30   28   30 1    
    31   28   31 1    
    32   31   32 ar   
    33   32   33 1    
    34   32   34 ar   
    35   34   35 1    
    36   34   36 ar   
    37   36   37 1    
    38   36   38 ar   
    39   38   39 1    
    40   38   40 ar   
    41   40   41 1    
    42   40   31 ar   
    43   23   42 1    
    44   42   43 2    
    45   42   44 1    
    46   18   45 1    
    47   45   46 1    
    48   45   47 1    
    49   45   48 1    
@<TRIPOS>SUBSTRUCTURE
     1 ****        1 TEMP              0 ****  ****    0 ROOT 
@<TRIPOS>SET
UNITY_3DHIT     STATIC     ATOMS    <user>   **** Atoms matching 3D or FLEX Search
0
MATCH_ATOMS     DYNAMIC    ATOMS    <user>   **** 
(1,2,3,4,5,6,7,8,9,10,11,12,13,14,15,16,17,18,19,20,21,22,23,24,25,26,27,28,29,30,31,32,33,34,35,36,37,38,39,40,41,42,43,44)
ATOM$INVISIBLE  STATIC     ATOMS    DISPGROUP SYSTEM 
0
@<TRIPOS>UNITY_ATOM_ATTR
15 1
AtomExpr -1
20 1
AtomExpr +1
44 1
AtomExpr -1
