#	Name:			mol_04
#	Creating user name:	jeff
#	Creation time:		Wed Dec 11 13:20:52 2002

#	Modifying user name:	jeff
#	Modification time:	Wed Dec 11 13:20:52 2002

@<TRIPOS>MOLECULE
mol_04
   32    33     1     0     3
SMALL
USER_CHARGES
INVALID_CHARGES
From 3DB ct
@<TRIPOS>ATOM
      1 S           0.618000   -3.679000   -1.293000 S.3       1 <1>        -0.263600 
      2 H          -0.400000   -3.745000   -1.564000 H         1 <1>         0.157400 
      3 C           0.722000   -3.251000    0.473000 C.3       1 <1>        -0.391300 
      4 H           1.209000   -4.086000    1.001000 H         1 <1>         0.132200 
      5 H          -0.305000   -3.142000    0.855000 H         1 <1>         0.169300 
      6 C           1.516000   -1.966000    0.780000 C.3       1 <1>         0.510400 
      7 H           0.993000   -1.162000    0.248000 H         1 <1>        -0.065000 
      8 C           2.961000   -2.025000    0.354000 C.2       1 <1>         0.522500 
      9 N           3.772000   -0.939000    0.285000 N.am      1 <1>        -0.631500 
     10 C           5.157000   -1.057000   -0.172000 C.3       1 <1>         0.410000 
     11 H           5.176000   -1.392000   -1.218000 H         1 <1>        -0.009000 
     12 C           5.731000    0.391000   -0.101000 C.3       1 <1>        -0.468200 
     13 H           6.558000    0.453000    0.620000 H         1 <1>         0.199800 
     14 H           6.062000    0.732000   -1.092000 H         1 <1>         0.095300 
     15 C           4.557000    1.243000    0.367000 C.ar      1 <1>         0.064100 
     16 C           3.467000    0.414000    0.566000 C.ar      1 <1>         0.364200 
     17 C           2.245000    0.951000    0.989000 C.ar      1 <1>        -0.414400 
     18 H           1.368000    0.365000    1.199000 H         1 <1>         0.202600 
     19 C           2.151000    2.337000    1.153000 C.ar      1 <1>        -0.087500 
     20 H           1.203000    2.770000    1.446000 H         1 <1>         0.123600 
     21 C           3.258000    3.165000    0.940000 C.ar      1 <1>        -0.257200 
     22 H           3.151000    4.237000    1.047000 H         1 <1>         0.136900 
     23 C           4.495000    2.618000    0.586000 C.ar      1 <1>        -0.200100 
     24 H           5.375000    3.244000    0.486000 H         1 <1>         0.173800 
     25 C           5.983000   -1.995000    0.667000 C.2       1 <1>         0.695500 
     26 O           7.145000   -2.206000    0.379000 O.2       1 <1>        -0.958600 
     27 O           5.503000   -2.621000    1.716000 O.3       1 <1>        -0.939200 
     28 O           3.432000   -3.119000    0.048000 O.2       1 <1>        -0.570900 
     29 C           1.479000   -1.773000    2.313000 C.3       1 <1>        -0.473200 
     30 H           2.098000   -0.918000    2.625000 H         1 <1>         0.152900 
     31 H           1.866000   -2.680000    2.802000 H         1 <1>         0.155600 
     32 H           0.440000   -1.603000    2.637000 H         1 <1>         0.041500 
@<TRIPOS>BOND
     1    2    1 1    
     2    1    3 1    
     3    3    4 1    
     4    3    5 1    
     5    3    6 1    
     6    6    7 1    
     7    6    8 1    
     8    8    9 am   
     9    9   10 1    
    10   10   11 1    
    11   10   12 1    
    12   12   13 1    
    13   12   14 1    
    14   12   15 1    
    15   15   16 ar   
    16   16    9 1    
    17   16   17 ar   
    18   17   18 1    
    19   17   19 ar   
    20   19   20 1    
    21   19   21 ar   
    22   21   22 1    
    23   21   23 ar   
    24   23   24 1    
    25   23   15 ar   
    26   10   25 1    
    27   25   26 2    
    28   25   27 1    
    29    8   28 2    
    30    6   29 1    
    31   29   30 1    
    32   29   31 1    
    33   29   32 1    
@<TRIPOS>SUBSTRUCTURE
     1 ****        2 TEMP              0 ****  ****    0 ROOT 
@<TRIPOS>SET
UNITY_3DHIT     STATIC     ATOMS    <user>   **** Atoms matching 3D or FLEX Search
0
MATCH_ATOMS     DYNAMIC    ATOMS    <user>   **** 
(1,2,3,4,5,6,7,8,9,10,11,12,13,14,15,16,17,18,19,20,21,22,23,24,25,26,27,28,29,30,31,32,33,34,35,36,37,38,39,40,41,42,43,44)
ATOM$INVISIBLE  STATIC     ATOMS    DISPGROUP SYSTEM 
0
@<TRIPOS>UNITY_ATOM_ATTR
27 1
AtomExpr -1
