#	Name:			mol_50
#	Creating user name:	jeff
#	Creation time:		Wed Dec 11 13:20:53 2002

#	Modifying user name:	jeff
#	Modification time:	Wed Dec 11 13:20:53 2002

@<TRIPOS>MOLECULE
mol_50
   35    35     1     0     3
SMALL
USER_CHARGES
****
From 3DB ct
@<TRIPOS>ATOM
      1 N           3.776000   -0.935000    0.284000 N.am      1 <1>        -0.350800 
      2 C           5.138000   -1.081000   -0.193000 C.3       1 <1>        -0.065400 
      3 H           5.134000   -1.439000   -1.232000 H         1 <1>         0.074300 
      4 C           5.696000    0.354000   -0.121000 C.3       1 <1>        -0.131200 
      5 H           6.580000    0.394000    0.533000 H         1 <1>         0.098600 
      6 H           5.970000    0.701000   -1.129000 H         1 <1>         0.013000 
      7 C           4.585000    1.252000    0.464000 C.3       1 <1>        -0.149000 
      8 H           4.378000    2.076000   -0.232000 H         1 <1>         0.015900 
      9 H           4.915000    1.659000    1.432000 H         1 <1>         0.110600 
     10 C           3.319000    0.390000    0.648000 C.3       1 <1>         0.175900 
     11 H           2.530000    0.733000   -0.034000 H         1 <1>        -0.005000 
     12 H           2.973000    0.440000    1.689000 H         1 <1>        -0.012100 
     13 C           5.974000   -2.002000    0.653000 C.2       1 <1>         0.844200 
     14 O           7.140000   -2.208000    0.358000 O.2       1 <1>        -0.975800 
     15 O           5.492000   -2.666000    1.705000 O.3       1 <1>        -0.994300 
     16 C           2.961000   -2.025000    0.354000 C.2       1 <1>         0.639800 
     17 O           3.432000   -3.119000    0.048000 O.2       1 <1>        -0.680300 
     18 C           1.531000   -1.912000    0.822000 C.3       1 <1>         0.110200 
     19 H           1.194000   -0.866000    0.760000 H         1 <1>         0.055100 
     20 N           0.655000   -2.701000   -0.056000 N.3       1 <1>        -0.951100 
     21 H          -0.363000   -2.641000    0.301000 H         1 <1>         0.311000 
     22 H           0.979000   -3.731000   -0.065000 H         1 <1>         0.368600 
     23 C           1.375000   -2.373000    2.291000 C.3       1 <1>         0.178500 
     24 H           0.299000   -2.386000    2.525000 H         1 <1>        -0.014100 
     25 C           1.963000   -3.786000    2.508000 C.3       1 <1>         0.049700 
     26 H           1.540000   -4.481000    1.772000 H         1 <1>        -0.020200 
     27 H           3.055000   -3.754000    2.397000 H         1 <1>         0.067600 
     28 C           1.637000   -4.325000    3.914000 C.3       1 <1>        -0.205200 
     29 H           2.121000   -3.700000    4.679000 H         1 <1>         0.055500 
     30 H           2.011000   -5.356000    3.995000 H         1 <1>         0.037200 
     31 H           0.548000   -4.316000    4.065000 H         1 <1>         0.018100 
     32 C           2.071000   -1.363000    3.229000 C.3       1 <1>        -0.454000 
     33 H           3.146000   -1.333000    2.996000 H         1 <1>         0.210000 
     34 H           1.928000   -1.659000    4.278000 H         1 <1>         0.076300 
     35 H           1.630000   -0.369000    3.073000 H         1 <1>         0.076700 
@<TRIPOS>BOND
     1    1    2 1    
     2    2    3 1    
     3    2    4 1    
     4    4    5 1    
     5    4    6 1    
     6    4    7 1    
     7    7    8 1    
     8    7    9 1    
     9    7   10 1    
    10   10   11 1    
    11   10   12 1    
    12   10    1 1    
    13    2   13 1    
    14   13   14 2    
    15   13   15 1    
    16    1   16 am   
    17   16   17 2    
    18   16   18 1    
    19   18   19 1    
    20   18   20 1    
    21   20   21 1    
    22   20   22 1    
    23   18   23 1    
    24   23   24 1    
    25   23   25 1    
    26   25   26 1    
    27   25   27 1    
    28   25   28 1    
    29   28   29 1    
    30   28   30 1    
    31   28   31 1    
    32   23   32 1    
    33   32   33 1    
    34   32   34 1    
    35   32   35 1    
@<TRIPOS>SUBSTRUCTURE
     1 ****        1 TEMP              0 ****  ****    0 ROOT 
@<TRIPOS>SET
UNITY_3DHIT     STATIC     ATOMS    <user>   **** Atoms matching 3D or FLEX Search
0
MATCH_ATOMS     DYNAMIC    ATOMS    <user>   **** 
(1,2,3,4,5,6,7,8,9,10,11,12,13,14,15,16,17,18,19,20,21,22,23,24,25,26,27,28,29,30,31,32,33,34,35)
ATOM$INVISIBLE  STATIC     ATOMS    DISPGROUP SYSTEM 
0
@<TRIPOS>UNITY_ATOM_ATTR
15 1
AtomExpr -1
