#	Name:			mol_65
#	Creating user name:	jeff
#	Creation time:		Wed Dec 11 13:20:54 2002

#	Modifying user name:	jeff
#	Modification time:	Wed Dec 11 13:20:54 2002

@<TRIPOS>MOLECULE
mol_65
   32    32     1     0     3
SMALL
USER_CHARGES
****
From 3DB ct
@<TRIPOS>ATOM
      1 N           3.764000   -0.929000    0.290000 N.am      1 <1>        -0.360000 
      2 C           5.133000   -1.074000   -0.178000 C.3       1 <1>         0.037000 
      3 H           5.139000   -1.417000   -1.222000 H         1 <1>         0.040600 
      4 C           5.676000    0.366000   -0.105000 C.3       1 <1>        -0.134300 
      5 H           6.545000    0.415000    0.570000 H         1 <1>         0.076600 
      6 H           5.966000    0.700000   -1.113000 H         1 <1>         0.006300 
      7 C           4.547000    1.267000    0.439000 C.3       1 <1>        -0.142300 
      8 H           4.863000    1.702000    1.398000 H         1 <1>         0.105500 
      9 H           4.341000    2.072000   -0.282000 H         1 <1>         0.000300 
     10 C           3.296000    0.391000    0.650000 C.3       1 <1>         0.087900 
     11 H           2.986000    0.437000    1.702000 H         1 <1>         0.037700 
     12 H           2.481000    0.717000   -0.017000 H         1 <1>         0.012800 
     13 C           5.974000   -2.002000    0.664000 C.2       1 <1>         0.792500 
     14 O           7.137000   -2.201000    0.356000 O.2       1 <1>        -0.997100 
     15 O           5.491000   -2.615000    1.717000 O.3       1 <1>        -0.964900 
     16 C           2.977000   -2.023000    0.350000 C.2       1 <1>         0.464100 
     17 O           3.428000   -3.116000    0.048000 O.2       1 <1>        -0.566900 
     18 C           1.601000   -2.115000    0.991000 C.3       1 <1>         0.231200 
     19 H           0.937000   -1.265000    0.770000 H         1 <1>        -0.088300 
     20 C           0.793000   -3.394000    0.630000 C.3       1 <1>        -0.207000 
     21 H          -0.159000   -3.364000    1.184000 H         1 <1>         0.036600 
     22 H           0.571000   -3.359000   -0.445000 H         1 <1>         0.046900 
     23 C           1.447000   -4.753000    0.988000 C.3       1 <1>         0.029100 
     24 H           0.641000   -5.459000    1.246000 H         1 <1>        -0.061700 
     25 H           2.111000   -4.652000    1.857000 H         1 <1>        -0.023700 
     26 C           2.167000   -5.341000   -0.194000 C.2       1 <1>         0.813800 
     27 O           3.347000   -5.644000   -0.139000 O.2       1 <1>        -1.036400 
     28 O           1.484000   -5.553000   -1.293000 O.3       1 <1>        -1.020100 
     29 C           1.834000   -2.202000    2.515000 C.3       1 <1>        -0.197000 
     30 H           2.498000   -1.374000    2.812000 H         1 <1>         0.031300 
     31 H           2.309000   -3.165000    2.755000 H         1 <1>         0.070700 
     32 H           0.887000   -2.093000    3.059000 H         1 <1>         0.034700 
@<TRIPOS>BOND
     1    1    2 1    
     2    2    3 1    
     3    2    4 1    
     4    4    5 1    
     5    4    6 1    
     6    4    7 1    
     7    7    8 1    
     8    7    9 1    
     9    7   10 1    
    10   10   11 1    
    11   10   12 1    
    12   10    1 1    
    13    2   13 1    
    14   13   14 2    
    15   13   15 1    
    16    1   16 am   
    17   16   17 2    
    18   16   18 1    
    19   18   19 1    
    20   18   20 1    
    21   20   21 1    
    22   20   22 1    
    23   20   23 1    
    24   23   24 1    
    25   23   25 1    
    26   23   26 1    
    27   26   27 2    
    28   26   28 1    
    29   18   29 1    
    30   29   30 1    
    31   29   31 1    
    32   29   32 1    
@<TRIPOS>SUBSTRUCTURE
     1 ****        1 TEMP              0 ****  ****    0 ROOT 
@<TRIPOS>SET
UNITY_3DHIT     STATIC     ATOMS    <user>   **** Atoms matching 3D or FLEX Search
0
MATCH_ATOMS     DYNAMIC    ATOMS    <user>   **** 
(1,2,3,4,5,6,7,8,9,10,11,12,13,14,15,16,17,18,19,20,21,22,23,24,25,26,27,28,29,30,31,32)
ATOM$INVISIBLE  STATIC     ATOMS    DISPGROUP SYSTEM 
0
@<TRIPOS>UNITY_ATOM_ATTR
15 1
AtomExpr -1
28 1
AtomExpr -1
