#	Name:			mol_58
#	Creating user name:	jeff
#	Creation time:		Wed Dec 11 13:20:54 2002

#	Modifying user name:	jeff
#	Modification time:	Wed Dec 11 13:20:54 2002

@<TRIPOS>MOLECULE
mol_58
   26    26     1     0     3
SMALL
USER_CHARGES
INVALID_CHARGES
From 3DB ct
@<TRIPOS>ATOM
      1 S           0.388000   -3.613000   -1.191000 S.3       1 <1>        -0.204700 
      2 H          -0.645000   -3.659000   -1.402000 H         1 <1>         0.094900 
      3 C           0.602000   -3.232000    0.573000 C.3       1 <1>        -0.114500 
      4 H           1.092000   -4.070000    1.090000 H         1 <1>         0.148200 
      5 H          -0.382000   -3.049000    1.026000 H         1 <1>         0.003000 
      6 C           1.465000   -1.964000    0.710000 C.3       1 <1>        -0.083000 
      7 H           1.474000   -1.668000    1.768000 H         1 <1>         0.034500 
      8 H           1.027000   -1.153000    0.107000 H         1 <1>         0.075200 
      9 C           2.915000   -2.239000    0.257000 C.3       1 <1>        -0.043300 
     10 H           2.905000   -2.619000   -0.773000 H         1 <1>         0.095900 
     11 H           3.333000   -3.014000    0.913000 H         1 <1>         0.123900 
     12 N           3.751000   -1.049000    0.313000 N.3       1 <1>        -0.538300 
     13 C           5.122000   -1.075000   -0.157000 C.3       1 <1>         0.106000 
     14 H           5.153000   -1.372000   -1.214000 H         1 <1>         0.032300 
     15 C           5.591000    0.388000   -0.011000 C.3       1 <1>        -0.144000 
     16 H           6.462000    0.450000    0.657000 H         1 <1>         0.079000 
     17 H           5.859000    0.796000   -0.998000 H         1 <1>         0.011300 
     18 C           4.419000    1.195000    0.587000 C.3       1 <1>        -0.162900 
     19 H           4.133000    2.013000   -0.088000 H         1 <1>         0.037300 
     20 H           4.701000    1.607000    1.566000 H         1 <1>         0.072300 
     21 C           3.235000    0.228000    0.759000 C.3       1 <1>         0.010600 
     22 H           2.397000    0.552000    0.126000 H         1 <1>         0.027400 
     23 H           2.926000    0.188000    1.814000 H         1 <1>         0.099600 
     24 C           5.977000   -2.008000    0.658000 C.2       1 <1>         0.691900 
     25 O           7.140000   -2.214000    0.351000 O.2       1 <1>        -0.957000 
     26 O           5.515000   -2.650000    1.732000 O.3       1 <1>        -0.917500 
@<TRIPOS>BOND
     1    2    1 1    
     2    1    3 1    
     3    3    4 1    
     4    3    5 1    
     5    3    6 1    
     6    6    7 1    
     7    6    8 1    
     8    6    9 1    
     9    9   10 1    
    10    9   11 1    
    11    9   12 1    
    12   12   13 1    
    13   13   14 1    
    14   13   15 1    
    15   15   16 1    
    16   15   17 1    
    17   15   18 1    
    18   18   19 1    
    19   18   20 1    
    20   18   21 1    
    21   21   22 1    
    22   21   23 1    
    23   21   12 1    
    24   13   24 1    
    25   24   25 2    
    26   24   26 1    
@<TRIPOS>SUBSTRUCTURE
     1 ****        2 TEMP              0 ****  ****    0 ROOT 
@<TRIPOS>SET
UNITY_3DHIT     STATIC     ATOMS    <user>   **** Atoms matching 3D or FLEX Search
0
MATCH_ATOMS     DYNAMIC    ATOMS    <user>   **** 
(1,2,3,4,5,6,7,8,9,10,11,12,13,14,15,16,17,18,19,20,21,22,23,24,25,26,27,28,29,30,31,32)
ATOM$INVISIBLE  STATIC     ATOMS    DISPGROUP SYSTEM 
0
@<TRIPOS>UNITY_ATOM_ATTR
26 1
AtomExpr -1
