#	Name:			mol_12
#	Creating user name:	jeff
#	Creation time:		Wed Dec 11 13:20:52 2002

#	Modifying user name:	jeff
#	Modification time:	Wed Dec 11 13:20:52 2002

@<TRIPOS>MOLECULE
mol_12
   29    30     1     0     3
SMALL
USER_CHARGES
INVALID_CHARGES
From 3DB ct
@<TRIPOS>ATOM
      1 S          -0.352000   -3.524000   -0.786000 S.3       1 <1>        -0.226200 
      2 H          -1.350000   -3.464000   -0.448000 H         1 <1>         0.093700 
      3 C           0.758000   -3.271000    0.635000 C.3       1 <1>        -0.342100 
      4 H           1.433000   -4.120000    0.809000 H         1 <1>         0.228700 
      5 C           1.494000   -1.913000    0.665000 C.3       1 <1>         0.233500 
      6 H           0.970000   -1.173000    0.041000 H         1 <1>         0.112200 
      7 C           1.081000   -1.745000    2.139000 C.3       1 <1>        -0.369100 
      8 H           1.877000   -2.037000    2.843000 H         1 <1>         0.192400 
      9 H           0.620000   -0.779000    2.393000 H         1 <1>         0.100700 
     10 C           0.056000   -2.880000    1.946000 C.3       1 <1>         0.003400 
     11 H           0.076000   -3.662000    2.715000 H         1 <1>         0.029200 
     12 H          -0.955000   -2.490000    1.760000 H         1 <1>         0.035900 
     13 C           2.961000   -2.025000    0.353000 C.2       1 <1>         0.508200 
     14 N           3.777000   -0.943000    0.327000 N.am      1 <1>        -0.476200 
     15 C           5.134000   -1.083000   -0.174000 C.3       1 <1>         0.267500 
     16 H           5.120000   -1.429000   -1.220000 H         1 <1>        -0.000800 
     17 C           5.682000    0.357000   -0.117000 C.3       1 <1>        -0.296300 
     18 H           6.568000    0.394000    0.536000 H         1 <1>         0.103600 
     19 H           5.960000    0.697000   -1.127000 H         1 <1>         0.038100 
     20 C           4.559000    1.252000    0.453000 C.3       1 <1>         0.081100 
     21 H           4.323000    2.056000   -0.259000 H         1 <1>        -0.024300 
     22 H           4.887000    1.693000    1.406000 H         1 <1>         0.061200 
     23 C           3.309000    0.377000    0.687000 C.3       1 <1>        -0.054900 
     24 H           2.487000    0.706000    0.035000 H         1 <1>         0.033000 
     25 H           3.005000    0.411000    1.742000 H         1 <1>         0.047500 
     26 C           5.981000   -2.009000    0.657000 C.2       1 <1>         0.780100 
     27 O           7.146000   -2.217000    0.361000 O.2       1 <1>        -0.982000 
     28 O           5.508000   -2.647000    1.729000 O.3       1 <1>        -0.969300 
     29 O           3.432000   -3.119000    0.048000 O.2       1 <1>        -0.630500 
@<TRIPOS>BOND
     1    2    1 1    
     2    1    3 1    
     3    3    4 1    
     4    3    5 1    
     5    5    6 1    
     6    5    7 1    
     7    7    8 1    
     8    7    9 1    
     9    7   10 1    
    10   10   11 1    
    11   10   12 1    
    12   10    3 1    
    13    5   13 1    
    14   13   14 am   
    15   14   15 1    
    16   15   16 1    
    17   15   17 1    
    18   17   18 1    
    19   17   19 1    
    20   17   20 1    
    21   20   21 1    
    22   20   22 1    
    23   20   23 1    
    24   23   24 1    
    25   23   25 1    
    26   23   14 1    
    27   15   26 1    
    28   26   27 2    
    29   26   28 1    
    30   13   29 2    
@<TRIPOS>SUBSTRUCTURE
     1 ****        2 TEMP              0 ****  ****    0 ROOT 
@<TRIPOS>SET
UNITY_3DHIT     STATIC     ATOMS    <user>   **** Atoms matching 3D or FLEX Search
0
MATCH_ATOMS     DYNAMIC    ATOMS    <user>   **** 
(1,2,3,4,5,6,7,8,9,10,11,12,13,14,15,16,17,18,19,20,21,22,23,24,25,26,27,28,29,30,31,32,33,34,35,36,37,38,39,40,41,42,43,44)
ATOM$INVISIBLE  STATIC     ATOMS    DISPGROUP SYSTEM 
0
@<TRIPOS>UNITY_ATOM_ATTR
28 1
AtomExpr -1
