#	Name:			mol_62
#	Creating user name:	jeff
#	Creation time:		Wed Dec 11 13:20:54 2002

#	Modifying user name:	jeff
#	Modification time:	Wed Dec 11 13:20:54 2002

@<TRIPOS>MOLECULE
mol_62
   30    30     1     0     3
SMALL
USER_CHARGES
INVALID_CHARGES
From 3DB ct
@<TRIPOS>ATOM
      1 S           0.707000   -3.796000   -1.261000 S.3       1 <1>        -0.263600 
      2 H          -0.305000   -3.865000   -1.553000 H         1 <1>         0.098600 
      3 C           0.773000   -3.377000    0.509000 C.3       1 <1>        -0.004200 
      4 H           1.318000   -4.163000    1.051000 H         1 <1>         0.080500 
      5 H          -0.254000   -3.321000    0.892000 H         1 <1>         0.011900 
      6 C           1.471000   -2.015000    0.718000 C.3       1 <1>        -0.096200 
      7 H           1.388000   -1.768000    1.785000 H         1 <1>         0.082900 
      8 H           0.955000   -1.238000    0.136000 H         1 <1>         0.121600 
      9 C           2.927000   -2.039000    0.339000 C.2       1 <1>         0.776900 
     10 O           3.627000   -0.905000    0.273000 O.3       1 <1>        -0.700100 
     11 C           5.044000   -1.061000   -0.127000 C.3       1 <1>         0.666100 
     12 H           5.062000   -1.525000   -1.127000 H         1 <1>        -0.060500 
     13 C           5.676000    0.343000   -0.222000 C.3       1 <1>        -0.541700 
     14 H           5.061000    0.961000   -0.893000 H         1 <1>         0.113100 
     15 H           5.702000    0.799000    0.779000 H         1 <1>         0.159200 
     16 C           7.090000    0.255000   -0.793000 C.ar      1 <1>         0.303700 
     17 C           8.186000    0.607000   -0.007000 C.ar      1 <1>        -0.319300 
     18 H           8.036000    0.953000    1.009000 H         1 <1>         0.263900 
     19 C           9.476000    0.515000   -0.529000 C.ar      1 <1>        -0.093900 
     20 H          10.328000    0.796000    0.080000 H         1 <1>         0.121100 
     21 C           9.670000    0.060000   -1.832000 C.ar      1 <1>        -0.210100 
     22 H          10.674000   -0.019000   -2.234000 H         1 <1>         0.126000 
     23 C           8.574000   -0.293000   -2.617000 C.ar      1 <1>        -0.153100 
     24 H           8.725000   -0.643000   -3.632000 H         1 <1>         0.121400 
     25 C           7.284000   -0.195000   -2.098000 C.ar      1 <1>        -0.281300 
     26 H           6.432000   -0.470000   -2.710000 H         1 <1>         0.165700 
     27 C           5.829000   -1.944000    0.821000 C.2       1 <1>         0.599600 
     28 O           7.004000   -2.193000    0.608000 O.2       1 <1>        -0.944100 
     29 O           5.279000   -2.506000    1.899000 O.3       1 <1>        -0.914300 
     30 O           3.507000   -3.092000    0.079000 O.2       1 <1>        -0.651900 
@<TRIPOS>BOND
     1    2    1 1    
     2    1    3 1    
     3    3    4 1    
     4    3    5 1    
     5    3    6 1    
     6    6    7 1    
     7    6    8 1    
     8    6    9 1    
     9    9   10 1    
    10   10   11 1    
    11   11   12 1    
    12   11   13 1    
    13   13   14 1    
    14   13   15 1    
    15   13   16 1    
    16   16   17 ar   
    17   17   18 1    
    18   17   19 ar   
    19   19   20 1    
    20   19   21 ar   
    21   21   22 1    
    22   21   23 ar   
    23   23   24 1    
    24   23   25 ar   
    25   25   26 1    
    26   25   16 ar   
    27   11   27 1    
    28   27   28 2    
    29   27   29 1    
    30    9   30 2    
@<TRIPOS>SUBSTRUCTURE
     1 ****        2 TEMP              0 ****  ****    0 ROOT 
@<TRIPOS>SET
UNITY_3DHIT     STATIC     ATOMS    <user>   **** Atoms matching 3D or FLEX Search
0
MATCH_ATOMS     DYNAMIC    ATOMS    <user>   **** 
(1,2,3,4,5,6,7,8,9,10,11,12,13,14,15,16,17,18,19,20,21,22,23,24,25,26,27,28,29,30,31,32)
ATOM$INVISIBLE  STATIC     ATOMS    DISPGROUP SYSTEM 
0
@<TRIPOS>UNITY_ATOM_ATTR
29 1
AtomExpr -1
