#	Name:			mol_63
#	Creating user name:	jeff
#	Creation time:		Wed Dec 11 13:20:54 2002

#	Modifying user name:	jeff
#	Modification time:	Wed Dec 11 13:20:54 2002

@<TRIPOS>MOLECULE
mol_63
   26    26     1     0     3
SMALL
USER_CHARGES
****
From 3DB ct
@<TRIPOS>ATOM
      1 N           3.766000   -0.935000    0.301000 N.am      1 <1>        -0.403500 
      2 C           5.131000   -1.070000   -0.171000 C.3       1 <1>        -0.009700 
      3 H           5.130000   -1.424000   -1.212000 H         1 <1>         0.059000 
      4 C           5.676000    0.368000   -0.091000 C.3       1 <1>        -0.129400 
      5 H           6.557000    0.399000    0.568000 H         1 <1>         0.063200 
      6 H           5.959000    0.720000   -1.094000 H         1 <1>         0.023600 
      7 C           4.555000    1.260000    0.486000 C.3       1 <1>        -0.123400 
      8 H           4.318000    2.071000   -0.217000 H         1 <1>        -0.011000 
      9 H           4.878000    1.693000    1.446000 H         1 <1>         0.097800 
     10 C           3.308000    0.378000    0.701000 C.3       1 <1>         0.055900 
     11 H           2.479000    0.728000    0.071000 H         1 <1>         0.116600 
     12 H           3.023000    0.394000    1.762000 H         1 <1>         0.011400 
     13 C           5.968000   -1.997000    0.666000 C.2       1 <1>         0.796400 
     14 O           7.136000   -2.196000    0.373000 O.2       1 <1>        -1.009900 
     15 O           5.486000   -2.671000    1.712000 O.3       1 <1>        -0.968100 
     16 C           2.956000   -2.028000    0.360000 C.2       1 <1>         0.657600 
     17 O           3.432000   -3.119000    0.047000 O.2       1 <1>        -0.670200 
     18 C           1.532000   -1.900000    0.829000 C.3       1 <1>        -0.098000 
     19 H           1.517000   -1.742000    1.919000 H         1 <1>        -0.006000 
     20 H           1.050000   -1.043000    0.338000 H         1 <1>         0.048100 
     21 C           0.757000   -3.187000    0.481000 C.3       1 <1>        -0.078600 
     22 H           1.186000   -4.023000    1.058000 H         1 <1>        -0.001800 
     23 H          -0.300000   -3.068000    0.749000 H         1 <1>        -0.052300 
     24 C           0.871000   -3.456000   -0.995000 C.2       1 <1>         0.876300 
     25 O           0.551000   -2.602000   -1.807000 O.2       1 <1>        -1.033500 
     26 O           1.313000   -4.617000   -1.413000 O.3       1 <1>        -1.054500 
@<TRIPOS>BOND
     1    1    2 1    
     2    2    3 1    
     3    2    4 1    
     4    4    5 1    
     5    4    6 1    
     6    4    7 1    
     7    7    8 1    
     8    7    9 1    
     9    7   10 1    
    10   10   11 1    
    11   10   12 1    
    12   10    1 1    
    13    2   13 1    
    14   13   14 2    
    15   13   15 1    
    16    1   16 am   
    17   16   17 2    
    18   16   18 1    
    19   18   19 1    
    20   18   20 1    
    21   18   21 1    
    22   21   22 1    
    23   21   23 1    
    24   21   24 1    
    25   24   25 2    
    26   24   26 1    
@<TRIPOS>SUBSTRUCTURE
     1 ****        1 TEMP              0 ****  ****    0 ROOT 
@<TRIPOS>SET
UNITY_3DHIT     STATIC     ATOMS    <user>   **** Atoms matching 3D or FLEX Search
0
MATCH_ATOMS     DYNAMIC    ATOMS    <user>   **** 
(1,2,3,4,5,6,7,8,9,10,11,12,13,14,15,16,17,18,19,20,21,22,23,24,25,26,27,28,29,30,31,32)
ATOM$INVISIBLE  STATIC     ATOMS    DISPGROUP SYSTEM 
0
@<TRIPOS>UNITY_ATOM_ATTR
15 1
AtomExpr -1
26 1
AtomExpr -1
