#	Name:			mol_48
#	Creating user name:	jeff
#	Creation time:		Wed Dec 11 13:20:53 2002

#	Modifying user name:	jeff
#	Modification time:	Wed Dec 11 13:20:53 2002

@<TRIPOS>MOLECULE
mol_48
   26    26     1     0     3
SMALL
USER_CHARGES
****
From 3DB ct
@<TRIPOS>ATOM
      1 N           3.776000   -0.935000    0.284000 N.am      1 <1>        -0.444800 
      2 C           5.138000   -1.079000   -0.191000 C.3       1 <1>         0.125800 
      3 H           5.133000   -1.441000   -1.228000 H         1 <1>         0.027400 
      4 C           5.689000    0.358000   -0.123000 C.3       1 <1>        -0.211600 
      5 H           6.572000    0.390000    0.533000 H         1 <1>         0.103100 
      6 H           5.970000    0.700000   -1.130000 H         1 <1>         0.023100 
      7 C           4.573000    1.259000    0.451000 C.3       1 <1>        -0.052700 
      8 H           4.337000    2.065000   -0.258000 H         1 <1>        -0.003700 
      9 H           4.901000    1.698000    1.406000 H         1 <1>         0.089300 
     10 C           3.324000    0.383000    0.676000 C.3       1 <1>         0.116600 
     11 H           2.494000    0.731000    0.045000 H         1 <1>        -0.000500 
     12 H           3.042000    0.408000    1.737000 H         1 <1>         0.011800 
     13 C           5.975000   -2.002000    0.651000 C.2       1 <1>         0.799200 
     14 O           7.140000   -2.208000    0.356000 O.2       1 <1>        -0.978400 
     15 O           5.493000   -2.666000    1.704000 O.3       1 <1>        -0.966300 
     16 C           2.961000   -2.025000    0.354000 C.2       1 <1>         0.449800 
     17 O           3.432000   -3.119000    0.048000 O.2       1 <1>        -0.623200 
     18 C           1.537000   -1.912000    0.820000 C.3       1 <1>         0.494400 
     19 H           1.092000   -0.966000    0.482000 H         1 <1>        -0.025600 
     20 N           0.727000   -3.013000    0.281000 N.3       1 <1>        -0.924100 
     21 H          -0.304000   -2.880000    0.580000 H         1 <1>         0.333500 
     22 H           1.096000   -3.956000    0.654000 H         1 <1>         0.295000 
     23 C           1.501000   -1.956000    2.362000 C.3       1 <1>        -0.324100 
     24 H           2.078000   -1.119000    2.780000 H         1 <1>         0.106200 
     25 H           1.927000   -2.907000    2.711000 H         1 <1>         0.107700 
     26 H           0.458000   -1.871000    2.696000 H         1 <1>         0.050100 
@<TRIPOS>BOND
     1    1    2 1    
     2    2    3 1    
     3    2    4 1    
     4    4    5 1    
     5    4    6 1    
     6    4    7 1    
     7    7    8 1    
     8    7    9 1    
     9    7   10 1    
    10   10   11 1    
    11   10   12 1    
    12   10    1 1    
    13    2   13 1    
    14   13   14 2    
    15   13   15 1    
    16    1   16 am   
    17   16   17 2    
    18   16   18 1    
    19   18   19 1    
    20   18   20 1    
    21   20   21 1    
    22   20   22 1    
    23   18   23 1    
    24   23   24 1    
    25   23   25 1    
    26   23   26 1    
@<TRIPOS>SUBSTRUCTURE
     1 ****        1 TEMP              0 ****  ****    0 ROOT 
@<TRIPOS>SET
UNITY_3DHIT     STATIC     ATOMS    <user>   **** Atoms matching 3D or FLEX Search
0
MATCH_ATOMS     DYNAMIC    ATOMS    <user>   **** 
(1,2,3,4,5,6,7,8,9,10,11,12,13,14,15,16,17,18,19,20,21,22,23,24,25,26,27,28,29,30,31,32,33,34,35)
ATOM$INVISIBLE  STATIC     ATOMS    DISPGROUP SYSTEM 
0
@<TRIPOS>UNITY_ATOM_ATTR
15 1
AtomExpr -1
