#	Name:			mol_36
#	Creating user name:	jeff
#	Creation time:		Wed Dec 11 13:20:53 2002

#	Modifying user name:	jeff
#	Modification time:	Wed Dec 11 13:20:53 2002

@<TRIPOS>MOLECULE
mol_36
   21    20     1     0     3
SMALL
USER_CHARGES
INVALID_CHARGES
From 3DB ct
@<TRIPOS>ATOM
      1 S           0.486000   -3.645000   -0.975000 S.3       1 <1>        -0.195700 
      2 H          -0.554000   -3.687000   -1.148000 H         1 <1>         0.066400 
      3 C           0.766000   -3.223000    0.775000 C.3       1 <1>         0.013700 
      4 H           1.306000   -4.051000    1.258000 H         1 <1>         0.080700 
      5 H          -0.211000   -3.097000    1.262000 H         1 <1>         0.018200 
      6 C           1.578000   -1.918000    0.950000 C.3       1 <1>        -0.446600 
      7 H           1.650000   -1.699000    2.025000 H         1 <1>         0.145600 
      8 H           1.047000   -1.094000    0.449000 H         1 <1>         0.183400 
      9 C           2.962000   -2.030000    0.370000 C.2       1 <1>         0.971900 
     10 N           3.725000   -0.916000    0.193000 N.am      1 <1>        -0.940700 
     11 H           3.417000   -0.047000    0.583000 H         1 <1>         0.497900 
     12 C           4.875000   -0.863000   -0.675000 C.3       1 <1>         0.293500 
     13 H           4.757000   -0.005000   -1.355000 H         1 <1>        -0.020200 
     14 H           5.011000   -1.783000   -1.267000 H         1 <1>         0.003800 
     15 C           6.052000   -0.587000    0.260000 C.3       1 <1>        -0.247900 
     16 H           6.904000   -0.235000   -0.340000 H         1 <1>         0.018300 
     17 H           5.804000    0.152000    1.037000 H         1 <1>         0.032900 
     18 C           6.346000   -1.930000    0.841000 C.2       1 <1>         0.840300 
     19 O           7.372000   -2.467000    0.427000 O.2       1 <1>        -0.965100 
     20 O           5.562000   -2.571000    1.711000 O.3       1 <1>        -1.016600 
     21 O           3.434000   -3.115000    0.033000 O.2       1 <1>        -0.756200 
@<TRIPOS>BOND
     1    2    1 1    
     2    1    3 1    
     3    3    4 1    
     4    3    5 1    
     5    3    6 1    
     6    6    7 1    
     7    6    8 1    
     8    6    9 1    
     9    9   10 am   
    10   10   11 1    
    11   10   12 1    
    12   12   13 1    
    13   12   14 1    
    14   12   15 1    
    15   15   16 1    
    16   15   17 1    
    17   15   18 1    
    18   18   19 2    
    19   18   20 1    
    20    9   21 2    
@<TRIPOS>SUBSTRUCTURE
     1 ****        2 TEMP              0 ****  ****    0 ROOT 
@<TRIPOS>SET
UNITY_3DHIT     STATIC     ATOMS    <user>   **** Atoms matching 3D or FLEX Search
0
MATCH_ATOMS     DYNAMIC    ATOMS    <user>   **** 
(1,2,3,4,5,6,7,8,9,10,11,12,13,14,15,16,17,18,19,20,21,22,23,24,25,26,27,28,29,30,31,32,33,34,35)
ATOM$INVISIBLE  STATIC     ATOMS    DISPGROUP SYSTEM 
0
@<TRIPOS>UNITY_ATOM_ATTR
20 1
AtomExpr -1
