#	Name:			mol_40
#	Creating user name:	jeff
#	Creation time:		Wed Dec 11 13:20:53 2002

#	Modifying user name:	jeff
#	Modification time:	Wed Dec 11 13:20:53 2002

@<TRIPOS>MOLECULE
mol_40
   21    20     1     0     3
SMALL
USER_CHARGES
INVALID_CHARGES
From 3DB ct
@<TRIPOS>ATOM
      1 S           0.612000   -3.676000   -1.281000 S.3       1 <1>        -0.212500 
      2 H          -0.407000   -3.742000   -1.547000 H         1 <1>         0.091300 
      3 C           0.723000   -3.238000    0.482000 C.3       1 <1>        -0.197100 
      4 H           1.184000   -4.081000    1.016000 H         1 <1>         0.160500 
      5 H          -0.298000   -3.095000    0.867000 H         1 <1>         0.060100 
      6 C           1.520000   -1.942000    0.779000 C.3       1 <1>        -0.254900 
      7 H           1.502000   -1.779000    1.867000 H         1 <1>         0.114200 
      8 H           1.033000   -1.092000    0.284000 H         1 <1>         0.182600 
      9 C           2.961000   -2.025000    0.354000 C.2       1 <1>         0.838900 
     10 N           3.776000   -0.935000    0.284000 N.am      1 <1>        -0.586100 
     11 C           5.142000   -1.083000   -0.203000 C.3       1 <1>         0.040400 
     12 H           5.630000   -0.098000   -0.211000 H         1 <1>        -0.004600 
     13 H           5.121000   -1.459000   -1.235000 H         1 <1>         0.041800 
     14 C           5.981000   -2.009000    0.637000 C.2       1 <1>         0.836000 
     15 O           7.145000   -2.221000    0.339000 O.2       1 <1>        -0.996000 
     16 O           5.499000   -2.664000    1.695000 O.3       1 <1>        -0.985900 
     17 C           3.242000    0.358000    0.670000 C.3       1 <1>        -0.130400 
     18 H           4.029000    1.126000    0.627000 H         1 <1>         0.156200 
     19 H           2.853000    0.307000    1.696000 H         1 <1>         0.114300 
     20 H           2.434000    0.643000   -0.018000 H         1 <1>         0.002500 
     21 O           3.432000   -3.119000    0.048000 O.2       1 <1>        -0.693200 
@<TRIPOS>BOND
     1    2    1 1    
     2    1    3 1    
     3    3    4 1    
     4    3    5 1    
     5    3    6 1    
     6    6    7 1    
     7    6    8 1    
     8    6    9 1    
     9    9   10 am   
    10   10   11 1    
    11   11   12 1    
    12   11   13 1    
    13   11   14 1    
    14   14   15 2    
    15   14   16 1    
    16   10   17 1    
    17   17   18 1    
    18   17   19 1    
    19   17   20 1    
    20    9   21 2    
@<TRIPOS>SUBSTRUCTURE
     1 ****        2 TEMP              0 ****  ****    0 ROOT 
@<TRIPOS>SET
UNITY_3DHIT     STATIC     ATOMS    <user>   **** Atoms matching 3D or FLEX Search
0
MATCH_ATOMS     DYNAMIC    ATOMS    <user>   **** 
(1,2,3,4,5,6,7,8,9,10,11,12,13,14,15,16,17,18,19,20,21,22,23,24,25,26,27,28,29,30,31,32,33,34,35)
ATOM$INVISIBLE  STATIC     ATOMS    DISPGROUP SYSTEM 
0
@<TRIPOS>UNITY_ATOM_ATTR
16 1
AtomExpr -1
