#	Name:			mol_16
#	Creating user name:	jeff
#	Creation time:		Wed Dec 11 13:20:52 2002

#	Modifying user name:	jeff
#	Modification time:	Wed Dec 11 13:20:52 2002

@<TRIPOS>MOLECULE
mol_16
   51    52     1     0     3
SMALL
USER_CHARGES
****
From 3DB ct
@<TRIPOS>ATOM
      1 N           3.791000   -0.912000    0.347000 N.am      1 <1>        -0.816400 
      2 C           2.987000   -2.009000    0.367000 C.2       1 <1>         0.715600 
      3 C           1.540000   -2.069000    0.805000 C.3       1 <1>         0.310700 
      4 H           0.902000   -1.442000    0.167000 H         1 <1>         0.109400 
      5 C           1.559000   -1.595000    2.270000 C.3       1 <1>        -0.386700 
      6 H           2.535000   -1.847000    2.710000 H         1 <1>         0.222300 
      7 H           0.774000   -2.089000    2.856000 H         1 <1>         0.091200 
      8 C           1.347000   -0.074000    2.375000 C.3       1 <1>         0.029000 
      9 H           1.852000    0.293000    3.282000 H         1 <1>         0.063000 
     10 H           0.267000    0.117000    2.464000 H         1 <1>         0.018800 
     11 C           1.867000    0.695000    1.146000 C.3       1 <1>        -0.377600 
     12 H           1.243000    0.488000    0.268000 H         1 <1>         0.068100 
     13 H           1.768000    1.765000    1.388000 H         1 <1>         0.102400 
     14 C           3.351000    0.417000    0.805000 C.3       1 <1>         0.543500 
     15 H           3.589000    1.147000    0.014000 H         1 <1>         0.014000 
     16 C           4.178000    0.808000    2.049000 C.3       1 <1>        -0.457500 
     17 H           4.007000    1.859000    2.321000 H         1 <1>         0.079700 
     18 H           5.248000    0.664000    1.839000 H         1 <1>         0.157700 
     19 H           3.886000    0.160000    2.887000 H         1 <1>         0.168700 
     20 N           1.035000   -3.461000    0.738000 N.4       1 <1>        -0.406600 
     21 H           1.189000   -3.851000   -0.260000 H         1 <1>         0.417100 
     22 H           1.547000   -3.952000    1.292000 H         1 <1>         0.483400 
     23 C          -0.372000   -3.691000    1.135000 C.3       1 <1>        -0.073200 
     24 H          -0.565000   -3.315000    2.150000 H         1 <1>         0.132300 
     25 C          -1.337000   -3.016000    0.134000 C.3       1 <1>         0.147100 
     26 H          -0.831000   -2.921000   -0.837000 H         1 <1>        -0.051900 
     27 H          -2.252000   -3.612000    0.012000 H         1 <1>         0.094900 
     28 C          -1.762000   -1.631000    0.652000 C.3       1 <1>        -0.452500 
     29 H          -2.459000   -1.776000    1.491000 H         1 <1>         0.147800 
     30 H          -0.880000   -1.092000    1.026000 H         1 <1>         0.101200 
     31 C          -2.421000   -0.793000   -0.449000 C.ar      1 <1>         0.172600 
     32 C          -1.619000   -0.087000   -1.350000 C.ar      1 <1>        -0.211100 
     33 H          -0.539000   -0.170000   -1.296000 H         1 <1>         0.173200 
     34 C          -2.208000    0.729000   -2.319000 C.ar      1 <1>        -0.170800 
     35 H          -1.585000    1.262000   -3.029000 H         1 <1>         0.148600 
     36 C          -3.598000    0.856000   -2.376000 C.ar      1 <1>        -0.134300 
     37 H          -4.053000    1.491000   -3.128000 H         1 <1>         0.134500 
     38 C          -4.399000    0.167000   -1.463000 C.ar      1 <1>        -0.168200 
     39 H          -5.477000    0.267000   -1.506000 H         1 <1>         0.147000 
     40 C          -3.811000   -0.651000   -0.495000 C.ar      1 <1>        -0.211300 
     41 H          -4.432000   -1.176000    0.220000 H         1 <1>         0.187800 
     42 C          -0.627000   -5.171000    1.149000 C.2       1 <1>         0.696000 
     43 O          -0.837000   -5.763000    2.195000 O.2       1 <1>        -0.837900 
     44 O          -0.622000   -5.832000   -0.010000 O.3       1 <1>        -0.915100 
     45 O           3.462000   -3.092000    0.067000 O.2       1 <1>        -0.621800 
     46 C           5.149000   -1.117000   -0.154000 C.3       1 <1>        -0.036300 
     47 H           5.690000   -0.167000   -0.231000 H         1 <1>         0.055100 
     48 H           5.089000   -1.559000   -1.158000 H         1 <1>         0.083100 
     49 C           5.988000   -2.032000    0.696000 C.2       1 <1>         0.835500 
     50 O           7.153000   -2.215000    0.387000 O.2       1 <1>        -0.953700 
     51 O           5.492000   -2.639000    1.746000 O.3       1 <1>        -0.990000 
@<TRIPOS>BOND
     1    1    2 am   
     2    2    3 1    
     3    3    4 1    
     4    3    5 1    
     5    5    6 1    
     6    5    7 1    
     7    5    8 1    
     8    8    9 1    
     9    8   10 1    
    10    8   11 1    
    11   11   12 1    
    12   11   13 1    
    13   11   14 1    
    14   14   15 1    
    15   14    1 1    
    16   14   16 1    
    17   16   17 1    
    18   16   18 1    
    19   16   19 1    
    20    3   20 1    
    21   20   21 1    
    22   20   22 1    
    23   20   23 1    
    24   23   24 1    
    25   23   25 1    
    26   25   26 1    
    27   25   27 1    
    28   25   28 1    
    29   28   29 1    
    30   28   30 1    
    31   28   31 1    
    32   31   32 ar   
    33   32   33 1    
    34   32   34 ar   
    35   34   35 1    
    36   34   36 ar   
    37   36   37 1    
    38   36   38 ar   
    39   38   39 1    
    40   38   40 ar   
    41   40   41 1    
    42   40   31 ar   
    43   23   42 1    
    44   42   43 2    
    45   42   44 1    
    46    2   45 2    
    47    1   46 1    
    48   46   47 1    
    49   46   48 1    
    50   46   49 1    
    51   49   50 2    
    52   49   51 1    
@<TRIPOS>SUBSTRUCTURE
     1 ****        1 TEMP              0 ****  ****    0 ROOT 
@<TRIPOS>SET
UNITY_3DHIT     STATIC     ATOMS    <user>   **** Atoms matching 3D or FLEX Search
0
MATCH_ATOMS     DYNAMIC    ATOMS    <user>   **** 
(1,2,3,4,5,6,7,8,9,10,11,12,13,14,15,16,17,18,19,20,21,22,23,24,25,26,27,28,29,30,31,32,33,34,35,36,37,38,39,40,41,42,43,44)
ATOM$INVISIBLE  STATIC     ATOMS    DISPGROUP SYSTEM 
0
@<TRIPOS>UNITY_ATOM_ATTR
20 1
AtomExpr +1
44 1
AtomExpr -1
51 1
AtomExpr -1
