#	Name:			mol_11
#	Creating user name:	jeff
#	Creation time:		Wed Dec 11 13:20:52 2002

#	Modifying user name:	jeff
#	Modification time:	Wed Dec 11 13:20:52 2002

@<TRIPOS>MOLECULE
mol_11
   32    33     1     0     3
SMALL
USER_CHARGES
INVALID_CHARGES
From 3DB ct
@<TRIPOS>ATOM
      1 S           0.355000   -3.527000   -1.224000 S.3       1 <1>        -0.243000 
      2 H          -0.694000   -3.547000   -1.339000 H         1 <1>         0.102100 
      3 C           0.740000   -3.229000    0.525000 C.3       1 <1>        -0.340600 
      4 H           1.313000   -4.067000    0.950000 H         1 <1>         0.203000 
      5 C           1.512000   -1.917000    0.756000 C.3       1 <1>         0.336700 
      6 H           1.015000   -1.096000    0.218000 H         1 <1>         0.048600 
      7 C           1.325000   -1.714000    2.270000 C.3       1 <1>         0.076500 
      8 H           2.064000   -2.312000    2.826000 H         1 <1>         0.067400 
      9 H           1.415000   -0.656000    2.545000 H         1 <1>        -0.023600 
     10 C          -0.092000   -2.242000    2.583000 C.3       1 <1>        -0.282200 
     11 H          -0.780000   -1.403000    2.758000 H         1 <1>         0.053100 
     12 H          -0.075000   -2.899000    3.464000 H         1 <1>         0.109000 
     13 C          -0.545000   -3.040000    1.348000 C.3       1 <1>         0.014100 
     14 H          -0.968000   -4.009000    1.646000 H         1 <1>         0.022300 
     15 H          -1.291000   -2.458000    0.783000 H         1 <1>         0.031200 
     16 C           2.961000   -2.025000    0.354000 C.2       1 <1>         0.390300 
     17 N           3.773000   -0.937000    0.292000 N.am      1 <1>        -0.500100 
     18 C           5.136000   -1.081000   -0.188000 C.3       1 <1>         0.336000 
     19 H           5.128000   -1.434000   -1.227000 H         1 <1>        -0.011900 
     20 C           5.686000    0.357000   -0.122000 C.3       1 <1>        -0.377100 
     21 H           6.571000    0.394000    0.533000 H         1 <1>         0.129300 
     22 H           5.967000    0.696000   -1.131000 H         1 <1>         0.051200 
     23 C           4.567000    1.256000    0.450000 C.3       1 <1>         0.072800 
     24 H           4.331000    2.061000   -0.260000 H         1 <1>        -0.023600 
     25 H           4.894000    1.697000    1.405000 H         1 <1>         0.066000 
     26 C           3.318000    0.380000    0.680000 C.3       1 <1>         0.092600 
     27 H           2.491000    0.725000    0.045000 H         1 <1>         0.004100 
     28 H           3.030000    0.407000    1.740000 H         1 <1>        -0.032100 
     29 C           5.977000   -2.005000    0.651000 C.2       1 <1>         0.729500 
     30 O           7.142000   -2.216000    0.359000 O.2       1 <1>        -0.972400 
     31 O           5.502000   -2.635000    1.727000 O.3       1 <1>        -0.945400 
     32 O           3.432000   -3.119000    0.048000 O.2       1 <1>        -0.605600 
@<TRIPOS>BOND
     1    2    1 1    
     2    1    3 1    
     3    3    4 1    
     4    3    5 1    
     5    5    6 1    
     6    5    7 1    
     7    7    8 1    
     8    7    9 1    
     9    7   10 1    
    10   10   11 1    
    11   10   12 1    
    12   10   13 1    
    13   13   14 1    
    14   13   15 1    
    15   13    3 1    
    16    5   16 1    
    17   16   17 am   
    18   17   18 1    
    19   18   19 1    
    20   18   20 1    
    21   20   21 1    
    22   20   22 1    
    23   20   23 1    
    24   23   24 1    
    25   23   25 1    
    26   23   26 1    
    27   26   27 1    
    28   26   28 1    
    29   26   17 1    
    30   18   29 1    
    31   29   30 2    
    32   29   31 1    
    33   16   32 2    
@<TRIPOS>SUBSTRUCTURE
     1 ****        2 TEMP              0 ****  ****    0 ROOT 
@<TRIPOS>SET
UNITY_3DHIT     STATIC     ATOMS    <user>   **** Atoms matching 3D or FLEX Search
0
MATCH_ATOMS     DYNAMIC    ATOMS    <user>   **** 
(1,2,3,4,5,6,7,8,9,10,11,12,13,14,15,16,17,18,19,20,21,22,23,24,25,26,27,28,29,30,31,32,33,34,35,36,37,38,39,40,41,42,43,44)
ATOM$INVISIBLE  STATIC     ATOMS    DISPGROUP SYSTEM 
0
@<TRIPOS>UNITY_ATOM_ATTR
31 1
AtomExpr -1
