#	Name:			mol_35
#	Creating user name:	jeff
#	Creation time:		Wed Dec 11 13:20:53 2002

#	Modifying user name:	jeff
#	Modification time:	Wed Dec 11 13:20:53 2002

@<TRIPOS>MOLECULE
mol_35
   23    23     1     0     3
SMALL
USER_CHARGES
INVALID_CHARGES
From 3DB ct
@<TRIPOS>ATOM
      1 S           0.614000   -3.679000   -1.289000 S.3       1 <1>        -0.254300 
      2 H          -0.404000   -3.742000   -1.557000 H         1 <1>         0.148900 
      3 C           0.724000   -3.260000    0.479000 C.3       1 <1>        -0.212600 
      4 H           1.192000   -4.106000    1.003000 H         1 <1>         0.101500 
      5 H          -0.297000   -3.130000    0.867000 H         1 <1>         0.115200 
      6 C           1.516000   -1.956000    0.773000 C.3       1 <1>         0.102200 
      7 H           1.478000   -1.775000    1.854000 H         1 <1>        -0.000600 
      8 H           1.010000   -1.130000    0.254000 H         1 <1>        -0.008300 
      9 C           2.964000   -2.023000    0.355000 C.2       1 <1>         0.536300 
     10 N           3.738000   -0.920000    0.156000 N.pl3     1 <1>        -0.281100 
     11 C           3.156000    0.413000    0.235000 C.3       1 <1>         0.143900 
     12 H           2.132000    0.475000   -0.155000 H         1 <1>         0.010000 
     13 H           3.203000    0.791000    1.269000 H         1 <1>         0.003900 
     14 C           4.101000    1.237000   -0.668000 C.3       1 <1>        -0.149600 
     15 H           3.668000    1.370000   -1.672000 H         1 <1>         0.055100 
     16 H           4.358000    2.210000   -0.229000 H         1 <1>         0.056900 
     17 C           5.286000    0.328000   -0.736000 C.2       1 <1>        -0.417500 
     18 H           6.250000    0.631000   -1.141000 H         1 <1>         0.199700 
     19 C           5.029000   -0.893000   -0.269000 C.2       1 <1>        -0.029400 
     20 C           5.978000   -1.845000   -0.283000 C.2       1 <1>         0.813600 
     21 O           7.080000   -1.622000   -0.758000 O.2       1 <1>        -0.929200 
     22 O           5.778000   -3.058000    0.234000 O.3       1 <1>        -0.922500 
     23 O           3.428000   -3.120000    0.047000 O.2       1 <1>        -0.504200 
@<TRIPOS>BOND
     1    2    1 1    
     2    1    3 1    
     3    3    4 1    
     4    3    5 1    
     5    3    6 1    
     6    6    7 1    
     7    6    8 1    
     8    6    9 1    
     9    9   10 1    
    10   10   11 1    
    11   11   12 1    
    12   11   13 1    
    13   11   14 1    
    14   14   15 1    
    15   14   16 1    
    16   14   17 1    
    17   17   18 1    
    18   17   19 2    
    19   19   10 1    
    20   19   20 1    
    21   20   21 2    
    22   20   22 1    
    23    9   23 2    
@<TRIPOS>SUBSTRUCTURE
     1 ****        2 TEMP              0 ****  ****    0 ROOT 
@<TRIPOS>SET
UNITY_3DHIT     STATIC     ATOMS    <user>   **** Atoms matching 3D or FLEX Search
0
MATCH_ATOMS     DYNAMIC    ATOMS    <user>   **** 
(1,2,3,4,5,6,7,8,9,10,11,12,13,14,15,16,17,18,19,20,21,22,23,24,25,26,27,28,29,30,31,32,33,34,35)
ATOM$INVISIBLE  STATIC     ATOMS    DISPGROUP SYSTEM 
0
@<TRIPOS>UNITY_ATOM_ATTR
22 1
AtomExpr -1
@<TRIPOS>UNITY_BOND_ATTR
18 1
S I
