#	Name:			mol_15
#	Creating user name:	jeff
#	Creation time:		Wed Dec 11 13:20:52 2002

#	Modifying user name:	jeff
#	Modification time:	Wed Dec 11 13:20:52 2002

@<TRIPOS>MOLECULE
mol_15
   59    60     1     0     3
SMALL
USER_CHARGES
****
From 3DB ct
@<TRIPOS>ATOM
      1 N           3.763000   -0.955000    0.297000 N.am      1 <1>        -0.371400 
      2 C           5.134000   -1.075000   -0.167000 C.3       1 <1>         0.051600 
      3 H           5.150000   -1.405000   -1.216000 H         1 <1>         0.050200 
      4 C           5.660000    0.371000   -0.072000 C.3       1 <1>        -0.178300 
      5 H           6.529000    0.421000    0.603000 H         1 <1>         0.104200 
      6 H           5.949000    0.725000   -1.073000 H         1 <1>         0.036200 
      7 C           4.521000    1.245000    0.492000 C.3       1 <1>        -0.082100 
      8 H           4.837000    1.640000    1.470000 H         1 <1>         0.089600 
      9 H           4.318000    2.079000   -0.193000 H         1 <1>         0.016600 
     10 C           3.272000    0.359000    0.666000 C.3       1 <1>         0.048900 
     11 H           2.977000    0.405000    1.722000 H         1 <1>         0.039200 
     12 H           2.447000    0.691000    0.013000 H         1 <1>         0.040700 
     13 C           5.978000   -2.005000    0.666000 C.2       1 <1>         0.868200 
     14 O           7.141000   -2.199000    0.354000 O.2       1 <1>        -0.963300 
     15 O           5.489000   -2.621000    1.715000 O.3       1 <1>        -1.020600 
     16 C           2.965000   -2.055000    0.338000 C.2       1 <1>         0.386500 
     17 O           3.454000   -3.134000    0.007000 O.2       1 <1>        -0.510000 
     18 C           1.508000   -2.030000    0.741000 C.3       1 <1>         0.267600 
     19 H           1.004000   -1.263000    0.135000 H         1 <1>        -0.032700 
     20 N           0.818000   -3.313000    0.477000 N.4       1 <1>         0.243700 
     21 H          -0.240000   -3.212000    0.676000 H         1 <1>         0.171700 
     22 H           0.895000   -3.463000   -0.407000 H         1 <1>         0.292900 
     23 C           1.361000   -4.514000    1.149000 C.3       1 <1>        -0.130200 
     24 H           2.173000   -4.216000    1.829000 H         1 <1>         0.163400 
     25 C           0.294000   -5.277000    1.968000 C.3       1 <1>        -0.265400 
     26 H          -0.686000   -5.206000    1.478000 H         1 <1>         0.121000 
     27 H           0.590000   -6.336000    2.015000 H         1 <1>         0.129100 
     28 C           0.226000   -4.773000    3.430000 C.3       1 <1>         0.096000 
     29 H           0.659000   -5.547000    4.079000 H         1 <1>         0.016300 
     30 H           0.803000   -3.846000    3.554000 H         1 <1>        -0.037900 
     31 C          -1.222000   -4.498000    3.886000 C.3       1 <1>         0.056400 
     32 H          -1.858000   -5.365000    3.658000 H         1 <1>         0.097700 
     33 H          -1.234000   -4.313000    4.970000 H         1 <1>         0.051400 
     34 N          -1.666000   -3.300000    3.200000 N.am      1 <1>        -0.864500 
     35 H          -1.253000   -2.425000    3.451000 H         1 <1>         0.432900 
     36 C          -2.556000   -3.378000    2.197000 C.2       1 <1>         1.059200 
     37 O          -3.177000   -4.378000    1.871000 O.2       1 <1>        -0.680100 
     38 O          -2.648000   -2.222000    1.580000 O.3       1 <1>        -0.494100 
     39 C          -3.577000   -2.149000    0.442000 C.3       1 <1>        -0.064400 
     40 H          -3.474000   -3.062000   -0.163000 H         1 <1>         0.126000 
     41 H          -4.615000   -2.062000    0.793000 H         1 <1>         0.109500 
     42 C          -3.208000   -0.976000   -0.461000 C.ar      1 <1>         0.123300 
     43 C          -1.868000   -0.729000   -0.753000 C.ar      1 <1>        -0.184300 
     44 H          -1.092000   -1.322000   -0.282000 H         1 <1>         0.177100 
     45 C          -1.525000    0.280000   -1.652000 C.ar      1 <1>        -0.133400 
     46 H          -0.482000    0.472000   -1.879000 H         1 <1>         0.152900 
     47 C          -2.522000    1.043000   -2.258000 C.ar      1 <1>        -0.124700 
     48 H          -2.255000    1.827000   -2.956000 H         1 <1>         0.141900 
     49 C          -3.862000    0.796000   -1.965000 C.ar      1 <1>        -0.161700 
     50 H          -4.638000    1.388000   -2.437000 H         1 <1>         0.144800 
     51 C          -4.205000   -0.214000   -1.067000 C.ar      1 <1>        -0.221700 
     52 H          -5.248000   -0.406000   -0.839000 H         1 <1>         0.168100 
     53 C           1.941000   -5.437000    0.108000 C.2       1 <1>         0.731200 
     54 O           3.095000   -5.812000    0.225000 O.2       1 <1>        -0.779400 
     55 O           1.241000   -5.872000   -0.911000 O.3       1 <1>        -0.937900 
     56 C           1.327000   -1.664000    2.225000 C.3       1 <1>        -0.497800 
     57 H           1.535000   -0.602000    2.401000 H         1 <1>         0.225800 
     58 H           1.992000   -2.283000    2.846000 H         1 <1>         0.202700 
     59 H           0.285000   -1.858000    2.500000 H         1 <1>         0.079500 
@<TRIPOS>BOND
     1    1    2 1    
     2    2    3 1    
     3    2    4 1    
     4    4    5 1    
     5    4    6 1    
     6    4    7 1    
     7    7    8 1    
     8    7    9 1    
     9    7   10 1    
    10   10   11 1    
    11   10   12 1    
    12   10    1 1    
    13    2   13 1    
    14   13   14 2    
    15   13   15 1    
    16    1   16 am   
    17   16   17 2    
    18   16   18 1    
    19   18   19 1    
    20   18   20 1    
    21   20   21 1    
    22   20   22 1    
    23   20   23 1    
    24   23   24 1    
    25   23   25 1    
    26   25   26 1    
    27   25   27 1    
    28   25   28 1    
    29   28   29 1    
    30   28   30 1    
    31   28   31 1    
    32   31   32 1    
    33   31   33 1    
    34   31   34 1    
    35   34   35 1    
    36   34   36 am   
    37   36   37 2    
    38   36   38 1    
    39   38   39 1    
    40   39   40 1    
    41   39   41 1    
    42   39   42 1    
    43   42   43 ar   
    44   43   44 1    
    45   43   45 ar   
    46   45   46 1    
    47   45   47 ar   
    48   47   48 1    
    49   47   49 ar   
    50   49   50 1    
    51   49   51 ar   
    52   51   52 1    
    53   51   42 ar   
    54   23   53 1    
    55   53   54 2    
    56   53   55 1    
    57   18   56 1    
    58   56   57 1    
    59   56   58 1    
    60   56   59 1    
@<TRIPOS>SUBSTRUCTURE
     1 ****        1 TEMP              0 ****  ****    0 ROOT 
@<TRIPOS>SET
UNITY_3DHIT     STATIC     ATOMS    <user>   **** Atoms matching 3D or FLEX Search
0
MATCH_ATOMS     DYNAMIC    ATOMS    <user>   **** 
(1,2,3,4,5,6,7,8,9,10,11,12,13,14,15,16,17,18,19,20,21,22,23,24,25,26,27,28,29,30,31,32,33,34,35,36,37,38,39,40,41,42,43,44)
ATOM$INVISIBLE  STATIC     ATOMS    DISPGROUP SYSTEM 
0
@<TRIPOS>UNITY_ATOM_ATTR
15 1
AtomExpr -1
20 1
AtomExpr +1
55 1
AtomExpr -1
