#	Name:			mol_64
#	Creating user name:	jeff
#	Creation time:		Wed Dec 11 13:20:54 2002

#	Modifying user name:	jeff
#	Modification time:	Wed Dec 11 13:20:54 2002

@<TRIPOS>MOLECULE
mol_64
   29    29     1     0     3
SMALL
USER_CHARGES
****
From 3DB ct
@<TRIPOS>ATOM
      1 N           3.776000   -0.935000    0.284000 N.am      1 <1>        -0.348800 
      2 C           5.138000   -1.085000   -0.195000 C.3       1 <1>         0.016300 
      3 H           5.133000   -1.439000   -1.235000 H         1 <1>         0.050900 
      4 C           5.721000    0.342000   -0.128000 C.3       1 <1>        -0.164100 
      5 H           6.620000    0.375000    0.505000 H         1 <1>         0.071400 
      6 H           5.973000    0.700000   -1.137000 H         1 <1>         0.027900 
      7 C           4.640000    1.242000    0.506000 C.3       1 <1>        -0.110600 
      8 H           4.476000    2.135000   -0.118000 H         1 <1>        -0.003600 
      9 H           4.966000    1.548000    1.512000 H         1 <1>         0.091800 
     10 C           3.345000    0.411000    0.610000 C.3       1 <1>         0.000200 
     11 H           2.656000    0.793000   -0.155000 H         1 <1>         0.112500 
     12 H           2.910000    0.491000    1.618000 H         1 <1>         0.026400 
     13 C           5.975000   -2.002000    0.651000 C.2       1 <1>         0.803400 
     14 O           7.140000   -2.208000    0.356000 O.2       1 <1>        -1.012500 
     15 O           5.493000   -2.666000    1.704000 O.3       1 <1>        -0.974900 
     16 C           2.961000   -2.025000    0.354000 C.2       1 <1>         0.581200 
     17 O           3.432000   -3.119000    0.048000 O.2       1 <1>        -0.672300 
     18 C           1.528000   -1.873000    0.814000 C.3       1 <1>         0.300200 
     19 H           0.971000   -1.033000    0.377000 H         1 <1>        -0.000800 
     20 C           0.757000   -3.162000    0.481000 C.3       1 <1>        -0.334400 
     21 H           1.183000   -3.992000    1.060000 H         1 <1>         0.053700 
     22 H          -0.299000   -3.034000    0.760000 H         1 <1>         0.013400 
     23 C           0.867000   -3.454000   -0.988000 C.2       1 <1>         0.871400 
     24 O           0.529000   -2.632000   -1.822000 O.2       1 <1>        -1.035400 
     25 O           1.302000   -4.622000   -1.394000 O.3       1 <1>        -1.033700 
     26 C           1.521000   -1.690000    2.352000 C.3       1 <1>        -0.354200 
     27 H           2.316000   -0.994000    2.653000 H         1 <1>         0.074500 
     28 H           1.684000   -2.656000    2.852000 H         1 <1>         0.071900 
     29 H           0.561000   -1.264000    2.676000 H         1 <1>         0.034300 
@<TRIPOS>BOND
     1    1    2 1    
     2    2    3 1    
     3    2    4 1    
     4    4    5 1    
     5    4    6 1    
     6    4    7 1    
     7    7    8 1    
     8    7    9 1    
     9    7   10 1    
    10   10   11 1    
    11   10   12 1    
    12   10    1 1    
    13    2   13 1    
    14   13   14 2    
    15   13   15 1    
    16    1   16 am   
    17   16   17 2    
    18   16   18 1    
    19   18   19 1    
    20   18   20 1    
    21   20   21 1    
    22   20   22 1    
    23   20   23 1    
    24   23   24 2    
    25   23   25 1    
    26   18   26 1    
    27   26   27 1    
    28   26   28 1    
    29   26   29 1    
@<TRIPOS>SUBSTRUCTURE
     1 ****        1 TEMP              0 ****  ****    0 ROOT 
@<TRIPOS>SET
UNITY_3DHIT     STATIC     ATOMS    <user>   **** Atoms matching 3D or FLEX Search
0
MATCH_ATOMS     DYNAMIC    ATOMS    <user>   **** 
(1,2,3,4,5,6,7,8,9,10,11,12,13,14,15,16,17,18,19,20,21,22,23,24,25,26,27,28,29,30,31,32)
ATOM$INVISIBLE  STATIC     ATOMS    DISPGROUP SYSTEM 
0
@<TRIPOS>UNITY_ATOM_ATTR
15 1
AtomExpr -1
25 1
AtomExpr -1
