#	Name:			mol_68
#	Creating user name:	jeff
#	Creation time:		Wed Dec 11 13:20:54 2002

#	Modifying user name:	jeff
#	Modification time:	Wed Dec 11 13:20:54 2002

@<TRIPOS>MOLECULE
mol_68
   27    27     1     0     3
SMALL
USER_CHARGES
****
From 3DB ct
@<TRIPOS>ATOM
      1 P           0.647000   -2.604000   -1.865000 P.3       1 <1>         1.824000 
      2 O          -0.193000   -3.757000   -2.590000 O.2       1 <1>        -1.345700 
      3 O           0.195000   -1.291000   -2.047000 O.3       1 <1>        -1.331200 
      4 O           2.116000   -2.872000   -2.442000 O.3       1 <1>        -1.331600 
      5 C           0.644000   -2.922000   -0.058000 C.3       1 <1>        -0.734100 
      6 H           1.007000   -3.944000    0.119000 H         1 <1>         0.062600 
      7 H          -0.392000   -2.844000    0.301000 H         1 <1>         0.048700 
      8 C           1.513000   -1.924000    0.740000 C.3       1 <1>         0.205000 
      9 H           1.439000   -2.181000    1.809000 H         1 <1>        -0.002500 
     10 H           1.131000   -0.904000    0.586000 H         1 <1>        -0.037900 
     11 C           2.963000   -2.024000    0.354000 C.2       1 <1>         0.659000 
     12 O           3.431000   -3.119000    0.048000 O.2       1 <1>        -0.704200 
     13 N           3.787000   -0.943000    0.331000 N.am      1 <1>        -0.509600 
     14 C           5.160000   -1.072000   -0.124000 C.3       1 <1>         0.079600 
     15 H           5.188000   -1.355000   -1.186000 H         1 <1>         0.052100 
     16 C           5.717000    0.353000    0.059000 C.3       1 <1>        -0.238400 
     17 H           6.564000    0.348000    0.760000 H         1 <1>         0.068500 
     18 H           6.048000    0.741000   -0.913000 H         1 <1>         0.037000 
     19 C           4.586000    1.237000    0.622000 C.3       1 <1>        -0.062500 
     20 H           4.885000    1.637000    1.602000 H         1 <1>         0.096600 
     21 H           4.392000    2.070000   -0.070000 H         1 <1>        -0.033000 
     22 C           3.325000    0.359000    0.761000 C.3       1 <1>        -0.003200 
     23 H           2.522000    0.734000    0.114000 H         1 <1>         0.104000 
     24 H           2.994000    0.336000    1.809000 H         1 <1>         0.043200 
     25 C           5.986000   -2.028000    0.687000 C.2       1 <1>         0.783800 
     26 O           7.146000   -2.251000    0.381000 O.2       1 <1>        -1.035400 
     27 O           5.518000   -2.659000    1.736000 O.3       1 <1>        -0.961000 
@<TRIPOS>BOND
     1    1    2 2    
     2    1    3 1    
     3    1    4 1    
     4    1    5 1    
     5    5    6 1    
     6    5    7 1    
     7    5    8 1    
     8    8    9 1    
     9    8   10 1    
    10    8   11 1    
    11   11   12 2    
    12   11   13 am   
    13   13   14 1    
    14   14   15 1    
    15   14   16 1    
    16   16   17 1    
    17   16   18 1    
    18   16   19 1    
    19   19   20 1    
    20   19   21 1    
    21   19   22 1    
    22   22   23 1    
    23   22   24 1    
    24   22   13 1    
    25   14   25 1    
    26   25   26 2    
    27   25   27 1    
@<TRIPOS>SUBSTRUCTURE
     1 ****        1 TEMP              0 ****  ****    0 ROOT 
@<TRIPOS>SET
UNITY_3DHIT     STATIC     ATOMS    <user>   **** Atoms matching 3D or FLEX Search
0
MATCH_ATOMS     DYNAMIC    ATOMS    <user>   **** 
(1,2,3,4,5,6,7,8,9,10,11,12,13,14,15,16,17,18,19,20,21,22,23,24,25,26,27,28,29,30,31,32)
ATOM$INVISIBLE  STATIC     ATOMS    DISPGROUP SYSTEM 
0
@<TRIPOS>UNITY_ATOM_ATTR
3 1
AtomExpr -1
4 1
AtomExpr -1
27 1
AtomExpr -1
