#	Name:			mol_33
#	Creating user name:	jeff
#	Creation time:		Wed Dec 11 13:20:53 2002

#	Modifying user name:	jeff
#	Modification time:	Wed Dec 11 13:20:53 2002

@<TRIPOS>MOLECULE
mol_33
   31    31     1     0     3
SMALL
USER_CHARGES
INVALID_CHARGES
From 3DB ct
@<TRIPOS>ATOM
      1 S           0.612000   -3.676000   -1.281000 S.3       1 <1>        -0.193800 
      2 H          -0.407000   -3.742000   -1.547000 H         1 <1>         0.076100 
      3 C           0.723000   -3.238000    0.482000 C.3       1 <1>        -0.102600 
      4 H           1.184000   -4.081000    1.016000 H         1 <1>         0.113200 
      5 H          -0.298000   -3.095000    0.867000 H         1 <1>         0.052000 
      6 C           1.519000   -1.940000    0.776000 C.3       1 <1>        -0.398400 
      7 H           1.499000   -1.776000    1.864000 H         1 <1>         0.119900 
      8 H           1.037000   -1.086000    0.282000 H         1 <1>         0.191500 
      9 C           2.961000   -2.025000    0.354000 C.2       1 <1>         1.006700 
     10 N           3.776000   -0.935000    0.284000 N.am      1 <1>        -1.105700 
     11 H           3.428000   -0.021000    0.575000 H         1 <1>         0.478800 
     12 C           5.150000   -1.070000   -0.206000 C.3       1 <1>         0.499200 
     13 H           5.124000   -1.456000   -1.238000 H         1 <1>        -0.021000 
     14 C           5.878000    0.292000   -0.312000 C.3       1 <1>        -0.314900 
     15 H           5.277000    0.998000   -0.907000 H         1 <1>         0.052600 
     16 H           6.004000    0.699000    0.705000 H         1 <1>         0.098700 
     17 C           7.247000    0.158000   -0.971000 C.ar      1 <1>         0.118000 
     18 C           8.398000    0.444000   -0.238000 C.ar      1 <1>        -0.185600 
     19 H           8.317000    0.765000    0.794000 H         1 <1>         0.219500 
     20 C           9.652000    0.319000   -0.833000 C.ar      1 <1>        -0.161300 
     21 H          10.547000    0.549000   -0.266000 H         1 <1>         0.127000 
     22 C           9.756000   -0.103000   -2.158000 C.ar      1 <1>        -0.155900 
     23 H          10.731000   -0.208000   -2.618000 H         1 <1>         0.112000 
     24 C           8.605000   -0.391000   -2.890000 C.ar      1 <1>        -0.203300 
     25 H           8.686000   -0.716000   -3.921000 H         1 <1>         0.126300 
     26 C           7.351000   -0.260000   -2.296000 C.ar      1 <1>        -0.174400 
     27 H           6.456000   -0.484000   -2.866000 H         1 <1>         0.159500 
     28 C           5.981000   -2.009000    0.637000 C.2       1 <1>         0.651600 
     29 O           7.145000   -2.221000    0.339000 O.2       1 <1>        -0.922600 
     30 O           5.499000   -2.664000    1.695000 O.3       1 <1>        -0.952000 
     31 O           3.432000   -3.119000    0.048000 O.2       1 <1>        -0.733200 
@<TRIPOS>BOND
     1    2    1 1    
     2    1    3 1    
     3    3    4 1    
     4    3    5 1    
     5    3    6 1    
     6    6    7 1    
     7    6    8 1    
     8    6    9 1    
     9    9   10 am   
    10   10   11 1    
    11   10   12 1    
    12   12   13 1    
    13   12   14 1    
    14   14   15 1    
    15   14   16 1    
    16   14   17 1    
    17   17   18 ar   
    18   18   19 1    
    19   18   20 ar   
    20   20   21 1    
    21   20   22 ar   
    22   22   23 1    
    23   22   24 ar   
    24   24   25 1    
    25   24   26 ar   
    26   26   27 1    
    27   26   17 ar   
    28   12   28 1    
    29   28   29 2    
    30   28   30 1    
    31    9   31 2    
@<TRIPOS>SUBSTRUCTURE
     1 ****        2 TEMP              0 ****  ****    0 ROOT 
@<TRIPOS>SET
UNITY_3DHIT     STATIC     ATOMS    <user>   **** Atoms matching 3D or FLEX Search
0
MATCH_ATOMS     DYNAMIC    ATOMS    <user>   **** 
(1,2,3,4,5,6,7,8,9,10,11,12,13,14,15,16,17,18,19,20,21,22,23,24,25,26,27,28,29,30,31,32,33,34,35)
ATOM$INVISIBLE  STATIC     ATOMS    DISPGROUP SYSTEM 
0
@<TRIPOS>UNITY_ATOM_ATTR
30 1
AtomExpr -1
