#	Name:			mol_37
#	Creating user name:	jeff
#	Creation time:		Wed Dec 11 13:20:53 2002

#	Modifying user name:	jeff
#	Modification time:	Wed Dec 11 13:20:53 2002

@<TRIPOS>MOLECULE
mol_37
   19    18     1     0     3
SMALL
USER_CHARGES
****
From 3DB ct
@<TRIPOS>ATOM
      1 N           3.766000   -0.935000    0.301000 N.am      1 <1>        -0.832200 
      2 H           3.434000   -0.032000    0.570000 H         1 <1>         0.419800 
      3 C           2.956000   -2.028000    0.360000 C.2       1 <1>         0.837400 
      4 O           3.432000   -3.119000    0.047000 O.2       1 <1>        -0.691400 
      5 C           1.533000   -1.899000    0.829000 C.3       1 <1>        -0.178600 
      6 H           1.517000   -1.742000    1.919000 H         1 <1>        -0.010800 
      7 H           1.050000   -1.043000    0.338000 H         1 <1>         0.087500 
      8 C           0.757000   -3.187000    0.481000 C.3       1 <1>        -0.106600 
      9 H           1.186000   -4.023000    1.058000 H         1 <1>         0.000000 
     10 H          -0.300000   -3.068000    0.749000 H         1 <1>        -0.027000 
     11 C           0.871000   -3.456000   -0.995000 C.2       1 <1>         0.815900 
     12 O           0.551000   -2.602000   -1.807000 O.2       1 <1>        -0.991500 
     13 O           1.313000   -4.617000   -1.413000 O.3       1 <1>        -1.034200 
     14 C           5.135000   -1.067000   -0.182000 C.3       1 <1>         0.034900 
     15 H           5.605000   -0.075000   -0.180000 H         1 <1>         0.002500 
     16 H           5.118000   -1.445000   -1.218000 H         1 <1>         0.009100 
     17 C           5.975000   -2.000000    0.654000 C.2       1 <1>         0.846400 
     18 O           7.140000   -2.209000    0.356000 O.2       1 <1>        -1.021200 
     19 O           5.495000   -2.661000    1.709000 O.3       1 <1>        -1.003900 
@<TRIPOS>BOND
     1    2    1 1    
     2    1    3 am   
     3    3    4 2    
     4    3    5 1    
     5    5    6 1    
     6    5    7 1    
     7    5    8 1    
     8    8    9 1    
     9    8   10 1    
    10    8   11 1    
    11   11   12 2    
    12   11   13 1    
    13    1   14 1    
    14   14   15 1    
    15   14   16 1    
    16   14   17 1    
    17   17   18 2    
    18   17   19 1    
@<TRIPOS>SUBSTRUCTURE
     1 ****        2 TEMP              0 ****  ****    0 ROOT 
@<TRIPOS>SET
UNITY_3DHIT     STATIC     ATOMS    <user>   **** Atoms matching 3D or FLEX Search
0
MATCH_ATOMS     DYNAMIC    ATOMS    <user>   **** 
(1,2,3,4,5,6,7,8,9,10,11,12,13,14,15,16,17,18,19,20,21,22,23,24,25,26,27,28,29,30,31,32,33,34,35)
ATOM$INVISIBLE  STATIC     ATOMS    DISPGROUP SYSTEM 
0
@<TRIPOS>UNITY_ATOM_ATTR
13 1
AtomExpr -1
19 1
AtomExpr -1
