#	Name:			mol_31
#	Creating user name:	jeff
#	Creation time:		Wed Dec 11 13:20:53 2002

#	Modifying user name:	jeff
#	Modification time:	Wed Dec 11 13:20:53 2002

@<TRIPOS>MOLECULE
mol_31
   21    20     1     0     3
SMALL
USER_CHARGES
INVALID_CHARGES
From 3DB ct
@<TRIPOS>ATOM
      1 S           0.612000   -3.676000   -1.281000 S.3       1 <1>        -0.201400 
      2 H          -0.407000   -3.742000   -1.547000 H         1 <1>         0.084000 
      3 C           0.723000   -3.238000    0.482000 C.3       1 <1>        -0.141400 
      4 H           1.184000   -4.081000    1.016000 H         1 <1>         0.119600 
      5 H          -0.298000   -3.095000    0.867000 H         1 <1>         0.046400 
      6 C           1.521000   -1.939000    0.778000 C.3       1 <1>        -0.226500 
      7 H           1.503000   -1.781000    1.868000 H         1 <1>         0.069000 
      8 H           1.037000   -1.086000    0.282000 H         1 <1>         0.167300 
      9 C           2.961000   -2.025000    0.354000 C.2       1 <1>         0.859600 
     10 N           3.776000   -0.935000    0.284000 N.am      1 <1>        -0.954600 
     11 H           3.447000   -0.028000    0.548000 H         1 <1>         0.433100 
     12 C           5.142000   -1.077000   -0.202000 C.3       1 <1>         0.365400 
     13 H           5.121000   -1.459000   -1.235000 H         1 <1>        -0.030200 
     14 C           5.813000    0.314000   -0.222000 C.3       1 <1>        -0.190100 
     15 H           6.830000    0.220000   -0.627000 H         1 <1>         0.041800 
     16 H           5.859000    0.712000    0.802000 H         1 <1>         0.048700 
     17 H           5.223000    0.992000   -0.855000 H         1 <1>        -0.001600 
     18 C           5.981000   -2.009000    0.637000 C.2       1 <1>         0.693800 
     19 O           7.145000   -2.221000    0.339000 O.2       1 <1>        -0.933500 
     20 O           5.499000   -2.664000    1.695000 O.3       1 <1>        -0.964300 
     21 O           3.432000   -3.119000    0.048000 O.2       1 <1>        -0.707200 
@<TRIPOS>BOND
     1    2    1 1    
     2    1    3 1    
     3    3    4 1    
     4    3    5 1    
     5    3    6 1    
     6    6    7 1    
     7    6    8 1    
     8    6    9 1    
     9    9   10 am   
    10   10   11 1    
    11   10   12 1    
    12   12   13 1    
    13   12   14 1    
    14   14   15 1    
    15   14   16 1    
    16   14   17 1    
    17   12   18 1    
    18   18   19 2    
    19   18   20 1    
    20    9   21 2    
@<TRIPOS>SUBSTRUCTURE
     1 ****        2 TEMP              0 ****  ****    0 ROOT 
@<TRIPOS>SET
UNITY_3DHIT     STATIC     ATOMS    <user>   **** Atoms matching 3D or FLEX Search
0
MATCH_ATOMS     DYNAMIC    ATOMS    <user>   **** 
(1,2,3,4,5,6,7,8,9,10,11,12,13,14,15,16,17,18,19,20,21,22,23,24,25,26,27,28,29,30,31,32,33,34,35)
ATOM$INVISIBLE  STATIC     ATOMS    DISPGROUP SYSTEM 
0
@<TRIPOS>UNITY_ATOM_ATTR
20 1
AtomExpr -1
