#	Name:			mol_67
#	Creating user name:	jeff
#	Creation time:		Wed Dec 11 13:20:54 2002

#	Modifying user name:	jeff
#	Modification time:	Wed Dec 11 13:20:54 2002

@<TRIPOS>MOLECULE
mol_67
   24    24     1     0     3
SMALL
USER_CHARGES
****
From 3DB ct
@<TRIPOS>ATOM
      1 P           0.419000   -2.582000   -0.520000 P.3       1 <1>         1.903800 
      2 O           0.631000   -1.800000   -1.661000 O.2       1 <1>        -1.329800 
      3 O          -1.073000   -2.529000    0.057000 O.3       1 <1>        -1.353100 
      4 O           0.560000   -4.163000   -0.771000 O.3       1 <1>        -1.327000 
      5 C           1.541000   -1.961000    0.802000 C.3       1 <1>        -0.815100 
      6 H           1.416000   -2.572000    1.708000 H         1 <1>         0.082900 
      7 H           1.250000   -0.927000    1.028000 H         1 <1>         0.068800 
      8 C           2.978000   -2.023000    0.351000 C.2       1 <1>         0.938700 
      9 N           3.754000   -0.921000    0.246000 N.am      1 <1>        -0.681100 
     10 C           5.124000   -1.057000   -0.210000 C.3       1 <1>         0.176500 
     11 H           5.121000   -1.450000   -1.237000 H         1 <1>         0.037500 
     12 C           5.596000    0.412000   -0.224000 C.3       1 <1>        -0.080600 
     13 H           6.059000    0.639000   -1.196000 H         1 <1>        -0.056400 
     14 H           6.316000    0.594000    0.586000 H         1 <1>         0.044200 
     15 C           4.357000    1.306000   -0.002000 C.3       1 <1>        -0.103100 
     16 H           4.583000    2.105000    0.722000 H         1 <1>        -0.063800 
     17 H           4.061000    1.745000   -0.966000 H         1 <1>         0.072000 
     18 C           3.225000    0.401000    0.516000 C.3       1 <1>         0.278000 
     19 H           2.299000    0.597000   -0.050000 H         1 <1>         0.080100 
     20 H           3.054000    0.553000    1.593000 H         1 <1>        -0.049200 
     21 C           5.972000   -1.967000    0.650000 C.2       1 <1>         0.724100 
     22 O           7.137000   -2.164000    0.343000 O.2       1 <1>        -1.051300 
     23 O           5.481000   -2.569000    1.706000 O.3       1 <1>        -0.970000 
     24 O           3.422000   -3.129000    0.047000 O.2       1 <1>        -0.792100 
@<TRIPOS>BOND
     1    1    2 2    
     2    1    3 1    
     3    1    4 1    
     4    1    5 1    
     5    5    6 1    
     6    5    7 1    
     7    5    8 1    
     8    8    9 am   
     9    9   10 1    
    10   10   11 1    
    11   10   12 1    
    12   12   13 1    
    13   12   14 1    
    14   12   15 1    
    15   15   16 1    
    16   15   17 1    
    17   15   18 1    
    18   18   19 1    
    19   18   20 1    
    20   18    9 1    
    21   10   21 1    
    22   21   22 2    
    23   21   23 1    
    24    8   24 2    
@<TRIPOS>SUBSTRUCTURE
     1 ****        1 TEMP              0 ****  ****    0 ROOT 
@<TRIPOS>SET
UNITY_3DHIT     STATIC     ATOMS    <user>   **** Atoms matching 3D or FLEX Search
0
MATCH_ATOMS     DYNAMIC    ATOMS    <user>   **** 
(1,2,3,4,5,6,7,8,9,10,11,12,13,14,15,16,17,18,19,20,21,22,23,24,25,26,27,28,29,30,31,32)
ATOM$INVISIBLE  STATIC     ATOMS    DISPGROUP SYSTEM 
0
@<TRIPOS>UNITY_ATOM_ATTR
3 1
AtomExpr -1
4 1
AtomExpr -1
23 1
AtomExpr -1
