#	Name:			mol_57
#	Creating user name:	jeff
#	Creation time:		Wed Dec 11 13:20:54 2002

#	Modifying user name:	jeff
#	Modification time:	Wed Dec 11 13:20:54 2002

@<TRIPOS>MOLECULE
mol_57
   20    19     1     0     3
SMALL
USER_CHARGES
INVALID_CHARGES
From 3DB ct
@<TRIPOS>ATOM
      1 S           0.541000   -3.673000   -1.273000 S.3       1 <1>        -0.228700 
      2 H          -0.482000   -3.716000   -1.528000 H         1 <1>         0.100300 
      3 C           0.681000   -3.372000    0.516000 C.3       1 <1>        -0.106800 
      4 H           1.166000   -4.224000    1.011000 H         1 <1>         0.156700 
      5 H          -0.328000   -3.236000    0.930000 H         1 <1>         0.018800 
      6 C           1.511000   -2.095000    0.744000 C.3       1 <1>        -0.224000 
      7 H           1.533000   -1.880000    1.820000 H         1 <1>         0.070200 
      8 H           1.056000   -1.245000    0.214000 H         1 <1>         0.067300 
      9 C           2.962000   -2.300000    0.268000 C.3       1 <1>         0.083900 
     10 H           2.980000   -2.670000   -0.766000 H         1 <1>        -0.015800 
     11 H           3.442000   -3.040000    0.925000 H         1 <1>         0.068200 
     12 C           3.695000   -0.946000    0.320000 C.3       1 <1>        -0.008500 
     13 H           3.700000   -0.556000    1.349000 H         1 <1>         0.034900 
     14 H           3.160000   -0.239000   -0.335000 H         1 <1>        -0.064500 
     15 C           5.144000   -1.074000   -0.189000 C.3       1 <1>        -0.179200 
     16 H           5.600000   -0.075000   -0.166000 H         1 <1>        -0.003600 
     17 H           5.133000   -1.441000   -1.228000 H         1 <1>        -0.005300 
     18 C           5.975000   -2.002000    0.651000 C.2       1 <1>         0.801700 
     19 O           7.140000   -2.208000    0.356000 O.2       1 <1>        -0.997900 
     20 O           5.493000   -2.666000    1.704000 O.3       1 <1>        -0.989500 
@<TRIPOS>BOND
     1    2    1 1    
     2    1    3 1    
     3    3    4 1    
     4    3    5 1    
     5    3    6 1    
     6    6    7 1    
     7    6    8 1    
     8    6    9 1    
     9    9   10 1    
    10    9   11 1    
    11    9   12 1    
    12   12   13 1    
    13   12   14 1    
    14   12   15 1    
    15   15   16 1    
    16   15   17 1    
    17   15   18 1    
    18   18   19 2    
    19   18   20 1    
@<TRIPOS>SUBSTRUCTURE
     1 ****        2 TEMP              0 ****  ****    0 ROOT 
@<TRIPOS>SET
UNITY_3DHIT     STATIC     ATOMS    <user>   **** Atoms matching 3D or FLEX Search
0
MATCH_ATOMS     DYNAMIC    ATOMS    <user>   **** 
(1,2,3,4,5,6,7,8,9,10,11,12,13,14,15,16,17,18,19,20,21,22,23,24,25,26,27,28,29,30,31,32)
ATOM$INVISIBLE  STATIC     ATOMS    DISPGROUP SYSTEM 
0
@<TRIPOS>UNITY_ATOM_ATTR
20 1
AtomExpr -1
