#	Name:			mol_32
#	Creating user name:	jeff
#	Creation time:		Wed Dec 11 13:20:53 2002

#	Modifying user name:	jeff
#	Modification time:	Wed Dec 11 13:20:53 2002

@<TRIPOS>MOLECULE
mol_32
   27    26     1     0     3
SMALL
USER_CHARGES
INVALID_CHARGES
From 3DB ct
@<TRIPOS>ATOM
      1 S           0.612000   -3.676000   -1.281000 S.3       1 <1>        -0.202800 
      2 H          -0.407000   -3.742000   -1.547000 H         1 <1>         0.068700 
      3 C           0.723000   -3.238000    0.482000 C.3       1 <1>         0.015600 
      4 H           1.184000   -4.081000    1.016000 H         1 <1>         0.088200 
      5 H          -0.298000   -3.095000    0.867000 H         1 <1>         0.013200 
      6 C           1.521000   -1.939000    0.778000 C.3       1 <1>        -0.395300 
      7 H           1.503000   -1.781000    1.868000 H         1 <1>         0.112200 
      8 H           1.037000   -1.086000    0.282000 H         1 <1>         0.175600 
      9 C           2.961000   -2.025000    0.354000 C.2       1 <1>         0.951400 
     10 N           3.776000   -0.935000    0.284000 N.am      1 <1>        -1.030900 
     11 H           3.447000   -0.028000    0.548000 H         1 <1>         0.502300 
     12 C           5.142000   -1.077000   -0.202000 C.3       1 <1>         0.188400 
     13 H           5.121000   -1.459000   -1.235000 H         1 <1>         0.026500 
     14 C           5.813000    0.307000   -0.188000 C.3       1 <1>         0.175600 
     15 H           5.234000    0.999000   -0.817000 H         1 <1>         0.011100 
     16 C           5.851000    0.832000    1.260000 C.3       1 <1>        -0.232000 
     17 H           6.211000    1.861000    1.255000 H         1 <1>         0.011400 
     18 H           6.523000    0.206000    1.847000 H         1 <1>         0.102600 
     19 H           4.846000    0.792000    1.678000 H         1 <1>         0.026000 
     20 C           7.250000    0.190000   -0.733000 C.3       1 <1>        -0.384800 
     21 H           7.502000    1.106000   -1.268000 H         1 <1>         0.047100 
     22 H           7.304000   -0.663000   -1.410000 H         1 <1>         0.064500 
     23 H           7.935000    0.046000    0.102000 H         1 <1>         0.145800 
     24 C           5.981000   -2.009000    0.637000 C.2       1 <1>         0.769900 
     25 O           7.145000   -2.221000    0.339000 O.2       1 <1>        -0.945900 
     26 O           5.499000   -2.664000    1.695000 O.3       1 <1>        -0.982500 
     27 O           3.432000   -3.119000    0.048000 O.2       1 <1>        -0.744000 
@<TRIPOS>BOND
     1    2    1 1    
     2    1    3 1    
     3    3    4 1    
     4    3    5 1    
     5    3    6 1    
     6    6    7 1    
     7    6    8 1    
     8    6    9 1    
     9    9   10 am   
    10   10   11 1    
    11   10   12 1    
    12   12   13 1    
    13   12   14 1    
    14   14   15 1    
    15   14   16 1    
    16   16   17 1    
    17   16   18 1    
    18   16   19 1    
    19   14   20 1    
    20   20   21 1    
    21   20   22 1    
    22   20   23 1    
    23   12   24 1    
    24   24   25 2    
    25   24   26 1    
    26    9   27 2    
@<TRIPOS>SUBSTRUCTURE
     1 ****        2 TEMP              0 ****  ****    0 ROOT 
@<TRIPOS>SET
UNITY_3DHIT     STATIC     ATOMS    <user>   **** Atoms matching 3D or FLEX Search
0
MATCH_ATOMS     DYNAMIC    ATOMS    <user>   **** 
(1,2,3,4,5,6,7,8,9,10,11,12,13,14,15,16,17,18,19,20,21,22,23,24,25,26,27,28,29,30,31,32,33,34,35)
ATOM$INVISIBLE  STATIC     ATOMS    DISPGROUP SYSTEM 
0
@<TRIPOS>UNITY_ATOM_ATTR
26 1
AtomExpr -1
