#	Name:			mol_56
#	Creating user name:	jeff
#	Creation time:		Wed Dec 11 13:20:54 2002

#	Modifying user name:	jeff
#	Modification time:	Wed Dec 11 13:20:54 2002

@<TRIPOS>MOLECULE
mol_56
   32    32     1     0     3
SMALL
USER_CHARGES
INVALID_CHARGES
From 3DB ct
@<TRIPOS>ATOM
      1 S           0.617000   -3.678000   -1.293000 S.3       1 <1>        -0.172000 
      2 H          -0.401000   -3.743000   -1.563000 H         1 <1>         0.117600 
      3 C           0.722000   -3.251000    0.473000 C.3       1 <1>        -0.318500 
      4 H           1.209000   -4.086000    1.000000 H         1 <1>         0.167500 
      5 H          -0.305000   -3.142000    0.855000 H         1 <1>         0.103400 
      6 C           1.519000   -1.956000    0.785000 C.3       1 <1>         0.027500 
      7 H           1.510000   -1.798000    1.872000 H         1 <1>         0.036800 
      8 H           1.020000   -1.110000    0.296000 H         1 <1>         0.082100 
      9 C           2.960000   -2.025000    0.351000 C.2       1 <1>         0.638100 
     10 N           3.749000   -0.925000    0.208000 N.am      1 <1>        -0.354200 
     11 C           5.131000   -1.075000   -0.226000 C.3       1 <1>        -0.060100 
     12 H           5.174000   -1.416000   -1.270000 H         1 <1>         0.136700 
     13 C           5.675000    0.364000   -0.130000 C.3       1 <1>        -0.284100 
     14 H           6.550000    0.416000    0.538000 H         1 <1>         0.126800 
     15 H           5.966000    0.703000   -1.134000 H         1 <1>         0.132400 
     16 C           4.545000    1.259000    0.424000 C.3       1 <1>        -0.031800 
     17 H           4.341000    2.082000   -0.275000 H         1 <1>         0.059800 
     18 H           4.852000    1.668000    1.401000 H         1 <1>         0.074100 
     19 C           3.279000    0.393000    0.579000 C.3       1 <1>        -0.038600 
     20 H           2.475000    0.736000   -0.087000 H         1 <1>         0.101500 
     21 H           2.945000    0.416000    1.626000 H         1 <1>         0.045900 
     22 C           5.974000   -1.984000    0.635000 C.2       1 <1>         0.895400 
     23 O           7.141000   -2.209000    0.356000 O.2       1 <1>        -0.666800 
     24 O           5.431000   -2.502000    1.717000 O.3       1 <1>        -0.511600 
     25 C           6.285000   -3.361000    2.552000 C.3       1 <1>         0.304700 
     26 H           6.623000   -4.233000    1.974000 H         1 <1>         0.025300 
     27 H           7.158000   -2.793000    2.909000 H         1 <1>         0.022700 
     28 C           5.475000   -3.850000    3.764000 C.3       1 <1>        -0.268200 
     29 H           6.109000   -4.494000    4.392000 H         1 <1>         0.071200 
     30 H           4.604000   -4.422000    3.409000 H         1 <1>         0.086300 
     31 H           5.138000   -2.982000    4.352000 H         1 <1>         0.078100 
     32 O           3.430000   -3.119000    0.045000 O.2       1 <1>        -0.627900 
@<TRIPOS>BOND
     1    2    1 1    
     2    1    3 1    
     3    3    4 1    
     4    3    5 1    
     5    3    6 1    
     6    6    7 1    
     7    6    8 1    
     8    6    9 1    
     9    9   10 am   
    10   10   11 1    
    11   11   12 1    
    12   11   13 1    
    13   13   14 1    
    14   13   15 1    
    15   13   16 1    
    16   16   17 1    
    17   16   18 1    
    18   16   19 1    
    19   19   20 1    
    20   19   21 1    
    21   19   10 1    
    22   11   22 1    
    23   22   23 2    
    24   22   24 1    
    25   24   25 1    
    26   25   26 1    
    27   25   27 1    
    28   25   28 1    
    29   28   29 1    
    30   28   30 1    
    31   28   31 1    
    32    9   32 2    
@<TRIPOS>SUBSTRUCTURE
     1 ****        2 TEMP              0 ****  ****    0 ROOT 
@<TRIPOS>SET
UNITY_3DHIT     STATIC     ATOMS    <user>   **** Atoms matching 3D or FLEX Search
0
MATCH_ATOMS     DYNAMIC    ATOMS    <user>   **** 
(1,2,3,4,5,6,7,8,9,10,11,12,13,14,15,16,17,18,19,20,21,22,23,24,25,26,27,28,29,30,31,32,33,34,35)
ATOM$INVISIBLE  STATIC     ATOMS    DISPGROUP SYSTEM 
0
