#	Name:			mol_43
#	Creating user name:	jeff
#	Creation time:		Wed Dec 11 13:20:53 2002

#	Modifying user name:	jeff
#	Modification time:	Wed Dec 11 13:20:53 2002

@<TRIPOS>MOLECULE
mol_43
   28    27     1     0     3
SMALL
USER_CHARGES
****
From 3DB ct
@<TRIPOS>ATOM
      1 N           3.776000   -0.935000    0.284000 N.am      1 <1>        -0.992700 
      2 H           3.432000   -0.042000    0.572000 H         1 <1>         0.436000 
      3 C           2.961000   -2.025000    0.354000 C.2       1 <1>         0.919500 
      4 O           3.432000   -3.119000    0.048000 O.2       1 <1>        -0.698100 
      5 C           1.540000   -1.886000    0.826000 C.3       1 <1>        -0.212000 
      6 H           1.527000   -1.721000    1.914000 H         1 <1>         0.008600 
      7 H           1.059000   -1.032000    0.330000 H         1 <1>         0.104100 
      8 C           0.758000   -3.174000    0.490000 C.3       1 <1>        -0.135600 
      9 H           1.186000   -4.006000    1.072000 H         1 <1>         0.007400 
     10 H          -0.298000   -3.049000    0.760000 H         1 <1>        -0.017300 
     11 C           0.866000   -3.454000   -0.985000 C.2       1 <1>         0.823200 
     12 O           0.548000   -2.605000   -1.802000 O.2       1 <1>        -0.995100 
     13 O           1.303000   -4.620000   -1.395000 O.3       1 <1>        -1.033200 
     14 C           5.143000   -1.074000   -0.201000 C.3       1 <1>         0.174800 
     15 H           5.116000   -1.465000   -1.230000 H         1 <1>         0.030800 
     16 C           5.773000    0.338000   -0.272000 C.3       1 <1>         0.247700 
     17 H           5.755000    0.763000    0.743000 H         1 <1>        -0.011700 
     18 C           4.953000    1.233000   -1.220000 C.3       1 <1>        -0.266000 
     19 H           5.354000    2.255000   -1.181000 H         1 <1>        -0.000900 
     20 H           3.895000    1.252000   -0.923000 H         1 <1>         0.065600 
     21 H           5.038000    0.839000   -2.243000 H         1 <1>         0.074500 
     22 C           7.229000    0.276000   -0.785000 C.3       1 <1>        -0.321400 
     23 H           7.499000    1.217000   -1.283000 H         1 <1>         0.014500 
     24 H           7.339000   -0.549000   -1.503000 H         1 <1>         0.062400 
     25 H           7.902000    0.118000    0.071000 H         1 <1>         0.088900 
     26 C           5.981000   -2.006000    0.639000 C.2       1 <1>         0.760600 
     27 O           7.145000   -2.221000    0.340000 O.2       1 <1>        -0.992600 
     28 O           5.502000   -2.657000    1.701000 O.3       1 <1>        -0.986000 
@<TRIPOS>BOND
     1    2    1 1    
     2    1    3 am   
     3    3    4 2    
     4    3    5 1    
     5    5    6 1    
     6    5    7 1    
     7    5    8 1    
     8    8    9 1    
     9    8   10 1    
    10    8   11 1    
    11   11   12 2    
    12   11   13 1    
    13    1   14 1    
    14   14   15 1    
    15   14   16 1    
    16   16   17 1    
    17   16   18 1    
    18   18   19 1    
    19   18   20 1    
    20   18   21 1    
    21   16   22 1    
    22   22   23 1    
    23   22   24 1    
    24   22   25 1    
    25   14   26 1    
    26   26   27 2    
    27   26   28 1    
@<TRIPOS>SUBSTRUCTURE
     1 ****        2 TEMP              0 ****  ****    0 ROOT 
@<TRIPOS>SET
UNITY_3DHIT     STATIC     ATOMS    <user>   **** Atoms matching 3D or FLEX Search
0
MATCH_ATOMS     DYNAMIC    ATOMS    <user>   **** 
(1,2,3,4,5,6,7,8,9,10,11,12,13,14,15,16,17,18,19,20,21,22,23,24,25,26,27,28,29,30,31,32,33,34,35)
ATOM$INVISIBLE  STATIC     ATOMS    DISPGROUP SYSTEM 
0
@<TRIPOS>UNITY_ATOM_ATTR
13 1
AtomExpr -1
28 1
AtomExpr -1
