#	Name:			mol_30
#	Creating user name:	jeff
#	Creation time:		Wed Dec 11 13:20:53 2002

#	Modifying user name:	jeff
#	Modification time:	Wed Dec 11 13:20:53 2002

@<TRIPOS>MOLECULE
mol_30
   18    17     1     0     3
SMALL
USER_CHARGES
INVALID_CHARGES
From 3DB ct
@<TRIPOS>ATOM
      1 S           0.618000   -3.679000   -1.293000 S.3       1 <1>        -0.202700 
      2 H          -0.400000   -3.745000   -1.564000 H         1 <1>         0.081300 
      3 C           0.722000   -3.251000    0.473000 C.3       1 <1>        -0.105000 
      4 H           1.185000   -4.096000    1.004000 H         1 <1>         0.112300 
      5 H          -0.301000   -3.115000    0.856000 H         1 <1>         0.030400 
      6 C           1.516000   -1.954000    0.786000 C.3       1 <1>        -0.174700 
      7 H           1.498000   -1.806000    1.875000 H         1 <1>         0.048600 
      8 H           1.035000   -1.094000    0.300000 H         1 <1>         0.143700 
      9 C           2.956000   -2.029000    0.359000 C.2       1 <1>         0.766700 
     10 N           3.766000   -0.935000    0.299000 N.am      1 <1>        -0.727100 
     11 H           3.433000   -0.031000    0.568000 H         1 <1>         0.400500 
     12 C           5.135000   -1.068000   -0.184000 C.3       1 <1>        -0.023700 
     13 H           5.605000   -0.076000   -0.181000 H         1 <1>         0.030800 
     14 H           5.118000   -1.444000   -1.220000 H         1 <1>         0.034500 
     15 C           5.975000   -2.002000    0.651000 C.2       1 <1>         0.829400 
     16 O           7.140000   -2.208000    0.356000 O.2       1 <1>        -0.967100 
     17 O           5.493000   -2.666000    1.704000 O.3       1 <1>        -0.991400 
     18 O           3.432000   -3.119000    0.048000 O.2       1 <1>        -0.708600 
@<TRIPOS>BOND
     1    2    1 1    
     2    1    3 1    
     3    3    4 1    
     4    3    5 1    
     5    3    6 1    
     6    6    7 1    
     7    6    8 1    
     8    6    9 1    
     9    9   10 am   
    10   10   11 1    
    11   10   12 1    
    12   12   13 1    
    13   12   14 1    
    14   12   15 1    
    15   15   16 2    
    16   15   17 1    
    17    9   18 2    
@<TRIPOS>SUBSTRUCTURE
     1 ****        2 TEMP              0 ****  ****    0 ROOT 
@<TRIPOS>SET
UNITY_3DHIT     STATIC     ATOMS    <user>   **** Atoms matching 3D or FLEX Search
0
MATCH_ATOMS     DYNAMIC    ATOMS    <user>   **** 
(1,2,3,4,5,6,7,8,9,10,11,12,13,14,15,16,17,18,19,20,21,22,23,24,25,26,27,28,29,30,31,32,33,34,35)
ATOM$INVISIBLE  STATIC     ATOMS    DISPGROUP SYSTEM 
0
@<TRIPOS>UNITY_ATOM_ATTR
17 1
AtomExpr -1
