#	Name:			mol_60
#	Creating user name:	jeff
#	Creation time:		Wed Dec 11 13:20:54 2002

#	Modifying user name:	jeff
#	Modification time:	Wed Dec 11 13:20:54 2002

@<TRIPOS>MOLECULE
mol_60
   19    18     1     0     3
SMALL
USER_CHARGES
INVALID_CHARGES
From 3DB ct
@<TRIPOS>ATOM
      1 S           0.619000   -3.679000   -1.294000 S.3       1 <1>        -0.252700 
      2 H          -0.398000   -3.745000   -1.566000 H         1 <1>         0.125900 
      3 C           0.721000   -3.250000    0.472000 C.3       1 <1>        -0.268200 
      4 H           1.183000   -4.095000    1.004000 H         1 <1>         0.092000 
      5 H          -0.301000   -3.114000    0.854000 H         1 <1>         0.143900 
      6 C           1.516000   -1.953000    0.785000 C.3       1 <1>         0.055600 
      7 H           1.497000   -1.804000    1.873000 H         1 <1>         0.085600 
      8 H           1.036000   -1.093000    0.298000 H         1 <1>         0.034300 
      9 C           2.956000   -2.029000    0.359000 C.2       1 <1>         0.539700 
     10 O           3.431000   -3.120000    0.049000 O.2       1 <1>        -0.584600 
     11 C           3.784000   -0.776000    0.382000 C.3       1 <1>        -0.185200 
     12 H           3.901000   -0.434000    1.419000 H         1 <1>         0.091700 
     13 H           3.294000    0.013000   -0.204000 H         1 <1>        -0.010400 
     14 C           5.187000   -1.042000   -0.203000 C.3       1 <1>        -0.090100 
     15 H           5.729000   -0.087000   -0.282000 H         1 <1>        -0.006100 
     16 H           5.061000   -1.461000   -1.212000 H         1 <1>        -0.004100 
     17 C           6.001000   -1.990000    0.641000 C.2       1 <1>         0.831100 
     18 O           7.171000   -2.199000    0.364000 O.2       1 <1>        -0.998400 
     19 O           5.507000   -2.634000    1.699000 O.3       1 <1>        -1.022100 
@<TRIPOS>BOND
     1    2    1 1    
     2    1    3 1    
     3    3    4 1    
     4    3    5 1    
     5    3    6 1    
     6    6    7 1    
     7    6    8 1    
     8    6    9 1    
     9    9   10 2    
    10    9   11 1    
    11   11   12 1    
    12   11   13 1    
    13   11   14 1    
    14   14   15 1    
    15   14   16 1    
    16   14   17 1    
    17   17   18 2    
    18   17   19 1    
@<TRIPOS>SUBSTRUCTURE
     1 ****        2 TEMP              0 ****  ****    0 ROOT 
@<TRIPOS>SET
UNITY_3DHIT     STATIC     ATOMS    <user>   **** Atoms matching 3D or FLEX Search
0
MATCH_ATOMS     DYNAMIC    ATOMS    <user>   **** 
(1,2,3,4,5,6,7,8,9,10,11,12,13,14,15,16,17,18,19,20,21,22,23,24,25,26,27,28,29,30,31,32)
ATOM$INVISIBLE  STATIC     ATOMS    DISPGROUP SYSTEM 
0
@<TRIPOS>UNITY_ATOM_ATTR
19 1
AtomExpr -1
