#	Name:			mol_03
#	Creating user name:	jeff
#	Creation time:		Wed Dec 11 13:20:52 2002

#	Modifying user name:	jeff
#	Modification time:	Wed Dec 11 13:20:52 2002

@<TRIPOS>MOLECULE
mol_03
   33    34     1     0     3
SMALL
USER_CHARGES
INVALID_CHARGES
From 3DB ct
@<TRIPOS>ATOM
      1 S          -1.242000   -4.359000   -0.245000 S.3       1 <1>        -0.251700 
      2 H          -2.249000   -4.164000    0.002000 H         1 <1>         0.095900 
      3 C          -0.175000   -3.446000    0.909000 C.3       1 <1>        -0.111500 
      4 H           0.640000   -4.111000    1.225000 H         1 <1>         0.182100 
      5 H          -0.759000   -3.118000    1.781000 H         1 <1>         0.022600 
      6 C           0.390000   -2.214000    0.166000 C.3       1 <1>         0.149900 
      7 H           0.665000   -2.470000   -0.866000 H         1 <1>        -0.040000 
      8 H          -0.410000   -1.460000    0.140000 H         1 <1>        -0.016000 
      9 C           1.629000   -1.622000    0.879000 C.3       1 <1>         0.015300 
     10 C           2.990000   -2.021000    0.346000 C.2       1 <1>         0.691000 
     11 N           3.761000   -0.934000    0.288000 N.am      1 <1>        -0.479400 
     12 N           2.961000    0.231000    0.517000 N.am      1 <1>        -0.316700 
     13 C           3.435000    1.591000    0.416000 C.3       1 <1>         0.113800 
     14 H           2.709000    2.204000   -0.137000 H         1 <1>         0.052500 
     15 H           3.576000    2.000000    1.424000 H         1 <1>         0.070400 
     16 C           4.786000    1.581000   -0.336000 C.3       1 <1>        -0.171700 
     17 H           4.602000    1.441000   -1.410000 H         1 <1>         0.067600 
     18 H           5.283000    2.549000   -0.179000 H         1 <1>         0.048100 
     19 C           5.725000    0.453000    0.153000 C.3       1 <1>        -0.120900 
     20 H           5.874000    0.549000    1.238000 H         1 <1>         0.095900 
     21 H           6.698000    0.539000   -0.354000 H         1 <1>         0.049500 
     22 C           5.141000   -0.939000   -0.161000 C.3       1 <1>         0.286600 
     23 H           5.150000   -1.112000   -1.246000 H         1 <1>        -0.004200 
     24 C           6.015000   -1.956000    0.524000 C.2       1 <1>         0.699400 
     25 O           7.132000   -2.178000    0.086000 O.2       1 <1>        -0.945300 
     26 O           5.599000   -2.589000    1.594000 O.3       1 <1>        -0.929900 
     27 C           1.693000   -0.115000    0.790000 C.2       1 <1>         0.563800 
     28 O           0.742000    0.633000    0.954000 O.2       1 <1>        -0.631700 
     29 O           3.417000   -3.125000    0.051000 O.2       1 <1>        -0.613800 
     30 C           1.636000   -1.918000    2.392000 C.3       1 <1>        -0.154800 
     31 H           0.683000   -1.594000    2.837000 H         1 <1>         0.038600 
     32 H           2.464000   -1.374000    2.871000 H         1 <1>         0.076800 
     33 H           1.770000   -2.997000    2.556000 H         1 <1>         0.045600 
@<TRIPOS>BOND
     1    2    1 1    
     2    1    3 1    
     3    3    4 1    
     4    3    5 1    
     5    3    6 1    
     6    6    7 1    
     7    6    8 1    
     8    6    9 1    
     9    9   10 1    
    10   10   11 am   
    11   11   12 1    
    12   12   13 1    
    13   13   14 1    
    14   13   15 1    
    15   13   16 1    
    16   16   17 1    
    17   16   18 1    
    18   16   19 1    
    19   19   20 1    
    20   19   21 1    
    21   19   22 1    
    22   22   23 1    
    23   22   11 1    
    24   22   24 1    
    25   24   25 2    
    26   24   26 1    
    27   12   27 am   
    28   27    9 1    
    29   27   28 2    
    30   10   29 2    
    31    9   30 1    
    32   30   31 1    
    33   30   32 1    
    34   30   33 1    
@<TRIPOS>SUBSTRUCTURE
     1 ****        2 TEMP              0 ****  ****    0 ROOT 
@<TRIPOS>SET
UNITY_3DHIT     STATIC     ATOMS    <user>   **** Atoms matching 3D or FLEX Search
0
MATCH_ATOMS     DYNAMIC    ATOMS    <user>   **** 
(1,2,3,4,5,6,7,8,9,10,11,12,13,14,15,16,17,18,19,20,21,22,23,24,25,26,27,28,29,30,31,32,33,34,35,36,37,38,39,40,41,42,43,44)
ATOM$INVISIBLE  STATIC     ATOMS    DISPGROUP SYSTEM 
0
@<TRIPOS>UNITY_ATOM_ATTR
26 1
AtomExpr -1
