#	Name:			mol_20
#	Creating user name:	jeff
#	Creation time:		Wed Dec 11 13:20:52 2002

#	Modifying user name:	jeff
#	Modification time:	Wed Dec 11 13:20:52 2002

@<TRIPOS>MOLECULE
mol_20
   54    56     1     0     3
SMALL
USER_CHARGES
****
From 3DB ct
@<TRIPOS>ATOM
      1 N           3.764000   -0.949000    0.311000 N.am      1 <1>        -0.497100 
      2 C           5.136000   -1.062000   -0.152000 C.3       1 <1>         0.139900 
      3 H           5.159000   -1.367000   -1.209000 H         1 <1>         0.028900 
      4 C           5.668000    0.377000   -0.012000 C.3       1 <1>        -0.190700 
      5 H           6.531000    0.399000    0.672000 H         1 <1>         0.106200 
      6 H           5.967000    0.758000   -1.000000 H         1 <1>         0.039100 
      7 C           4.531000    1.241000    0.571000 C.3       1 <1>        -0.080000 
      8 H           4.840000    1.601000    1.564000 H         1 <1>         0.096300 
      9 H           4.340000    2.099000   -0.087000 H         1 <1>         0.020100 
     10 C           3.274000    0.357000    0.705000 C.3       1 <1>         0.046800 
     11 H           2.968000    0.379000    1.759000 H         1 <1>         0.042000 
     12 H           2.460000    0.707000    0.051000 H         1 <1>         0.039300 
     13 C           5.976000   -2.002000    0.672000 C.2       1 <1>         0.808700 
     14 O           7.137000   -2.203000    0.358000 O.2       1 <1>        -0.948600 
     15 O           5.494000   -2.622000    1.721000 O.3       1 <1>        -0.993000 
     16 C           2.978000   -2.045000    0.336000 C.2       1 <1>         0.483600 
     17 O           3.430000   -3.127000   -0.002000 O.2       1 <1>        -0.526100 
     18 C           1.520000   -1.983000    0.755000 C.3       1 <1>         0.536000 
     19 H           1.025000   -1.184000    0.188000 H         1 <1>        -0.040500 
     20 N           0.817000   -3.248000    0.446000 N.4       1 <1>        -0.586600 
     21 H          -0.247000   -3.134000    0.600000 H         1 <1>         0.451400 
     22 H           0.945000   -3.420000   -0.428000 H         1 <1>         0.460800 
     23 C           1.335000   -4.405000    1.205000 C.3       1 <1>        -0.056900 
     24 H           2.231000   -4.068000    1.743000 H         1 <1>         0.157100 
     25 C           0.438000   -4.871000    2.387000 C.3       1 <1>        -0.065100 
     26 H           0.303000   -4.028000    3.079000 H         1 <1>         0.031600 
     27 H           0.938000   -5.689000    2.924000 H         1 <1>         0.079300 
     28 C          -0.962000   -5.347000    1.964000 C.3       1 <1>         0.055700 
     29 H          -1.500000   -4.505000    1.508000 H         1 <1>        -0.016700 
     30 H          -0.841000   -6.133000    1.204000 H         1 <1>         0.075000 
     31 C          -1.811000   -5.880000    3.136000 C.ar      1 <1>        -0.155000 
     32 C          -1.738000   -7.215000    3.530000 C.ar      1 <1>         0.036400 
     33 C          -2.673000   -7.730000    4.427000 C.ar      1 <1>         0.193200 
     34 C          -3.681000   -6.909000    4.930000 C.ar      1 <1>        -0.277100 
     35 H          -4.408000   -7.307000    5.626000 H         1 <1>         0.170600 
     36 C          -3.754000   -5.574000    4.536000 C.ar      1 <1>        -0.150100 
     37 H          -4.539000   -4.935000    4.924000 H         1 <1>         0.145500 
     38 C          -2.819000   -5.059000    3.639000 C.ar      1 <1>        -0.154200 
     39 H          -2.878000   -4.022000    3.327000 H         1 <1>         0.154000 
     40 C          -2.600000   -9.065000    4.821000 C.ar      1 <1>        -0.338700 
     41 H          -3.326000   -9.463000    5.519000 H         1 <1>         0.171800 
     42 C          -1.592000   -9.886000    4.318000 C.ar      1 <1>        -0.054100 
     43 H          -1.534000  -10.923000    4.626000 H         1 <1>         0.125500 
     44 C          -0.657000   -9.372000    3.422000 C.ar      1 <1>        -0.225700 
     45 H           0.127000  -10.010000    3.030000 H         1 <1>         0.168100 
     46 C          -0.729000   -8.036000    3.028000 C.ar      1 <1>        -0.117200 
     47 H           0.009000   -7.653000    2.333000 H         1 <1>         0.201300 
     48 C           1.851000   -5.431000    0.228000 C.2       1 <1>         0.769800 
     49 O           2.962000   -5.891000    0.432000 O.2       1 <1>        -0.817900 
     50 O           1.207000   -5.864000   -0.828000 O.3       1 <1>        -0.961300 
     51 C           1.317000   -1.676000    2.256000 C.3       1 <1>        -0.425900 
     52 H           1.547000   -0.629000    2.483000 H         1 <1>         0.197200 
     53 H           1.948000   -2.337000    2.869000 H         1 <1>         0.156900 
     54 H           0.260000   -1.847000    2.500000 H         1 <1>         0.068500 
@<TRIPOS>BOND
     1    1    2 1    
     2    2    3 1    
     3    2    4 1    
     4    4    5 1    
     5    4    6 1    
     6    4    7 1    
     7    7    8 1    
     8    7    9 1    
     9    7   10 1    
    10   10   11 1    
    11   10   12 1    
    12   10    1 1    
    13    2   13 1    
    14   13   14 2    
    15   13   15 1    
    16    1   16 am   
    17   16   17 2    
    18   16   18 1    
    19   18   19 1    
    20   18   20 1    
    21   20   21 1    
    22   20   22 1    
    23   20   23 1    
    24   23   24 1    
    25   23   25 1    
    26   25   26 1    
    27   25   27 1    
    28   25   28 1    
    29   28   29 1    
    30   28   30 1    
    31   28   31 1    
    32   31   32 ar   
    33   32   33 ar   
    34   33   34 ar   
    35   34   35 1    
    36   34   36 ar   
    37   36   37 1    
    38   36   38 ar   
    39   38   39 1    
    40   38   31 ar   
    41   33   40 ar   
    42   40   41 1    
    43   40   42 ar   
    44   42   43 1    
    45   42   44 ar   
    46   44   45 1    
    47   44   46 ar   
    48   46   47 1    
    49   46   32 ar   
    50   23   48 1    
    51   48   49 2    
    52   48   50 1    
    53   18   51 1    
    54   51   52 1    
    55   51   53 1    
    56   51   54 1    
@<TRIPOS>SUBSTRUCTURE
     1 ****        1 TEMP              0 ****  ****    0 ROOT 
@<TRIPOS>SET
UNITY_3DHIT     STATIC     ATOMS    <user>   **** Atoms matching 3D or FLEX Search
0
MATCH_ATOMS     DYNAMIC    ATOMS    <user>   **** 
(1,2,3,4,5,6,7,8,9,10,11,12,13,14,15,16,17,18,19,20,21,22,23,24,25,26,27,28,29,30,31,32,33,34,35,36,37,38,39,40,41,42,43,44)
ATOM$INVISIBLE  STATIC     ATOMS    DISPGROUP SYSTEM 
0
@<TRIPOS>UNITY_ATOM_ATTR
15 1
AtomExpr -1
20 1
AtomExpr +1
50 1
AtomExpr -1
