#	Name:			mol_21
#	Creating user name:	jeff
#	Creation time:		Wed Dec 11 13:20:53 2002

#	Modifying user name:	jeff
#	Modification time:	Wed Dec 11 13:20:53 2002

@<TRIPOS>MOLECULE
mol_21
   49    50     1     0     3
SMALL
USER_CHARGES
****
From 3DB ct
@<TRIPOS>ATOM
      1 N           3.764000   -0.949000    0.311000 N.am      1 <1>        -0.464100 
      2 C           5.136000   -1.062000   -0.152000 C.3       1 <1>         0.092200 
      3 H           5.159000   -1.367000   -1.209000 H         1 <1>         0.041200 
      4 C           5.668000    0.377000   -0.012000 C.3       1 <1>        -0.171500 
      5 H           6.532000    0.398000    0.672000 H         1 <1>         0.106000 
      6 H           5.968000    0.758000   -0.999000 H         1 <1>         0.030400 
      7 C           4.531000    1.241000    0.571000 C.3       1 <1>        -0.089000 
      8 H           4.840000    1.600000    1.564000 H         1 <1>         0.095900 
      9 H           4.340000    2.099000   -0.087000 H         1 <1>         0.014700 
     10 C           3.275000    0.357000    0.705000 C.3       1 <1>         0.127900 
     11 H           2.968000    0.379000    1.759000 H         1 <1>         0.008700 
     12 H           2.461000    0.708000    0.051000 H         1 <1>         0.015800 
     13 C           5.976000   -2.002000    0.672000 C.2       1 <1>         0.823500 
     14 O           7.137000   -2.203000    0.358000 O.2       1 <1>        -0.951600 
     15 O           5.494000   -2.623000    1.721000 O.3       1 <1>        -0.993900 
     16 C           2.978000   -2.045000    0.336000 C.2       1 <1>         0.403800 
     17 O           3.430000   -3.127000   -0.002000 O.2       1 <1>        -0.506900 
     18 C           1.524000   -1.987000    0.761000 C.3       1 <1>         0.573900 
     19 H           1.026000   -1.191000    0.192000 H         1 <1>        -0.054200 
     20 N           0.814000   -3.248000    0.461000 N.4       1 <1>        -0.483500 
     21 H          -0.245000   -3.124000    0.632000 H         1 <1>         0.408700 
     22 H           0.924000   -3.412000   -0.417000 H         1 <1>         0.442800 
     23 C           1.340000   -4.422000    1.193000 C.3       1 <1>        -0.092000 
     24 H           2.229000   -4.091000    1.745000 H         1 <1>         0.157100 
     25 C           0.464000   -4.968000    2.353000 C.3       1 <1>         0.032400 
     26 H           0.543000   -4.281000    3.211000 H         1 <1>        -0.005900 
     27 H           0.848000   -5.956000    2.648000 H         1 <1>         0.064400 
     28 C          -1.032000   -5.107000    2.024000 C.3       1 <1>        -0.081000 
     29 H          -1.469000   -4.115000    1.840000 H         1 <1>         0.009600 
     30 H          -1.099000   -5.700000    1.101000 H         1 <1>         0.096600 
     31 C          -1.838000   -5.818000    3.123000 C.ar      1 <1>        -0.101600 
     32 C          -2.903000   -5.163000    3.748000 C.ar      1 <1>        -0.088200 
     33 H          -3.045000   -4.101000    3.603000 H         1 <1>         0.158000 
     34 C          -3.793000   -5.878000    4.555000 C.ar      1 <1>        -0.399900 
     35 H          -4.622000   -5.369000    5.031000 H         1 <1>         0.215600 
     36 C          -3.608000   -7.247000    4.764000 C.ar      1 <1>         0.497400 
     37 C          -2.529000   -7.898000    4.160000 C.ar      1 <1>        -0.499700 
     38 H          -2.381000   -8.958000    4.328000 H         1 <1>         0.205700 
     39 C          -1.641000   -7.181000    3.354000 C.ar      1 <1>        -0.038900 
     40 H          -0.801000   -7.693000    2.899000 H         1 <1>         0.206200 
     41 O          -4.422000   -7.905000    5.535000 O.3       1 <1>        -0.634800 
     42 H          -3.929000   -8.582000    6.005000 H         1 <1>         0.431200 
     43 C           1.880000   -5.422000    0.197000 C.2       1 <1>         0.757200 
     44 O           3.009000   -5.844000    0.382000 O.2       1 <1>        -0.812900 
     45 O           1.222000   -5.858000   -0.849000 O.3       1 <1>        -0.956500 
     46 C           1.350000   -1.692000    2.265000 C.3       1 <1>        -0.471300 
     47 H           1.517000   -0.628000    2.478000 H         1 <1>         0.196700 
     48 H           2.055000   -2.303000    2.852000 H         1 <1>         0.179700 
     49 H           0.317000   -1.944000    2.552000 H         1 <1>         0.082100 
@<TRIPOS>BOND
     1    1    2 1    
     2    2    3 1    
     3    2    4 1    
     4    4    5 1    
     5    4    6 1    
     6    4    7 1    
     7    7    8 1    
     8    7    9 1    
     9    7   10 1    
    10   10   11 1    
    11   10   12 1    
    12   10    1 1    
    13    2   13 1    
    14   13   14 2    
    15   13   15 1    
    16    1   16 am   
    17   16   17 2    
    18   16   18 1    
    19   18   19 1    
    20   18   20 1    
    21   20   21 1    
    22   20   22 1    
    23   20   23 1    
    24   23   24 1    
    25   23   25 1    
    26   25   26 1    
    27   25   27 1    
    28   25   28 1    
    29   28   29 1    
    30   28   30 1    
    31   28   31 1    
    32   31   32 ar   
    33   32   33 1    
    34   32   34 ar   
    35   34   35 1    
    36   34   36 ar   
    37   36   37 ar   
    38   37   38 1    
    39   37   39 ar   
    40   39   40 1    
    41   39   31 ar   
    42   36   41 1    
    43   41   42 1    
    44   23   43 1    
    45   43   44 2    
    46   43   45 1    
    47   18   46 1    
    48   46   47 1    
    49   46   48 1    
    50   46   49 1    
@<TRIPOS>SUBSTRUCTURE
     1 ****        1 TEMP              0 ****  ****    0 ROOT 
@<TRIPOS>SET
UNITY_3DHIT     STATIC     ATOMS    <user>   **** Atoms matching 3D or FLEX Search
0
MATCH_ATOMS     DYNAMIC    ATOMS    <user>   **** 
(1,2,3,4,5,6,7,8,9,10,11,12,13,14,15,16,17,18,19,20,21,22,23,24,25,26,27,28,29,30,31,32,33,34,35,36,37,38,39,40,41,42,43,44)
ATOM$INVISIBLE  STATIC     ATOMS    DISPGROUP SYSTEM 
0
@<TRIPOS>UNITY_ATOM_ATTR
15 1
AtomExpr -1
20 1
AtomExpr +1
45 1
AtomExpr -1
