#	Name:			mol_17
#	Creating user name:	jeff
#	Creation time:		Wed Dec 11 13:20:52 2002

#	Modifying user name:	jeff
#	Modification time:	Wed Dec 11 13:20:52 2002

@<TRIPOS>MOLECULE
mol_17
   52    53     1     0     3
SMALL
USER_CHARGES
****
From 3DB ct
@<TRIPOS>ATOM
      1 I          -4.323000    2.762000   -2.673000 I         1 <1>         0.003500 
      2 C          -3.480000    1.026000   -1.975000 C.ar      1 <1>        -0.730500 
      3 C          -4.192000    0.187000   -1.116000 C.ar      1 <1>         0.367900 
      4 H          -5.176000    0.475000   -0.766000 H         1 <1>         0.064800 
      5 C          -3.636000   -1.027000   -0.704000 C.ar      1 <1>        -0.597300 
      6 H          -4.256000   -1.740000   -0.178000 H         1 <1>         0.254300 
      7 C          -2.293000   -1.317000   -0.972000 C.ar      1 <1>         0.872600 
      8 C          -1.586000   -0.477000   -1.839000 C.ar      1 <1>        -0.639300 
      9 H          -0.558000   -0.706000   -2.097000 H         1 <1>         0.281300 
     10 C          -2.186000    0.670000   -2.367000 C.ar      1 <1>         0.403700 
     11 H          -1.647000    1.286000   -3.079000 H         1 <1>         0.064800 
     12 N          -1.691000   -2.564000   -0.613000 N.am      1 <1>        -1.239500 
     13 H          -0.836000   -2.802000   -1.072000 H         1 <1>         0.615500 
     14 C          -2.194000   -3.494000    0.245000 C.2       1 <1>         0.928700 
     15 O          -3.207000   -3.336000    0.906000 O.2       1 <1>        -0.652300 
     16 C          -1.447000   -4.821000    0.373000 C.3       1 <1>        -0.329300 
     17 H          -1.037000   -5.104000   -0.607000 H         1 <1>         0.175300 
     18 H          -2.206000   -5.568000    0.648000 H         1 <1>         0.094300 
     19 C          -0.316000   -4.999000    1.436000 C.3       1 <1>        -0.122300 
     20 H          -0.177000   -6.073000    1.622000 H         1 <1>         0.129100 
     21 H          -0.652000   -4.526000    2.372000 H         1 <1>         0.054300 
     22 C           1.079000   -4.413000    1.065000 C.3       1 <1>        -0.036900 
     23 H           1.648000   -4.274000    1.997000 H         1 <1>         0.156200 
     24 N           0.754000   -3.088000    0.491000 N.4       1 <1>        -0.627400 
     25 H          -0.202000   -2.808000    0.874000 H         1 <1>         0.450400 
     26 H           0.707000   -3.155000   -0.405000 H         1 <1>         0.456000 
     27 C           1.567000   -1.926000    0.847000 C.3       1 <1>         0.664000 
     28 H           1.095000   -1.057000    0.370000 H         1 <1>        -0.057600 
     29 C           1.513000   -1.743000    2.378000 C.3       1 <1>        -0.508800 
     30 H           1.834000   -0.735000    2.662000 H         1 <1>         0.212900 
     31 H           2.164000   -2.484000    2.862000 H         1 <1>         0.163500 
     32 H           0.479000   -1.889000    2.714000 H         1 <1>         0.102700 
     33 C           2.964000   -2.042000    0.354000 C.2       1 <1>         0.468000 
     34 O           3.430000   -3.127000    0.011000 O.2       1 <1>        -0.524000 
     35 N           3.781000   -0.956000    0.301000 N.am      1 <1>        -0.541600 
     36 C           5.145000   -1.095000   -0.185000 C.3       1 <1>         0.119600 
     37 H           5.144000   -1.441000   -1.230000 H         1 <1>         0.031800 
     38 C           5.686000    0.347000   -0.107000 C.3       1 <1>        -0.105400 
     39 H           6.568000    0.392000    0.550000 H         1 <1>         0.088200 
     40 H           5.959000    0.697000   -1.115000 H         1 <1>         0.017500 
     41 C           4.571000    1.237000    0.480000 C.3       1 <1>        -0.156000 
     42 H           4.906000    1.623000    1.454000 H         1 <1>         0.109900 
     43 H           4.372000    2.076000   -0.202000 H         1 <1>         0.028800 
     44 C           3.315000    0.364000    0.673000 C.3       1 <1>         0.186400 
     45 H           3.026000    0.401000    1.730000 H         1 <1>         0.008400 
     46 H           2.487000    0.703000    0.031000 H         1 <1>         0.001600 
     47 C           5.989000   -2.015000    0.661000 C.2       1 <1>         0.797500 
     48 O           7.152000   -2.207000    0.344000 O.2       1 <1>        -0.941800 
     49 O           5.495000   -2.611000    1.717000 O.3       1 <1>        -0.985800 
     50 C           1.882000   -5.356000    0.178000 C.2       1 <1>         0.776300 
     51 O           2.946000   -5.845000    0.522000 O.2       1 <1>        -0.776900 
     52 O           1.338000   -5.619000   -0.985000 O.3       1 <1>        -0.999500 
@<TRIPOS>BOND
     1    1    2 1    
     2    2    3 ar   
     3    3    4 1    
     4    3    5 ar   
     5    5    6 1    
     6    5    7 ar   
     7    7    8 ar   
     8    8    9 1    
     9    8   10 ar   
    10   10   11 1    
    11   10    2 ar   
    12    7   12 1    
    13   12   13 1    
    14   12   14 am   
    15   14   15 2    
    16   14   16 1    
    17   16   17 1    
    18   16   18 1    
    19   16   19 1    
    20   19   20 1    
    21   19   21 1    
    22   19   22 1    
    23   22   23 1    
    24   22   24 1    
    25   24   25 1    
    26   24   26 1    
    27   24   27 1    
    28   27   28 1    
    29   27   29 1    
    30   29   30 1    
    31   29   31 1    
    32   29   32 1    
    33   27   33 1    
    34   33   34 2    
    35   33   35 am   
    36   35   36 1    
    37   36   37 1    
    38   36   38 1    
    39   38   39 1    
    40   38   40 1    
    41   38   41 1    
    42   41   42 1    
    43   41   43 1    
    44   41   44 1    
    45   44   45 1    
    46   44   46 1    
    47   44   35 1    
    48   36   47 1    
    49   47   48 2    
    50   47   49 1    
    51   22   50 1    
    52   50   51 2    
    53   50   52 1    
@<TRIPOS>SUBSTRUCTURE
     1 ****        1 TEMP              0 ****  ****    0 ROOT 
@<TRIPOS>SET
UNITY_3DHIT     STATIC     ATOMS    <user>   **** Atoms matching 3D or FLEX Search
0
MATCH_ATOMS     DYNAMIC    ATOMS    <user>   **** 
(1,2,3,4,5,6,7,8,9,10,11,12,13,14,15,16,17,18,19,20,21,22,23,24,25,26,27,28,29,30,31,32,33,34,35,36,37,38,39,40,41,42,43,44)
ATOM$INVISIBLE  STATIC     ATOMS    DISPGROUP SYSTEM 
0
@<TRIPOS>UNITY_ATOM_ATTR
24 1
AtomExpr +1
49 1
AtomExpr -1
52 1
AtomExpr -1
