#	Name:			mol_53
#	Creating user name:	jeff
#	Creation time:		Wed Dec 11 13:20:53 2002

#	Modifying user name:	jeff
#	Modification time:	Wed Dec 11 13:20:53 2002

@<TRIPOS>MOLECULE
mol_53
   38    38     1     0     3
SMALL
USER_CHARGES
****
From 3DB ct
@<TRIPOS>ATOM
      1 N           3.776000   -0.935000    0.284000 N.am      1 <1>        -1.158900 
      2 H           3.435000   -0.030000    0.547000 H         1 <1>         0.520300 
      3 C           2.961000   -2.025000    0.354000 C.2       1 <1>         1.012500 
      4 O           3.432000   -3.119000    0.048000 O.2       1 <1>        -0.744400 
      5 C           1.534000   -1.905000    0.821000 C.3       1 <1>        -0.139400 
      6 H           1.196000   -0.861000    0.775000 H         1 <1>         0.136800 
      7 N           0.652000   -2.696000   -0.048000 N.3       1 <1>        -0.864900 
      8 H          -0.361000   -2.644000    0.323000 H         1 <1>         0.318500 
      9 H           0.981000   -3.725000   -0.067000 H         1 <1>         0.321700 
     10 C           1.379000   -2.369000    2.294000 C.3       1 <1>         0.264600 
     11 H           0.317000   -2.317000    2.577000 H         1 <1>         0.028200 
     12 C           1.859000   -3.818000    2.512000 C.3       1 <1>        -0.313500 
     13 H           1.684000   -4.093000    3.564000 H         1 <1>         0.061500 
     14 H           2.936000   -3.899000    2.303000 H         1 <1>         0.095300 
     15 H           1.299000   -4.508000    1.867000 H         1 <1>         0.066600 
     16 C           2.164000   -1.447000    3.245000 C.3       1 <1>        -0.437400 
     17 H           3.230000   -1.461000    2.982000 H         1 <1>         0.155200 
     18 H           2.045000   -1.794000    4.283000 H         1 <1>         0.084700 
     19 H           1.776000   -0.422000    3.166000 H         1 <1>         0.094000 
     20 C           5.148000   -1.061000   -0.195000 C.3       1 <1>         0.481100 
     21 H           5.128000   -1.440000   -1.230000 H         1 <1>        -0.011600 
     22 C           5.768000    0.353000   -0.191000 C.3       1 <1>        -0.345800 
     23 H           5.182000    1.004000   -0.855000 H         1 <1>         0.052600 
     24 H           5.730000    0.757000    0.832000 H         1 <1>         0.107500 
     25 C           7.210000    0.337000   -0.692000 C.ar      1 <1>         0.171500 
     26 C           8.265000    0.560000    0.197000 C.ar      1 <1>        -0.224700 
     27 H           8.061000    0.745000    1.244000 H         1 <1>         0.230900 
     28 C           9.583000    0.541000   -0.263000 C.ar      1 <1>        -0.130600 
     29 H          10.399000    0.721000    0.426000 H         1 <1>         0.122800 
     30 C           9.848000    0.292000   -1.611000 C.ar      1 <1>        -0.184300 
     31 H          10.871000    0.271000   -1.965000 H         1 <1>         0.118700 
     32 C           8.794000    0.069000   -2.501000 C.ar      1 <1>        -0.179700 
     33 H           9.002000   -0.121000   -3.546000 H         1 <1>         0.123000 
     34 C           7.476000    0.092000   -2.041000 C.ar      1 <1>        -0.207300 
     35 H           6.660000   -0.080000   -2.731000 H         1 <1>         0.161400 
     36 C           5.981000   -2.006000    0.639000 C.2       1 <1>         0.690000 
     37 O           7.145000   -2.222000    0.339000 O.2       1 <1>        -0.939000 
     38 O           5.502000   -2.657000    1.700000 O.3       1 <1>        -0.959800 
@<TRIPOS>BOND
     1    2    1 1    
     2    1    3 am   
     3    3    4 2    
     4    3    5 1    
     5    5    6 1    
     6    5    7 1    
     7    7    8 1    
     8    7    9 1    
     9    5   10 1    
    10   10   11 1    
    11   10   12 1    
    12   12   13 1    
    13   12   14 1    
    14   12   15 1    
    15   10   16 1    
    16   16   17 1    
    17   16   18 1    
    18   16   19 1    
    19    1   20 1    
    20   20   21 1    
    21   20   22 1    
    22   22   23 1    
    23   22   24 1    
    24   22   25 1    
    25   25   26 ar   
    26   26   27 1    
    27   26   28 ar   
    28   28   29 1    
    29   28   30 ar   
    30   30   31 1    
    31   30   32 ar   
    32   32   33 1    
    33   32   34 ar   
    34   34   35 1    
    35   34   25 ar   
    36   20   36 1    
    37   36   37 2    
    38   36   38 1    
@<TRIPOS>SUBSTRUCTURE
     1 ****        2 TEMP              0 ****  ****    0 ROOT 
@<TRIPOS>SET
UNITY_3DHIT     STATIC     ATOMS    <user>   **** Atoms matching 3D or FLEX Search
0
MATCH_ATOMS     DYNAMIC    ATOMS    <user>   **** 
(1,2,3,4,5,6,7,8,9,10,11,12,13,14,15,16,17,18,19,20,21,22,23,24,25,26,27,28,29,30,31,32,33,34,35)
ATOM$INVISIBLE  STATIC     ATOMS    DISPGROUP SYSTEM 
0
@<TRIPOS>UNITY_ATOM_ATTR
38 1
AtomExpr -1
