#	Name:			mol_13
#	Creating user name:	jeff
#	Creation time:		Wed Dec 11 13:20:52 2002

#	Modifying user name:	jeff
#	Modification time:	Wed Dec 11 13:20:52 2002

@<TRIPOS>MOLECULE
mol_13
   52    54     1     0     3
SMALL
USER_CHARGES
****
From 3DB ct
@<TRIPOS>ATOM
      1 N           3.773000   -0.925000    0.289000 N.am      1 <1>        -0.860200 
      2 C           3.596000    0.390000    0.856000 C.ar      1 <1>         0.490800 
      3 C           2.405000    0.918000    1.392000 C.ar      1 <1>        -0.082100 
      4 C           2.317000    2.275000    1.727000 C.ar      1 <1>        -0.196900 
      5 H           1.376000    2.682000    2.082000 H         1 <1>         0.152100 
      6 C           3.415000    3.129000    1.635000 C.ar      1 <1>        -0.201800 
      7 H           3.334000    4.178000    1.902000 H         1 <1>         0.147200 
      8 C           4.629000    2.601000    1.205000 C.ar      1 <1>        -0.103700 
      9 H           5.501000    3.240000    1.111000 H         1 <1>         0.144800 
     10 C           4.713000    1.240000    0.908000 C.ar      1 <1>        -0.306400 
     11 H           5.706000    0.853000    0.723000 H         1 <1>         0.216800 
     12 C           1.122000    0.180000    1.737000 C.3       1 <1>        -0.048100 
     13 H           0.682000    0.649000    2.629000 H         1 <1>         0.093600 
     14 H           0.407000    0.269000    0.906000 H         1 <1>         0.014000 
     15 C           1.391000   -1.280000    2.100000 C.3       1 <1>        -0.184700 
     16 H           2.302000   -1.383000    2.708000 H         1 <1>         0.208700 
     17 H           0.527000   -1.635000    2.675000 H         1 <1>         0.057500 
     18 C           1.525000   -2.014000    0.763000 C.3       1 <1>        -0.041600 
     19 H           0.932000   -1.508000   -0.016000 H         1 <1>         0.149900 
     20 C           2.975000   -2.030000    0.348000 C.2       1 <1>         0.812300 
     21 O           3.420000   -3.126000    0.048000 O.2       1 <1>        -0.617100 
     22 N           1.023000   -3.399000    0.859000 N.4       1 <1>        -0.275800 
     23 H           1.130000   -3.875000   -0.104000 H         1 <1>         0.358900 
     24 H           1.580000   -3.832000    1.418000 H         1 <1>         0.435700 
     25 C          -0.342000   -3.641000    1.365000 C.3       1 <1>         0.123800 
     26 H          -0.436000   -3.321000    2.414000 H         1 <1>         0.092300 
     27 C          -1.428000   -2.964000    0.499000 C.3       1 <1>         0.014800 
     28 H          -1.025000   -2.775000   -0.507000 H         1 <1>        -0.020800 
     29 H          -2.289000   -3.643000    0.414000 H         1 <1>         0.075800 
     30 C          -1.912000   -1.648000    1.142000 C.3       1 <1>        -0.265300 
     31 H          -2.514000   -1.873000    2.034000 H         1 <1>         0.115500 
     32 H          -1.062000   -1.026000    1.446000 H         1 <1>         0.063600 
     33 C          -2.737000   -0.871000    0.124000 C.ar      1 <1>         0.114100 
     34 C          -2.088000   -0.146000   -0.877000 C.ar      1 <1>        -0.216000 
     35 H          -1.005000   -0.118000   -0.916000 H         1 <1>         0.165300 
     36 C          -2.836000    0.546000   -1.832000 C.ar      1 <1>        -0.166500 
     37 H          -2.330000    1.099000   -2.616000 H         1 <1>         0.142700 
     38 C          -4.232000    0.530000   -1.775000 C.ar      1 <1>        -0.131600 
     39 H          -4.807000    1.081000   -2.508000 H         1 <1>         0.130700 
     40 C          -4.881000   -0.183000   -0.764000 C.ar      1 <1>        -0.163300 
     41 H          -5.962000   -0.198000   -0.713000 H         1 <1>         0.143300 
     42 C          -4.133000   -0.876000    0.191000 C.ar      1 <1>        -0.198900 
     43 H          -4.633000   -1.431000    0.977000 H         1 <1>         0.196300 
     44 C          -0.532000   -5.130000    1.312000 C.2       1 <1>         0.633800 
     45 O          -0.567000   -5.770000    2.349000 O.2       1 <1>        -0.807600 
     46 O          -0.653000   -5.770000    0.148000 O.3       1 <1>        -0.916200 
     47 C           5.060000   -1.213000   -0.354000 C.3       1 <1>         0.258200 
     48 H           5.550000   -0.306000   -0.736000 H         1 <1>        -0.016700 
     49 H           4.872000   -1.842000   -1.239000 H         1 <1>        -0.001000 
     50 C           5.962000   -1.997000    0.580000 C.2       1 <1>         0.785400 
     51 O           7.142000   -2.132000    0.297000 O.2       1 <1>        -0.959400 
     52 O           5.486000   -2.560000    1.664000 O.3       1 <1>        -0.978400 
@<TRIPOS>BOND
     1    1    2 1    
     2    2    3 ar   
     3    3    4 ar   
     4    4    5 1    
     5    4    6 ar   
     6    6    7 1    
     7    6    8 ar   
     8    8    9 1    
     9    8   10 ar   
    10   10   11 1    
    11   10    2 ar   
    12    3   12 1    
    13   12   13 1    
    14   12   14 1    
    15   12   15 1    
    16   15   16 1    
    17   15   17 1    
    18   15   18 1    
    19   18   19 1    
    20   18   20 1    
    21   20    1 am   
    22   20   21 2    
    23   18   22 1    
    24   22   23 1    
    25   22   24 1    
    26   22   25 1    
    27   25   26 1    
    28   25   27 1    
    29   27   28 1    
    30   27   29 1    
    31   27   30 1    
    32   30   31 1    
    33   30   32 1    
    34   30   33 1    
    35   33   34 ar   
    36   34   35 1    
    37   34   36 ar   
    38   36   37 1    
    39   36   38 ar   
    40   38   39 1    
    41   38   40 ar   
    42   40   41 1    
    43   40   42 ar   
    44   42   43 1    
    45   42   33 ar   
    46   25   44 1    
    47   44   45 2    
    48   44   46 1    
    49    1   47 1    
    50   47   48 1    
    51   47   49 1    
    52   47   50 1    
    53   50   51 2    
    54   50   52 1    
@<TRIPOS>SUBSTRUCTURE
     1 ****        1 TEMP              0 ****  ****    0 ROOT 
@<TRIPOS>SET
UNITY_3DHIT     STATIC     ATOMS    <user>   **** Atoms matching 3D or FLEX Search
0
MATCH_ATOMS     DYNAMIC    ATOMS    <user>   **** 
(1,2,3,4,5,6,7,8,9,10,11,12,13,14,15,16,17,18,19,20,21,22,23,24,25,26,27,28,29,30,31,32,33,34,35,36,37,38,39,40,41,42,43,44)
ATOM$INVISIBLE  STATIC     ATOMS    DISPGROUP SYSTEM 
0
@<TRIPOS>UNITY_ATOM_ATTR
22 1
AtomExpr +1
46 1
AtomExpr -1
52 1
AtomExpr -1
