#	Name:			mol_10
#	Creating user name:	jeff
#	Creation time:		Wed Dec 11 13:20:52 2002

#	Modifying user name:	jeff
#	Modification time:	Wed Dec 11 13:20:52 2002

@<TRIPOS>MOLECULE
mol_10
   27    27     1     0     3
SMALL
USER_CHARGES
INVALID_CHARGES
From 3DB ct
@<TRIPOS>ATOM
      1 S           0.570000   -3.570000   -1.262000 S.3       1 <1>        -0.207100 
      2 H          -0.456000   -3.613000   -1.502000 H         1 <1>         0.104700 
      3 C           0.736000   -3.252000    0.526000 C.3       1 <1>        -0.492500 
      4 H           1.252000   -4.108000    0.987000 H         1 <1>         0.211700 
      5 H          -0.271000   -3.164000    0.959000 H         1 <1>         0.152400 
      6 C           1.528000   -1.954000    0.818000 C.3       1 <1>         0.189100 
      7 H           1.021000   -1.106000    0.335000 H         1 <1>         0.180400 
      8 C           2.964000   -2.025000    0.353000 C.2       1 <1>         0.638200 
      9 N           3.775000   -0.932000    0.285000 N.am      1 <1>        -0.535700 
     10 C           5.144000   -1.071000   -0.190000 C.3       1 <1>        -0.014200 
     11 H           5.147000   -1.413000   -1.235000 H         1 <1>         0.068400 
     12 C           5.718000    0.364000   -0.131000 C.3       1 <1>        -0.112500 
     13 H           5.995000    0.717000   -1.136000 H         1 <1>         0.012500 
     14 H           6.596000    0.407000    0.530000 H         1 <1>         0.102700 
     15 C           4.604000    1.264000    0.438000 C.3       1 <1>        -0.292800 
     16 H           4.918000    1.699000    1.398000 H         1 <1>         0.154500 
     17 H           4.357000    2.065000   -0.270000 H         1 <1>         0.071100 
     18 C           3.444000    0.332000    0.615000 C.2       1 <1>         0.848600 
     19 O           2.363000    0.735000    1.014000 O.2       1 <1>        -0.723100 
     20 C           5.978000   -2.002000    0.651000 C.2       1 <1>         0.858300 
     21 O           7.142000   -2.218000    0.356000 O.2       1 <1>        -0.979300 
     22 O           5.502000   -2.612000    1.709000 O.3       1 <1>        -0.989300 
     23 O           3.430000   -3.122000    0.048000 O.2       1 <1>        -0.588000 
     24 C           1.520000   -1.758000    2.349000 C.3       1 <1>        -0.491100 
     25 H           2.113000   -0.878000    2.637000 H         1 <1>         0.176100 
     26 H           1.950000   -2.651000    2.828000 H         1 <1>         0.153400 
     27 H           0.485000   -1.619000    2.695000 H         1 <1>         0.081500 
@<TRIPOS>BOND
     1    2    1 1    
     2    1    3 1    
     3    3    4 1    
     4    3    5 1    
     5    3    6 1    
     6    6    7 1    
     7    6    8 1    
     8    8    9 am   
     9    9   10 1    
    10   10   11 1    
    11   10   12 1    
    12   12   13 1    
    13   12   14 1    
    14   12   15 1    
    15   15   16 1    
    16   15   17 1    
    17   15   18 1    
    18   18    9 am   
    19   18   19 2    
    20   10   20 1    
    21   20   21 2    
    22   20   22 1    
    23    8   23 2    
    24    6   24 1    
    25   24   25 1    
    26   24   26 1    
    27   24   27 1    
@<TRIPOS>SUBSTRUCTURE
     1 ****        2 TEMP              0 ****  ****    0 ROOT 
@<TRIPOS>SET
UNITY_3DHIT     STATIC     ATOMS    <user>   **** Atoms matching 3D or FLEX Search
0
MATCH_ATOMS     DYNAMIC    ATOMS    <user>   **** 
(1,2,3,4,5,6,7,8,9,10,11,12,13,14,15,16,17,18,19,20,21,22,23,24,25,26,27,28,29,30,31,32,33,34,35,36,37,38,39,40,41,42,43,44)
ATOM$INVISIBLE  STATIC     ATOMS    DISPGROUP SYSTEM 
0
@<TRIPOS>UNITY_ATOM_ATTR
22 1
AtomExpr -1
