#	Name:			mol_26
#	Creating user name:	jeff
#	Creation time:		Wed Dec 11 13:20:53 2002

#	Modifying user name:	jeff
#	Modification time:	Wed Dec 11 13:20:53 2002

@<TRIPOS>MOLECULE
mol_26
   56    58     1     0     3
SMALL
USER_CHARGES
****
From 3DB ct
@<TRIPOS>ATOM
      1 N           3.661000   -0.896000    0.411000 N.am      1 <1>        -0.516100 
      2 C           5.067000   -0.915000    0.026000 C.3       1 <1>         0.059800 
      3 H           5.132000   -1.140000   -1.047000 H         1 <1>         0.039400 
      4 C           5.488000    0.557000    0.228000 C.3       1 <1>        -0.153600 
      5 H           5.828000    0.966000   -0.737000 H         1 <1>         0.017100 
      6 H           6.300000    0.651000    0.963000 H         1 <1>         0.094700 
      7 C           4.247000    1.343000    0.712000 C.3       1 <1>        -0.086400 
      8 H           4.457000    1.765000    1.708000 H         1 <1>         0.109500 
      9 H           4.037000    2.162000    0.005000 H         1 <1>        -0.001200 
     10 C           3.054000    0.363000    0.786000 C.3       1 <1>         0.119200 
     11 H           2.658000    0.317000    1.812000 H         1 <1>         0.011200 
     12 H           2.263000    0.653000    0.080000 H         1 <1>         0.007700 
     13 C           5.937000   -1.919000    0.752000 C.2       1 <1>         0.779200 
     14 O           7.073000   -2.131000    0.358000 O.2       1 <1>        -0.965300 
     15 O           5.479000   -2.593000    1.776000 O.3       1 <1>        -0.956500 
     16 C           2.940000   -2.037000    0.343000 C.2       1 <1>         0.719800 
     17 O           3.488000   -3.094000    0.073000 O.2       1 <1>        -0.640000 
     18 C           1.430000   -2.142000    0.524000 C.3       1 <1>         0.019400 
     19 H           1.149000   -1.820000    1.538000 H         1 <1>         0.071200 
     20 H           0.934000   -1.489000   -0.212000 H         1 <1>        -0.059100 
     21 C           0.990000   -3.627000    0.280000 C.3       1 <1>        -0.385600 
     22 H           1.370000   -3.911000   -0.711000 H         1 <1>         0.146600 
     23 H           1.510000   -4.226000    1.040000 H         1 <1>         0.094600 
     24 C          -0.460000   -4.070000    0.332000 C.2       1 <1>         0.628900 
     25 O          -0.888000   -5.013000   -0.316000 O.2       1 <1>        -0.554600 
     26 C          -1.370000   -3.315000    1.287000 C.3       1 <1>         0.394900 
     27 H          -0.781000   -2.871000    2.103000 H         1 <1>         0.061900 
     28 N          -1.771000   -2.256000    0.352000 N.am      1 <1>        -0.854500 
     29 H          -1.323000   -2.204000   -0.542000 H         1 <1>         0.437400 
     30 C          -2.702000   -1.310000    0.592000 C.2       1 <1>         0.724500 
     31 O          -3.341000   -1.233000    1.627000 O.2       1 <1>        -0.619800 
     32 C          -2.961000   -0.325000   -0.530000 C.ar      1 <1>        -0.079800 
     33 C          -1.903000    0.130000   -1.323000 C.ar      1 <1>        -0.198800 
     34 H          -0.879000   -0.091000   -1.041000 H         1 <1>         0.204400 
     35 C          -2.154000    0.868000   -2.483000 C.ar      1 <1>        -0.129500 
     36 H          -1.334000    1.151000   -3.130000 H         1 <1>         0.146900 
     37 C          -3.460000    1.242000   -2.807000 C.ar      1 <1>        -0.120600 
     38 H          -3.654000    1.823000   -3.703000 H         1 <1>         0.140000 
     39 C          -4.513000    0.860000   -1.972000 C.ar      1 <1>        -0.160700 
     40 H          -5.518000    1.209000   -2.175000 H         1 <1>         0.143300 
     41 C          -4.271000    0.031000   -0.874000 C.ar      1 <1>        -0.124500 
     42 H          -5.112000   -0.329000   -0.295000 H         1 <1>         0.174600 
     43 C          -2.556000   -4.125000    1.933000 C.3       1 <1>        -0.622900 
     44 H          -3.266000   -3.386000    2.326000 H         1 <1>         0.193600 
     45 H          -3.048000   -4.646000    1.100000 H         1 <1>         0.157900 
     46 C          -2.432000   -5.174000    3.088000 C.ar      1 <1>         0.243200 
     47 C          -1.457000   -6.177000    3.083000 C.ar      1 <1>        -0.267100 
     48 H          -0.640000   -6.148000    2.373000 H         1 <1>         0.187400 
     49 C          -1.540000   -7.239000    3.988000 C.ar      1 <1>        -0.137800 
     50 H          -0.787000   -8.020000    3.981000 H         1 <1>         0.149900 
     51 C          -2.596000   -7.293000    4.901000 C.ar      1 <1>        -0.152300 
     52 H          -2.664000   -8.119000    5.600000 H         1 <1>         0.140400 
     53 C          -3.564000   -6.287000    4.914000 C.ar      1 <1>        -0.128100 
     54 H          -4.381000   -6.330000    5.624000 H         1 <1>         0.141200 
     55 C          -3.479000   -5.224000    4.012000 C.ar      1 <1>        -0.262100 
     56 H          -4.223000   -4.437000    4.028000 H         1 <1>         0.195000 
@<TRIPOS>BOND
     1    1    2 1    
     2    2    3 1    
     3    2    4 1    
     4    4    5 1    
     5    4    6 1    
     6    4    7 1    
     7    7    8 1    
     8    7    9 1    
     9    7   10 1    
    10   10   11 1    
    11   10   12 1    
    12   10    1 1    
    13    2   13 1    
    14   13   14 2    
    15   13   15 1    
    16    1   16 am   
    17   16   17 2    
    18   16   18 1    
    19   18   19 1    
    20   18   20 1    
    21   18   21 1    
    22   21   22 1    
    23   21   23 1    
    24   21   24 1    
    25   24   25 2    
    26   24   26 1    
    27   26   27 1    
    28   26   28 1    
    29   28   29 1    
    30   28   30 am   
    31   30   31 2    
    32   30   32 1    
    33   32   33 ar   
    34   33   34 1    
    35   33   35 ar   
    36   35   36 1    
    37   35   37 ar   
    38   37   38 1    
    39   37   39 ar   
    40   39   40 1    
    41   39   41 ar   
    42   41   42 1    
    43   41   32 ar   
    44   26   43 1    
    45   43   44 1    
    46   43   45 1    
    47   43   46 1    
    48   46   47 ar   
    49   47   48 1    
    50   47   49 ar   
    51   49   50 1    
    52   49   51 ar   
    53   51   52 1    
    54   51   53 ar   
    55   53   54 1    
    56   53   55 ar   
    57   55   56 1    
    58   55   46 ar   
@<TRIPOS>SUBSTRUCTURE
     1 ****        1 TEMP              0 ****  ****    0 ROOT 
@<TRIPOS>SET
UNITY_3DHIT     STATIC     ATOMS    <user>   **** Atoms matching 3D or FLEX Search
0
MATCH_ATOMS     DYNAMIC    ATOMS    <user>   **** 
(1,2,3,4,5,6,7,8,9,10,11,12,13,14,15,16,17,18,19,20,21,22,23,24,25,26,27,28,29,30,31,32,33,34,35,36,37,38,39,40,41,42,43,44)
ATOM$INVISIBLE  STATIC     ATOMS    DISPGROUP SYSTEM 
0
@<TRIPOS>UNITY_ATOM_ATTR
15 1
AtomExpr -1
