#	Name:			mol_55
#	Creating user name:	jeff
#	Creation time:		Wed Dec 11 13:20:54 2002

#	Modifying user name:	jeff
#	Modification time:	Wed Dec 11 13:20:54 2002

@<TRIPOS>MOLECULE
mol_55
   26    26     1     0     3
SMALL
USER_CHARGES
INVALID_CHARGES
From 3DB ct
@<TRIPOS>ATOM
      1 S           0.618000   -3.679000   -1.293000 S.3       1 <1>        -0.209700 
      2 H          -0.400000   -3.745000   -1.564000 H         1 <1>         0.137200 
      3 C           0.722000   -3.251000    0.473000 C.3       1 <1>        -0.442800 
      4 H           1.209000   -4.086000    1.001000 H         1 <1>         0.191500 
      5 H          -0.305000   -3.142000    0.855000 H         1 <1>         0.139300 
      6 C           1.515000   -1.957000    0.791000 C.3       1 <1>         0.358200 
      7 H           1.019000   -1.104000    0.310000 H         1 <1>         0.029200 
      8 C           2.961000   -2.025000    0.354000 C.2       1 <1>         0.504100 
      9 N           3.776000   -0.935000    0.284000 N.am      1 <1>        -0.363700 
     10 C           5.132000   -1.077000   -0.197000 C.3       1 <1>         0.001300 
     11 H           5.701000   -1.759000    0.448000 H         1 <1>         0.069900 
     12 H           5.135000   -1.442000   -1.234000 H         1 <1>         0.087200 
     13 C           5.689000    0.357000   -0.123000 C.3       1 <1>        -0.114000 
     14 H           6.572000    0.390000    0.533000 H         1 <1>         0.071000 
     15 H           5.970000    0.700000   -1.130000 H         1 <1>         0.075300 
     16 C           4.573000    1.259000    0.451000 C.3       1 <1>        -0.193800 
     17 H           4.337000    2.065000   -0.258000 H         1 <1>         0.077000 
     18 H           4.901000    1.698000    1.406000 H         1 <1>         0.097200 
     19 C           3.324000    0.383000    0.676000 C.3       1 <1>         0.114100 
     20 H           2.494000    0.731000    0.045000 H         1 <1>         0.068000 
     21 H           3.042000    0.408000    1.737000 H         1 <1>         0.016000 
     22 O           3.432000   -3.119000    0.048000 O.2       1 <1>        -0.604500 
     23 C           1.438000   -1.774000    2.322000 C.3       1 <1>        -0.435700 
     24 H           1.870000   -0.811000    2.627000 H         1 <1>         0.103100 
     25 H           1.986000   -2.594000    2.814000 H         1 <1>         0.124800 
     26 H           0.384000   -1.800000    2.637000 H         1 <1>         0.099500 
@<TRIPOS>BOND
     1    2    1 1    
     2    1    3 1    
     3    3    4 1    
     4    3    5 1    
     5    3    6 1    
     6    6    7 1    
     7    6    8 1    
     8    8    9 am   
     9    9   10 1    
    10   10   11 1    
    11   10   12 1    
    12   10   13 1    
    13   13   14 1    
    14   13   15 1    
    15   13   16 1    
    16   16   17 1    
    17   16   18 1    
    18   16   19 1    
    19   19   20 1    
    20   19   21 1    
    21   19    9 1    
    22    8   22 2    
    23    6   23 1    
    24   23   24 1    
    25   23   25 1    
    26   23   26 1    
@<TRIPOS>SUBSTRUCTURE
     1 ****        2 TEMP              0 ****  ****    0 ROOT 
@<TRIPOS>SET
UNITY_3DHIT     STATIC     ATOMS    <user>   **** Atoms matching 3D or FLEX Search
0
MATCH_ATOMS     DYNAMIC    ATOMS    <user>   **** 
(1,2,3,4,5,6,7,8,9,10,11,12,13,14,15,16,17,18,19,20,21,22,23,24,25,26,27,28,29,30,31,32,33,34,35)
ATOM$INVISIBLE  STATIC     ATOMS    DISPGROUP SYSTEM 
0
