#	Name:			mol_46
#	Creating user name:	jeff
#	Creation time:		Wed Dec 11 13:20:53 2002

#	Modifying user name:	jeff
#	Modification time:	Wed Dec 11 13:20:53 2002

@<TRIPOS>MOLECULE
mol_46
   32    32     1     0     3
SMALL
USER_CHARGES
****
From 3DB ct
@<TRIPOS>ATOM
      1 N           3.776000   -0.935000    0.284000 N.am      1 <1>        -1.135600 
      2 H           3.447000   -0.028000    0.548000 H         1 <1>         0.480600 
      3 C           2.961000   -2.025000    0.354000 C.2       1 <1>         0.946200 
      4 O           3.432000   -3.119000    0.048000 O.2       1 <1>        -0.697500 
      5 C           1.540000   -1.886000    0.826000 C.3       1 <1>        -0.212300 
      6 H           1.527000   -1.721000    1.914000 H         1 <1>         0.013800 
      7 H           1.059000   -1.032000    0.330000 H         1 <1>         0.117500 
      8 C           0.758000   -3.174000    0.490000 C.3       1 <1>        -0.178200 
      9 H           1.183000   -4.008000    1.067000 H         1 <1>         0.013600 
     10 H          -0.298000   -3.049000    0.761000 H         1 <1>        -0.003400 
     11 C           0.866000   -3.454000   -0.984000 C.2       1 <1>         0.833800 
     12 O           0.548000   -2.605000   -1.801000 O.2       1 <1>        -1.000100 
     13 O           1.303000   -4.620000   -1.395000 O.3       1 <1>        -1.028300 
     14 C           5.147000   -1.065000   -0.198000 C.3       1 <1>         0.461400 
     15 H           5.126000   -1.447000   -1.231000 H         1 <1>        -0.023500 
     16 C           5.772000    0.352000   -0.190000 C.3       1 <1>        -0.223500 
     17 H           5.191000    1.007000   -0.855000 H         1 <1>         0.053600 
     18 H           5.730000    0.757000    0.832000 H         1 <1>         0.072100 
     19 C           7.215000    0.331000   -0.691000 C.ar      1 <1>         0.093200 
     20 C           8.266000    0.552000    0.197000 C.ar      1 <1>        -0.193400 
     21 H           8.061000    0.738000    1.245000 H         1 <1>         0.212500 
     22 C           9.582000    0.535000   -0.262000 C.ar      1 <1>        -0.180000 
     23 H          10.399000    0.715000    0.427000 H         1 <1>         0.120400 
     24 C           9.847000    0.285000   -1.608000 C.ar      1 <1>        -0.191200 
     25 H          10.871000    0.264000   -1.964000 H         1 <1>         0.107300 
     26 C           8.796000    0.063000   -2.496000 C.ar      1 <1>        -0.200100 
     27 H           9.002000   -0.127000   -3.543000 H         1 <1>         0.123700 
     28 C           7.480000    0.086000   -2.037000 C.ar      1 <1>        -0.151000 
     29 H           6.662000   -0.086000   -2.728000 H         1 <1>         0.173500 
     30 C           5.981000   -2.006000    0.639000 C.2       1 <1>         0.682400 
     31 O           7.145000   -2.222000    0.339000 O.2       1 <1>        -0.968600 
     32 O           5.502000   -2.657000    1.700000 O.3       1 <1>        -0.962900 
@<TRIPOS>BOND
     1    2    1 1    
     2    1    3 am   
     3    3    4 2    
     4    3    5 1    
     5    5    6 1    
     6    5    7 1    
     7    5    8 1    
     8    8    9 1    
     9    8   10 1    
    10    8   11 1    
    11   11   12 2    
    12   11   13 1    
    13    1   14 1    
    14   14   15 1    
    15   14   16 1    
    16   16   17 1    
    17   16   18 1    
    18   16   19 1    
    19   19   20 ar   
    20   20   21 1    
    21   20   22 ar   
    22   22   23 1    
    23   22   24 ar   
    24   24   25 1    
    25   24   26 ar   
    26   26   27 1    
    27   26   28 ar   
    28   28   29 1    
    29   28   19 ar   
    30   14   30 1    
    31   30   31 2    
    32   30   32 1    
@<TRIPOS>SUBSTRUCTURE
     1 ****        2 TEMP              0 ****  ****    0 ROOT 
@<TRIPOS>SET
UNITY_3DHIT     STATIC     ATOMS    <user>   **** Atoms matching 3D or FLEX Search
0
MATCH_ATOMS     DYNAMIC    ATOMS    <user>   **** 
(1,2,3,4,5,6,7,8,9,10,11,12,13,14,15,16,17,18,19,20,21,22,23,24,25,26,27,28,29,30,31,32,33,34,35)
ATOM$INVISIBLE  STATIC     ATOMS    DISPGROUP SYSTEM 
0
@<TRIPOS>UNITY_ATOM_ATTR
13 1
AtomExpr -1
32 1
AtomExpr -1
