#	Name:			mol_45
#	Creating user name:	jeff
#	Creation time:		Wed Dec 11 13:20:53 2002

#	Modifying user name:	jeff
#	Modification time:	Wed Dec 11 13:20:53 2002

@<TRIPOS>MOLECULE
mol_45
   31    30     1     0     3
SMALL
USER_CHARGES
****
From 3DB ct
@<TRIPOS>ATOM
      1 N           3.776000   -0.935000    0.284000 N.am      1 <1>        -0.883200 
      2 H           3.431000   -0.042000    0.572000 H         1 <1>         0.430900 
      3 C           2.961000   -2.025000    0.354000 C.2       1 <1>         0.878700 
      4 O           3.432000   -3.119000    0.048000 O.2       1 <1>        -0.698100 
      5 C           1.540000   -1.886000    0.826000 C.3       1 <1>        -0.204500 
      6 H           1.527000   -1.721000    1.914000 H         1 <1>        -0.001000 
      7 H           1.059000   -1.032000    0.329000 H         1 <1>         0.096700 
      8 C           0.758000   -3.174000    0.489000 C.3       1 <1>        -0.106800 
      9 H           1.186000   -4.006000    1.072000 H         1 <1>         0.000900 
     10 H          -0.298000   -3.049000    0.760000 H         1 <1>        -0.026800 
     11 C           0.867000   -3.454000   -0.985000 C.2       1 <1>         0.823500 
     12 O           0.548000   -2.605000   -1.802000 O.2       1 <1>        -0.991900 
     13 O           1.303000   -4.620000   -1.395000 O.3       1 <1>        -1.038400 
     14 C           5.146000   -1.065000   -0.203000 C.3       1 <1>         0.028800 
     15 H           5.116000   -1.465000   -1.230000 H         1 <1>         0.061000 
     16 C           5.760000    0.359000   -0.298000 C.3       1 <1>         0.106200 
     17 H           5.736000    0.809000    0.707000 H         1 <1>         0.022600 
     18 C           7.221000    0.344000   -0.807000 C.3       1 <1>         0.049300 
     19 H           7.878000   -0.124000   -0.058000 H         1 <1>         0.026700 
     20 H           7.275000   -0.235000   -1.742000 H         1 <1>        -0.002900 
     21 C           7.770000    1.764000   -1.038000 C.3       1 <1>        -0.159500 
     22 H           8.845000    1.702000   -1.255000 H         1 <1>        -0.006100 
     23 H           7.626000    2.364000   -0.129000 H         1 <1>         0.021800 
     24 H           7.252000    2.247000   -1.882000 H         1 <1>         0.017900 
     25 C           4.900000    1.194000   -1.276000 C.3       1 <1>        -0.228400 
     26 H           5.244000    2.239000   -1.293000 H         1 <1>        -0.006800 
     27 H           3.849000    1.186000   -0.961000 H         1 <1>         0.078400 
     28 H           4.981000    0.766000   -2.284000 H         1 <1>         0.066300 
     29 C           5.981000   -2.006000    0.640000 C.2       1 <1>         0.789500 
     30 O           7.145000   -2.221000    0.340000 O.2       1 <1>        -1.003100 
     31 O           5.502000   -2.657000    1.701000 O.3       1 <1>        -0.985600 
@<TRIPOS>BOND
     1    2    1 1    
     2    1    3 am   
     3    3    4 2    
     4    3    5 1    
     5    5    6 1    
     6    5    7 1    
     7    5    8 1    
     8    8    9 1    
     9    8   10 1    
    10    8   11 1    
    11   11   12 2    
    12   11   13 1    
    13    1   14 1    
    14   14   15 1    
    15   14   16 1    
    16   16   17 1    
    17   16   18 1    
    18   18   19 1    
    19   18   20 1    
    20   18   21 1    
    21   21   22 1    
    22   21   23 1    
    23   21   24 1    
    24   16   25 1    
    25   25   26 1    
    26   25   27 1    
    27   25   28 1    
    28   14   29 1    
    29   29   30 2    
    30   29   31 1    
@<TRIPOS>SUBSTRUCTURE
     1 ****        2 TEMP              0 ****  ****    0 ROOT 
@<TRIPOS>SET
UNITY_3DHIT     STATIC     ATOMS    <user>   **** Atoms matching 3D or FLEX Search
0
MATCH_ATOMS     DYNAMIC    ATOMS    <user>   **** 
(1,2,3,4,5,6,7,8,9,10,11,12,13,14,15,16,17,18,19,20,21,22,23,24,25,26,27,28,29,30,31,32,33,34,35)
ATOM$INVISIBLE  STATIC     ATOMS    DISPGROUP SYSTEM 
0
@<TRIPOS>UNITY_ATOM_ATTR
13 1
AtomExpr -1
31 1
AtomExpr -1
