#	Name:			mol_61
#	Creating user name:	jeff
#	Creation time:		Wed Dec 11 13:20:54 2002

#	Modifying user name:	jeff
#	Modification time:	Wed Dec 11 13:20:54 2002

@<TRIPOS>MOLECULE
mol_61
   38    38     1     0     3
SMALL
USER_CHARGES
INVALID_CHARGES
From 3DB ct
@<TRIPOS>ATOM
      1 S           0.620000   -3.678000   -1.292000 S.3       1 <1>        -0.170500 
      2 H          -0.397000   -3.744000   -1.564000 H         1 <1>         0.116300 
      3 C           0.722000   -3.249000    0.474000 C.3       1 <1>        -0.313600 
      4 H           1.208000   -4.084000    1.002000 H         1 <1>         0.167300 
      5 H          -0.305000   -3.139000    0.855000 H         1 <1>         0.104300 
      6 C           1.520000   -1.954000    0.785000 C.3       1 <1>        -0.029800 
      7 H           1.509000   -1.795000    1.872000 H         1 <1>         0.053400 
      8 H           1.022000   -1.108000    0.295000 H         1 <1>         0.099700 
      9 C           2.961000   -2.025000    0.353000 C.2       1 <1>         0.675900 
     10 N           3.752000   -0.925000    0.211000 N.am      1 <1>        -0.340600 
     11 C           5.137000   -1.078000   -0.229000 C.3       1 <1>        -0.074100 
     12 H           5.175000   -1.420000   -1.273000 H         1 <1>         0.136000 
     13 C           5.679000    0.362000   -0.127000 C.3       1 <1>        -0.274500 
     14 H           6.553000    0.413000    0.542000 H         1 <1>         0.116600 
     15 H           5.972000    0.700000   -1.130000 H         1 <1>         0.128200 
     16 C           4.549000    1.258000    0.426000 C.3       1 <1>         0.011300 
     17 H           4.346000    2.081000   -0.274000 H         1 <1>         0.048300 
     18 H           4.855000    1.668000    1.403000 H         1 <1>         0.058100 
     19 C           3.282000    0.393000    0.580000 C.3       1 <1>        -0.039000 
     20 H           2.479000    0.737000   -0.087000 H         1 <1>         0.087700 
     21 H           2.947000    0.417000    1.626000 H         1 <1>         0.045900 
     22 C           5.976000   -1.986000    0.641000 C.2       1 <1>         0.937800 
     23 O           7.142000   -2.212000    0.363000 O.2       1 <1>        -0.662300 
     24 O           5.418000   -2.494000    1.724000 O.3       1 <1>        -0.709000 
     25 C           6.216000   -3.382000    2.596000 C.3       1 <1>         0.851900 
     26 C           5.286000   -3.776000    3.757000 C.3       1 <1>        -0.482900 
     27 H           4.989000   -2.866000    4.296000 H         1 <1>         0.113200 
     28 H           5.812000   -4.455000    4.448000 H         1 <1>         0.117500 
     29 H           4.390000   -4.277000    3.362000 H         1 <1>         0.120000 
     30 C           7.447000   -2.660000    3.191000 C.3       1 <1>        -0.427700 
     31 H           8.190000   -2.441000    2.410000 H         1 <1>         0.121200 
     32 H           7.910000   -3.299000    3.954000 H         1 <1>         0.091400 
     33 H           7.122000   -1.714000    3.652000 H         1 <1>         0.096700 
     34 C           6.655000   -4.666000    1.862000 C.3       1 <1>        -0.534100 
     35 H           5.768000   -5.183000    1.468000 H         1 <1>         0.137100 
     36 H           7.168000   -5.323000    2.576000 H         1 <1>         0.124900 
     37 H           7.339000   -4.434000    1.032000 H         1 <1>         0.133300 
     38 O           3.431000   -3.120000    0.047000 O.2       1 <1>        -0.636100 
@<TRIPOS>BOND
     1    2    1 1    
     2    1    3 1    
     3    3    4 1    
     4    3    5 1    
     5    3    6 1    
     6    6    7 1    
     7    6    8 1    
     8    6    9 1    
     9    9   10 am   
    10   10   11 1    
    11   11   12 1    
    12   11   13 1    
    13   13   14 1    
    14   13   15 1    
    15   13   16 1    
    16   16   17 1    
    17   16   18 1    
    18   16   19 1    
    19   19   20 1    
    20   19   21 1    
    21   19   10 1    
    22   11   22 1    
    23   22   23 2    
    24   22   24 1    
    25   24   25 1    
    26   25   26 1    
    27   26   27 1    
    28   26   28 1    
    29   26   29 1    
    30   25   30 1    
    31   30   31 1    
    32   30   32 1    
    33   30   33 1    
    34   25   34 1    
    35   34   35 1    
    36   34   36 1    
    37   34   37 1    
    38    9   38 2    
@<TRIPOS>SUBSTRUCTURE
     1 ****        2 TEMP              0 ****  ****    0 ROOT 
@<TRIPOS>SET
UNITY_3DHIT     STATIC     ATOMS    <user>   **** Atoms matching 3D or FLEX Search
0
MATCH_ATOMS     DYNAMIC    ATOMS    <user>   **** 
(1,2,3,4,5,6,7,8,9,10,11,12,13,14,15,16,17,18,19,20,21,22,23,24,25,26,27,28,29,30,31,32)
ATOM$INVISIBLE  STATIC     ATOMS    DISPGROUP SYSTEM 
0
