#	Name:			mol_27
#	Creating user name:	jeff
#	Creation time:		Wed Dec 11 13:20:53 2002

#	Modifying user name:	jeff
#	Modification time:	Wed Dec 11 13:20:53 2002

@<TRIPOS>MOLECULE
mol_27
   59    61     1     0     3
SMALL
USER_CHARGES
****
From 3DB ct
@<TRIPOS>ATOM
      1 N           3.768000   -0.932000    0.288000 N.am      1 <1>        -0.465600 
      2 C           5.126000   -1.047000   -0.203000 C.3       1 <1>         0.259700 
      3 H           5.110000   -1.392000   -1.249000 H         1 <1>        -0.001500 
      4 C           5.604000    0.422000   -0.164000 C.3       1 <1>        -0.215000 
      5 H           5.802000    0.782000   -1.186000 H         1 <1>         0.043600 
      6 H           6.517000    0.502000    0.442000 H         1 <1>         0.114300 
      7 C           4.491000    1.284000    0.471000 C.3       1 <1>        -0.115400 
      8 H           4.853000    1.711000    1.417000 H         1 <1>         0.033000 
      9 H           4.202000    2.095000   -0.214000 H         1 <1>         0.048100 
     10 C           3.287000    0.361000    0.735000 C.3       1 <1>        -0.006100 
     11 H           3.036000    0.336000    1.806000 H         1 <1>         0.099100 
     12 H           2.431000    0.717000    0.150000 H         1 <1>         0.028400 
     13 C           5.977000   -1.969000    0.641000 C.2       1 <1>         0.703100 
     14 O           7.138000   -2.155000    0.317000 O.2       1 <1>        -0.963600 
     15 O           5.478000   -2.569000    1.691000 O.3       1 <1>        -0.944100 
     16 C           2.977000   -2.025000    0.348000 C.2       1 <1>         0.552300 
     17 O           3.422000   -3.123000    0.049000 O.2       1 <1>        -0.627700 
     18 C           1.478000   -1.967000    0.549000 C.3       1 <1>         0.220300 
     19 H           1.123000   -1.565000   -0.411000 H         1 <1>         0.019300 
     20 C           0.825000   -3.375000    0.660000 C.3       1 <1>        -0.253900 
     21 H           1.123000   -3.808000    1.625000 H         1 <1>         0.050700 
     22 H           1.304000   -3.981000   -0.120000 H         1 <1>         0.121700 
     23 C          -0.665000   -3.582000    0.400000 C.2       1 <1>         0.441200 
     24 O          -1.066000   -4.541000   -0.239000 O.2       1 <1>        -0.541500 
     25 C          -1.722000   -2.679000    1.027000 C.3       1 <1>         0.530200 
     26 H          -2.585000   -2.812000    0.359000 H         1 <1>        -0.014300 
     27 N          -2.202000   -3.282000    2.283000 N.am      1 <1>        -0.977200 
     28 H          -3.182000   -3.466000    2.355000 H         1 <1>         0.421700 
     29 C          -1.354000   -3.757000    3.230000 C.2       1 <1>         0.837600 
     30 O          -0.180000   -3.432000    3.292000 O.2       1 <1>        -0.624700 
     31 C          -1.813000   -4.800000    4.231000 C.ar      1 <1>        -0.184200 
     32 C          -2.896000   -4.632000    5.098000 C.ar      1 <1>        -0.102500 
     33 H          -3.390000   -3.670000    5.169000 H         1 <1>         0.173800 
     34 C          -3.339000   -5.704000    5.871000 C.ar      1 <1>        -0.169200 
     35 H          -4.233000   -5.604000    6.476000 H         1 <1>         0.141600 
     36 C          -2.629000   -6.907000    5.866000 C.ar      1 <1>        -0.079300 
     37 H          -2.971000   -7.741000    6.468000 H         1 <1>         0.133700 
     38 C          -1.478000   -7.034000    5.084000 C.ar      1 <1>        -0.224700 
     39 H          -0.888000   -7.942000    5.133000 H         1 <1>         0.162400 
     40 C          -1.086000   -5.992000    4.240000 C.ar      1 <1>        -0.031100 
     41 H          -0.223000   -6.108000    3.595000 H         1 <1>         0.137300 
     42 C          -1.578000   -1.130000    0.992000 C.3       1 <1>        -0.514400 
     43 H          -0.544000   -0.787000    0.945000 H         1 <1>         0.176900 
     44 H          -1.974000   -0.786000    1.959000 H         1 <1>         0.174000 
     45 C          -2.411000   -0.365000   -0.065000 C.ar      1 <1>         0.167200 
     46 C          -1.841000    0.328000   -1.137000 C.ar      1 <1>        -0.257000 
     47 H          -0.797000    0.176000   -1.386000 H         1 <1>         0.230200 
     48 C          -2.615000    1.216000   -1.889000 C.ar      1 <1>        -0.106300 
     49 H          -2.171000    1.756000   -2.717000 H         1 <1>         0.140100 
     50 C          -3.962000    1.406000   -1.570000 C.ar      1 <1>        -0.161100 
     51 H          -4.562000    2.099000   -2.149000 H         1 <1>         0.138100 
     52 C          -4.536000    0.706000   -0.507000 C.ar      1 <1>        -0.162800 
     53 H          -5.582000    0.853000   -0.263000 H         1 <1>         0.138000 
     54 C          -3.763000   -0.185000    0.241000 C.ar      1 <1>        -0.203800 
     55 H          -4.211000   -0.736000    1.060000 H         1 <1>         0.149300 
     56 C           1.123000   -1.061000    1.748000 C.3       1 <1>        -0.347900 
     57 H           0.107000   -0.663000    1.646000 H         1 <1>         0.064700 
     58 H           1.830000   -0.226000    1.806000 H         1 <1>         0.095900 
     59 H           1.196000   -1.639000    2.683000 H         1 <1>         0.125600 
@<TRIPOS>BOND
     1    1    2 1    
     2    2    3 1    
     3    2    4 1    
     4    4    5 1    
     5    4    6 1    
     6    4    7 1    
     7    7    8 1    
     8    7    9 1    
     9    7   10 1    
    10   10   11 1    
    11   10   12 1    
    12   10    1 1    
    13    2   13 1    
    14   13   14 2    
    15   13   15 1    
    16    1   16 am   
    17   16   17 2    
    18   16   18 1    
    19   18   19 1    
    20   18   20 1    
    21   20   21 1    
    22   20   22 1    
    23   20   23 1    
    24   23   24 2    
    25   23   25 1    
    26   25   26 1    
    27   25   27 1    
    28   27   28 1    
    29   27   29 am   
    30   29   30 2    
    31   29   31 1    
    32   31   32 ar   
    33   32   33 1    
    34   32   34 ar   
    35   34   35 1    
    36   34   36 ar   
    37   36   37 1    
    38   36   38 ar   
    39   38   39 1    
    40   38   40 ar   
    41   40   41 1    
    42   40   31 ar   
    43   25   42 1    
    44   42   43 1    
    45   42   44 1    
    46   42   45 1    
    47   45   46 ar   
    48   46   47 1    
    49   46   48 ar   
    50   48   49 1    
    51   48   50 ar   
    52   50   51 1    
    53   50   52 ar   
    54   52   53 1    
    55   52   54 ar   
    56   54   55 1    
    57   54   45 ar   
    58   18   56 1    
    59   56   57 1    
    60   56   58 1    
    61   56   59 1    
@<TRIPOS>SUBSTRUCTURE
     1 ****        1 TEMP              0 ****  ****    0 ROOT 
@<TRIPOS>SET
UNITY_3DHIT     STATIC     ATOMS    <user>   **** Atoms matching 3D or FLEX Search
0
MATCH_ATOMS     DYNAMIC    ATOMS    <user>   **** 
(1,2,3,4,5,6,7,8,9,10,11,12,13,14,15,16,17,18,19,20,21,22,23,24,25,26,27,28,29,30,31,32,33,34,35,36,37,38,39,40,41,42,43,44)
ATOM$INVISIBLE  STATIC     ATOMS    DISPGROUP SYSTEM 
0
@<TRIPOS>UNITY_ATOM_ATTR
15 1
AtomExpr -1
