#	Name:			mol_08
#	Creating user name:	jeff
#	Creation time:		Wed Dec 11 13:20:52 2002

#	Modifying user name:	jeff
#	Modification time:	Wed Dec 11 13:20:52 2002

@<TRIPOS>MOLECULE
mol_08
   28    29     1     0     3
SMALL
USER_CHARGES
****
From 3DB ct
@<TRIPOS>ATOM
      1 N           3.780000   -1.036000    0.723000 N.am      1 <1>        -0.537200 
      2 N           2.935000    0.106000    0.873000 N.am      1 <1>        -0.416800 
      3 C           3.404000    1.436000    1.162000 C.3       1 <1>         0.246000 
      4 H           3.040000    2.128000    0.390000 H         1 <1>         0.021700 
      5 H           3.032000    1.747000    2.146000 H         1 <1>         0.046700 
      6 C           4.917000    1.416000    1.164000 C.2       1 <1>        -0.285400 
      7 H           5.418000    2.353000    1.397000 H         1 <1>         0.110200 
      8 C           5.703000    0.361000    0.901000 C.2       1 <1>        -0.197400 
      9 H           6.778000    0.514000    0.944000 H         1 <1>         0.146600 
     10 C           5.229000   -1.018000    0.527000 C.3       1 <1>         0.428300 
     11 H           5.381000   -1.108000   -0.558000 H         1 <1>        -0.015500 
     12 C           6.108000   -2.092000    1.143000 C.2       1 <1>         0.690700 
     13 O           7.159000   -2.410000    0.611000 O.2       1 <1>        -0.970400 
     14 O           5.690000   -2.732000    2.236000 O.3       1 <1>        -0.902900 
     15 C           1.675000   -0.248000    0.553000 C.2       1 <1>         0.889200 
     16 N           1.709000   -1.561000    0.243000 N.am      1 <1>        -0.654800 
     17 C           2.963000   -2.028000    0.353000 C.2       1 <1>         0.894100 
     18 O           3.431000   -3.118000    0.048000 O.2       1 <1>        -0.641600 
     19 C           0.618000   -2.302000   -0.356000 C.3       1 <1>         0.233000 
     20 H           0.680000   -3.362000   -0.075000 H         1 <1>         0.060300 
     21 H          -0.339000   -1.885000   -0.013000 H         1 <1>         0.043900 
     22 C           0.736000   -2.148000   -1.892000 C.3       1 <1>        -0.146100 
     23 H          -0.274000   -2.179000   -2.325000 H         1 <1>         0.003800 
     24 H           1.197000   -1.176000   -2.117000 H         1 <1>         0.004200 
     25 C           1.565000   -3.247000   -2.500000 C.2       1 <1>         0.831100 
     26 O           2.600000   -2.994000   -3.092000 O.2       1 <1>        -1.031000 
     27 O           1.146000   -4.485000   -2.372000 O.3       1 <1>        -1.006800 
     28 O           0.698000    0.483000    0.514000 O.2       1 <1>        -0.687900 
@<TRIPOS>BOND
     1    1    2 1    
     2    2    3 1    
     3    3    4 1    
     4    3    5 1    
     5    3    6 1    
     6    6    7 1    
     7    6    8 2    
     8    8    9 1    
     9    8   10 1    
    10   10   11 1    
    11   10    1 1    
    12   10   12 1    
    13   12   13 2    
    14   12   14 1    
    15    2   15 am   
    16   15   16 am   
    17   16   17 am   
    18   17    1 am   
    19   17   18 2    
    20   16   19 1    
    21   19   20 1    
    22   19   21 1    
    23   19   22 1    
    24   22   23 1    
    25   22   24 1    
    26   22   25 1    
    27   25   26 2    
    28   25   27 1    
    29   15   28 2    
@<TRIPOS>SUBSTRUCTURE
     1 ****        1 TEMP              0 ****  ****    0 ROOT 
@<TRIPOS>SET
UNITY_3DHIT     STATIC     ATOMS    <user>   **** Atoms matching 3D or FLEX Search
0
MATCH_ATOMS     DYNAMIC    ATOMS    <user>   **** 
(1,2,3,4,5,6,7,8,9,10,11,12,13,14,15,16,17,18,19,20,21,22,23,24,25,26,27,28,29,30,31,32,33,34,35,36,37,38,39,40,41,42,43,44)
ATOM$INVISIBLE  STATIC     ATOMS    DISPGROUP SYSTEM 
0
@<TRIPOS>UNITY_ATOM_ATTR
14 1
AtomExpr -1
27 1
AtomExpr -1
@<TRIPOS>UNITY_BOND_ATTR
7 1
S N
