#	Name:			mol_47
#	Creating user name:	jeff
#	Creation time:		Wed Dec 11 13:20:53 2002

#	Modifying user name:	jeff
#	Modification time:	Wed Dec 11 13:20:53 2002

@<TRIPOS>MOLECULE
mol_47
   23    23     1     0     3
SMALL
USER_CHARGES
****
From 3DB ct
@<TRIPOS>ATOM
      1 N           3.776000   -0.935000    0.284000 N.am      1 <1>        -0.514400 
      2 C           5.138000   -1.079000   -0.191000 C.3       1 <1>         0.202100 
      3 H           5.133000   -1.441000   -1.228000 H         1 <1>         0.014600 
      4 C           5.689000    0.358000   -0.123000 C.3       1 <1>        -0.284700 
      5 H           6.572000    0.390000    0.533000 H         1 <1>         0.108700 
      6 H           5.970000    0.700000   -1.130000 H         1 <1>         0.040300 
      7 C           4.573000    1.258000    0.451000 C.3       1 <1>         0.090000 
      8 H           4.337000    2.065000   -0.258000 H         1 <1>        -0.031500 
      9 H           4.901000    1.698000    1.406000 H         1 <1>         0.070900 
     10 C           3.324000    0.382000    0.679000 C.3       1 <1>        -0.045100 
     11 H           2.497000    0.732000    0.048000 H         1 <1>         0.034000 
     12 H           3.037000    0.403000    1.740000 H         1 <1>         0.043800 
     13 C           5.975000   -2.002000    0.651000 C.2       1 <1>         0.742500 
     14 O           7.140000   -2.208000    0.356000 O.2       1 <1>        -0.962300 
     15 O           5.493000   -2.666000    1.704000 O.3       1 <1>        -0.947000 
     16 C           2.961000   -2.025000    0.354000 C.2       1 <1>         0.647700 
     17 O           3.432000   -3.119000    0.048000 O.2       1 <1>        -0.676700 
     18 C           1.520000   -1.955000    0.783000 C.3       1 <1>         0.211300 
     19 H           1.504000   -1.808000    1.874000 H         1 <1>         0.067800 
     20 H           1.031000   -1.098000    0.296000 H         1 <1>         0.016800 
     21 N           0.764000   -3.183000    0.489000 N.3       1 <1>        -0.911700 
     22 H          -0.269000   -2.925000    0.307000 H         1 <1>         0.331100 
     23 H           0.833000   -3.850000    1.336000 H         1 <1>         0.329700 
@<TRIPOS>BOND
     1    1    2 1    
     2    2    3 1    
     3    2    4 1    
     4    4    5 1    
     5    4    6 1    
     6    4    7 1    
     7    7    8 1    
     8    7    9 1    
     9    7   10 1    
    10   10   11 1    
    11   10   12 1    
    12   10    1 1    
    13    2   13 1    
    14   13   14 2    
    15   13   15 1    
    16    1   16 am   
    17   16   17 2    
    18   16   18 1    
    19   18   19 1    
    20   18   20 1    
    21   18   21 1    
    22   21   22 1    
    23   21   23 1    
@<TRIPOS>SUBSTRUCTURE
     1 ****        1 TEMP              0 ****  ****    0 ROOT 
@<TRIPOS>SET
UNITY_3DHIT     STATIC     ATOMS    <user>   **** Atoms matching 3D or FLEX Search
0
MATCH_ATOMS     DYNAMIC    ATOMS    <user>   **** 
(1,2,3,4,5,6,7,8,9,10,11,12,13,14,15,16,17,18,19,20,21,22,23,24,25,26,27,28,29,30,31,32,33,34,35)
ATOM$INVISIBLE  STATIC     ATOMS    DISPGROUP SYSTEM 
0
@<TRIPOS>UNITY_ATOM_ATTR
15 1
AtomExpr -1
