#	Name:			mol_02
#	Creating user name:	jeff
#	Creation time:		Wed Dec 11 13:20:52 2002

#	Modifying user name:	jeff
#	Modification time:	Wed Dec 11 13:20:52 2002

@<TRIPOS>MOLECULE
mol_02
   30    31     1     0     3
SMALL
USER_CHARGES
INVALID_CHARGES
From 3DB ct
@<TRIPOS>ATOM
      1 S           0.494000   -3.587000   -1.390000 S.3       1 <1>        -0.220700 
      2 H          -0.509000   -3.692000   -1.700000 H         1 <1>         0.105200 
      3 C           0.511000   -3.004000    0.333000 C.3       1 <1>        -0.402900 
      4 H          -0.507000   -2.694000    0.613000 H         1 <1>         0.124700 
      5 H           0.843000   -3.826000    0.984000 H         1 <1>         0.207200 
      6 C           1.489000   -1.794000    0.465000 C.3       1 <1>         0.338700 
      7 H           1.214000   -1.113000   -0.352000 H         1 <1>         0.105600 
      8 C           1.266000   -1.014000    1.776000 C.3       1 <1>        -0.725400 
      9 H           1.662000   -1.587000    2.626000 H         1 <1>         0.311000 
     10 H           0.193000   -0.829000    1.927000 H         1 <1>         0.157700 
     11 C           1.983000    0.304000    1.672000 C.2       1 <1>         0.928800 
     12 N           3.204000    0.308000    1.090000 N.am      1 <1>        -0.449600 
     13 N           3.763000   -0.917000    0.533000 N.am      1 <1>        -0.463400 
     14 C           5.107000   -0.973000   -0.038000 C.3       1 <1>         0.407000 
     15 H           5.006000   -1.364000   -1.060000 H         1 <1>        -0.016700 
     16 C           5.774000    0.403000   -0.222000 C.3       1 <1>        -0.302700 
     17 H           6.865000    0.276000   -0.299000 H         1 <1>         0.095900 
     18 H           5.390000    0.840000   -1.154000 H         1 <1>         0.038700 
     19 C           5.442000    1.364000    0.930000 C.3       1 <1>         0.111300 
     20 H           5.819000    0.956000    1.879000 H         1 <1>         0.059600 
     21 H           5.919000    2.336000    0.727000 H         1 <1>        -0.025100 
     22 C           3.920000    1.575000    1.014000 C.3       1 <1>        -0.003000 
     23 H           3.717000    2.180000    1.910000 H         1 <1>         0.078800 
     24 H           3.584000    2.136000    0.130000 H         1 <1>         0.048300 
     25 C           6.019000   -1.955000    0.632000 C.2       1 <1>         0.756100 
     26 O           7.124000   -2.182000    0.167000 O.2       1 <1>        -0.966100 
     27 O           5.639000   -2.611000    1.701000 O.3       1 <1>        -0.971300 
     28 C           2.989000   -2.012000    0.348000 C.2       1 <1>         0.516500 
     29 O           3.442000   -3.118000    0.060000 O.2       1 <1>        -0.576400 
     30 O           1.449000    1.306000    2.118000 O.2       1 <1>        -0.689900 
@<TRIPOS>BOND
     1    2    1 1    
     2    1    3 1    
     3    3    4 1    
     4    3    5 1    
     5    3    6 1    
     6    6    7 1    
     7    6    8 1    
     8    8    9 1    
     9    8   10 1    
    10    8   11 1    
    11   11   12 am   
    12   12   13 1    
    13   13   14 1    
    14   14   15 1    
    15   14   16 1    
    16   16   17 1    
    17   16   18 1    
    18   16   19 1    
    19   19   20 1    
    20   19   21 1    
    21   19   22 1    
    22   22   23 1    
    23   22   24 1    
    24   22   12 1    
    25   14   25 1    
    26   25   26 2    
    27   25   27 1    
    28   13   28 am   
    29   28    6 1    
    30   28   29 2    
    31   11   30 2    
@<TRIPOS>SUBSTRUCTURE
     1 ****        2 TEMP              0 ****  ****    0 ROOT 
@<TRIPOS>SET
UNITY_3DHIT     STATIC     ATOMS    <user>   **** Atoms matching 3D or FLEX Search
0
MATCH_ATOMS     DYNAMIC    ATOMS    <user>   **** 
(1,2,3,4,5,6,7,8,9,10,11,12,13,14,15,16,17,18,19,20,21,22,23,24,25,26,27,28,29,30,31,32,33,34,35,36,37,38,39,40,41,42,43,44)
ATOM$INVISIBLE  STATIC     ATOMS    DISPGROUP SYSTEM 
0
@<TRIPOS>UNITY_ATOM_ATTR
27 1
AtomExpr -1
