#	Name:			mol_28
#	Creating user name:	jeff
#	Creation time:		Wed Dec 11 13:20:53 2002

#	Modifying user name:	jeff
#	Modification time:	Wed Dec 11 13:20:53 2002

@<TRIPOS>MOLECULE
mol_28
   56    58     1     0     3
SMALL
USER_CHARGES
****
From 3DB ct
@<TRIPOS>ATOM
      1 N          -1.178000   -4.689000    2.097000 N.am      1 <1>        -0.376200 
      2 C          -0.842000   -4.346000    0.749000 C.3       1 <1>         0.044600 
      3 H          -1.216000   -5.045000   -0.009000 H         1 <1>         0.143600 
      4 C          -1.623000   -2.999000    0.722000 C.3       1 <1>        -0.339600 
      5 H          -0.972000   -2.129000    0.558000 H         1 <1>         0.075400 
      6 H          -2.402000   -3.018000   -0.052000 H         1 <1>         0.116800 
      7 C          -2.262000   -2.840000    2.123000 C.3       1 <1>         0.074200 
      8 H          -2.399000   -1.790000    2.410000 H         1 <1>        -0.015600 
      9 H          -3.231000   -3.365000    2.129000 H         1 <1>         0.039800 
     10 C          -1.270000   -3.588000    3.027000 C.3       1 <1>        -0.062400 
     11 H          -0.301000   -3.092000    3.059000 H         1 <1>         0.053300 
     12 H          -1.548000   -3.781000    4.065000 H         1 <1>         0.078900 
     13 C           0.692000   -4.227000    0.761000 C.3       1 <1>         0.364200 
     14 H           1.059000   -4.127000    1.794000 H         1 <1>         0.019400 
     15 N           0.954000   -2.982000    0.061000 N.4       1 <1>        -0.866100 
     16 H           1.606000   -3.231000   -0.763000 H         1 <1>         0.502900 
     17 H           0.173000   -2.713000   -0.296000 H         1 <1>         0.509100 
     18 C           1.558000   -1.812000    0.688000 C.3       1 <1>         0.776600 
     19 H           1.186000   -0.931000    0.150000 H         1 <1>        -0.023000 
     20 C           1.267000   -1.616000    2.190000 C.3       1 <1>        -0.573700 
     21 H           1.802000   -0.748000    2.590000 H         1 <1>         0.227800 
     22 H           1.579000   -2.508000    2.754000 H         1 <1>         0.193700 
     23 H           0.192000   -1.427000    2.310000 H         1 <1>         0.131900 
     24 C           3.000000   -2.030000    0.406000 C.2       1 <1>         0.309600 
     25 O           3.478000   -3.119000    0.089000 O.2       1 <1>        -0.541700 
     26 N           3.809000   -0.940000    0.347000 N.am      1 <1>        -0.412100 
     27 C           5.162000   -1.049000   -0.141000 C.3       1 <1>         0.081300 
     28 H           5.161000   -1.383000   -1.187000 H         1 <1>         0.050400 
     29 C           5.682000    0.398000   -0.053000 C.3       1 <1>        -0.219300 
     30 H           6.564000    0.458000    0.601000 H         1 <1>         0.118200 
     31 H           5.944000    0.753000   -1.059000 H         1 <1>         0.044800 
     32 C           4.559000    1.271000    0.538000 C.3       1 <1>        -0.094300 
     33 H           4.888000    1.688000    1.503000 H         1 <1>         0.101200 
     34 H           4.322000    2.087000   -0.156000 H         1 <1>         0.027300 
     35 C           3.330000    0.370000    0.736000 C.3       1 <1>         0.119500 
     36 H           3.054000    0.404000    1.797000 H         1 <1>         0.014800 
     37 H           2.494000    0.690000    0.100000 H         1 <1>         0.013200 
     38 C           6.015000   -1.941000    0.706000 C.2       1 <1>         0.843900 
     39 O           7.123000   -2.234000    0.290000 O.2       1 <1>        -0.945900 
     40 O           5.629000   -2.429000    1.859000 O.3       1 <1>        -1.006700 
     41 C           1.427000   -5.373000    0.132000 C.2       1 <1>         0.639700 
     42 O           2.403000   -5.870000    0.670000 O.2       1 <1>        -0.823800 
     43 O           0.971000   -5.852000   -0.999000 O.3       1 <1>        -0.927900 
     44 C          -1.487000   -5.956000    2.399000 C.2       1 <1>         0.729100 
     45 O          -1.267000   -6.871000    1.619000 O.2       1 <1>        -0.592800 
     46 C          -2.140000   -6.296000    3.712000 C.ar      1 <1>        -0.132000 
     47 C          -2.989000   -5.450000    4.423000 C.ar      1 <1>        -0.159200 
     48 H          -3.178000   -4.445000    4.063000 H         1 <1>         0.175300 
     49 C          -3.596000   -5.895000    5.595000 C.ar      1 <1>        -0.182400 
     50 H          -4.257000   -5.237000    6.148000 H         1 <1>         0.141400 
     51 C          -3.354000   -7.188000    6.059000 C.ar      1 <1>        -0.110600 
     52 H          -3.826000   -7.535000    6.970000 H         1 <1>         0.135700 
     53 C          -2.503000   -8.034000    5.348000 C.ar      1 <1>        -0.221300 
     54 H          -2.313000   -9.039000    5.709000 H         1 <1>         0.163400 
     55 C          -1.897000   -7.589000    4.174000 C.ar      1 <1>        -0.008800 
     56 H          -1.237000   -8.248000    3.621000 H         1 <1>         0.152400 
@<TRIPOS>BOND
     1    1    2 1    
     2    2    3 1    
     3    2    4 1    
     4    4    5 1    
     5    4    6 1    
     6    4    7 1    
     7    7    8 1    
     8    7    9 1    
     9    7   10 1    
    10   10   11 1    
    11   10   12 1    
    12   10    1 1    
    13    2   13 1    
    14   13   14 1    
    15   13   15 1    
    16   15   16 1    
    17   15   17 1    
    18   15   18 1    
    19   18   19 1    
    20   18   20 1    
    21   20   21 1    
    22   20   22 1    
    23   20   23 1    
    24   18   24 1    
    25   24   25 2    
    26   24   26 am   
    27   26   27 1    
    28   27   28 1    
    29   27   29 1    
    30   29   30 1    
    31   29   31 1    
    32   29   32 1    
    33   32   33 1    
    34   32   34 1    
    35   32   35 1    
    36   35   36 1    
    37   35   37 1    
    38   35   26 1    
    39   27   38 1    
    40   38   39 2    
    41   38   40 1    
    42   13   41 1    
    43   41   42 2    
    44   41   43 1    
    45    1   44 am   
    46   44   45 2    
    47   44   46 1    
    48   46   47 ar   
    49   47   48 1    
    50   47   49 ar   
    51   49   50 1    
    52   49   51 ar   
    53   51   52 1    
    54   51   53 ar   
    55   53   54 1    
    56   53   55 ar   
    57   55   56 1    
    58   55   46 ar   
@<TRIPOS>SUBSTRUCTURE
     1 ****        1 TEMP              0 ****  ****    0 ROOT 
@<TRIPOS>SET
UNITY_3DHIT     STATIC     ATOMS    <user>   **** Atoms matching 3D or FLEX Search
0
MATCH_ATOMS     DYNAMIC    ATOMS    <user>   **** 
(1,2,3,4,5,6,7,8,9,10,11,12,13,14,15,16,17,18,19,20,21,22,23,24,25,26,27,28,29,30,31,32,33,34,35,36,37,38,39,40,41,42,43,44)
ATOM$INVISIBLE  STATIC     ATOMS    DISPGROUP SYSTEM 
0
@<TRIPOS>UNITY_ATOM_ATTR
15 1
AtomExpr +1
40 1
AtomExpr -1
43 1
AtomExpr -1
