#	Name:			mol_34
#	Creating user name:	jeff
#	Creation time:		Wed Dec 11 13:20:53 2002

#	Modifying user name:	jeff
#	Modification time:	Wed Dec 11 13:20:53 2002

@<TRIPOS>MOLECULE
mol_34
   25    25     1     0     3
SMALL
USER_CHARGES
INVALID_CHARGES
From 3DB ct
@<TRIPOS>ATOM
      1 S           0.618000   -3.679000   -1.293000 S.3       1 <1>        -0.219500 
      2 H          -0.400000   -3.745000   -1.564000 H         1 <1>         0.088600 
      3 C           0.722000   -3.251000    0.473000 C.3       1 <1>        -0.105800 
      4 H           1.185000   -4.096000    1.003000 H         1 <1>         0.131900 
      5 H          -0.300000   -3.115000    0.856000 H         1 <1>         0.023100 
      6 C           1.520000   -1.955000    0.783000 C.3       1 <1>        -0.123100 
      7 H           1.504000   -1.808000    1.874000 H         1 <1>         0.088900 
      8 H           1.031000   -1.098000    0.296000 H         1 <1>         0.113900 
      9 C           2.961000   -2.025000    0.354000 C.2       1 <1>         0.618200 
     10 N           3.776000   -0.935000    0.284000 N.am      1 <1>        -0.474500 
     11 C           5.138000   -1.079000   -0.191000 C.3       1 <1>         0.206200 
     12 H           5.133000   -1.441000   -1.228000 H         1 <1>         0.010400 
     13 C           5.689000    0.358000   -0.123000 C.3       1 <1>        -0.307200 
     14 H           6.572000    0.390000    0.533000 H         1 <1>         0.116900 
     15 H           5.970000    0.700000   -1.130000 H         1 <1>         0.042700 
     16 C           4.573000    1.258000    0.451000 C.3       1 <1>         0.063500 
     17 H           4.337000    2.065000   -0.258000 H         1 <1>        -0.028700 
     18 H           4.901000    1.698000    1.406000 H         1 <1>         0.069300 
     19 C           3.324000    0.382000    0.679000 C.3       1 <1>         0.040100 
     20 H           2.497000    0.732000    0.048000 H         1 <1>         0.017500 
     21 H           3.037000    0.403000    1.740000 H         1 <1>         0.012900 
     22 C           5.975000   -2.002000    0.651000 C.2       1 <1>         0.743600 
     23 O           7.140000   -2.208000    0.356000 O.2       1 <1>        -0.964500 
     24 O           5.493000   -2.666000    1.704000 O.3       1 <1>        -0.948600 
     25 O           3.432000   -3.119000    0.048000 O.2       1 <1>        -0.637900 
@<TRIPOS>BOND
     1    2    1 1    
     2    1    3 1    
     3    3    4 1    
     4    3    5 1    
     5    3    6 1    
     6    6    7 1    
     7    6    8 1    
     8    6    9 1    
     9    9   10 am   
    10   10   11 1    
    11   11   12 1    
    12   11   13 1    
    13   13   14 1    
    14   13   15 1    
    15   13   16 1    
    16   16   17 1    
    17   16   18 1    
    18   16   19 1    
    19   19   20 1    
    20   19   21 1    
    21   19   10 1    
    22   11   22 1    
    23   22   23 2    
    24   22   24 1    
    25    9   25 2    
@<TRIPOS>SUBSTRUCTURE
     1 ****        2 TEMP              0 ****  ****    0 ROOT 
@<TRIPOS>SET
UNITY_3DHIT     STATIC     ATOMS    <user>   **** Atoms matching 3D or FLEX Search
0
MATCH_ATOMS     DYNAMIC    ATOMS    <user>   **** 
(1,2,3,4,5,6,7,8,9,10,11,12,13,14,15,16,17,18,19,20,21,22,23,24,25,26,27,28,29,30,31,32,33,34,35)
ATOM$INVISIBLE  STATIC     ATOMS    DISPGROUP SYSTEM 
0
@<TRIPOS>UNITY_ATOM_ATTR
24 1
AtomExpr -1
