#	Name:			mol_06
#	Creating user name:	jeff
#	Creation time:		Wed Dec 11 13:20:52 2002

#	Modifying user name:	jeff
#	Modification time:	Wed Dec 11 13:20:52 2002

@<TRIPOS>MOLECULE
mol_06
   30    31     1     0     3
SMALL
USER_CHARGES
****
From 3DB ct
@<TRIPOS>ATOM
      1 N           3.806000   -0.991000    0.368000 N.pl3     1 <1>        -0.463800 
      2 C           5.151000   -1.096000   -0.157000 C.3       1 <1>         0.162300 
      3 H           5.136000   -1.471000   -1.193000 H         1 <1>         0.054400 
      4 C           5.579000    0.388000   -0.128000 C.3       1 <1>        -0.305200 
      5 H           6.630000    0.496000    0.170000 H         1 <1>         0.119800 
      6 H           5.439000    0.807000   -1.137000 H         1 <1>         0.052400 
      7 C           4.620000    1.113000    0.848000 C.3       1 <1>        -0.011800 
      8 H           5.075000    1.160000    1.848000 H         1 <1>         0.111000 
      9 H           4.363000    2.119000    0.492000 H         1 <1>         0.014400 
     10 C           3.439000    0.191000    0.859000 C.2       1 <1>         0.049000 
     11 C           2.177000    0.371000    1.270000 C.2       1 <1>         0.042900 
     12 C           1.309000   -0.648000    1.170000 C.2       1 <1>        -0.162100 
     13 H           0.276000   -0.489000    1.479000 H         1 <1>         0.201900 
     14 C           1.682000   -1.854000    0.712000 C.2       1 <1>        -0.255700 
     15 C           2.961000   -2.025000    0.354000 C.2       1 <1>         0.799300 
     16 O           3.431000   -3.119000    0.048000 O.2       1 <1>        -0.666000 
     17 C           0.729000   -3.018000    0.599000 C.3       1 <1>         0.056900 
     18 H           0.807000   -3.399000   -0.431000 H         1 <1>         0.045000 
     19 H           1.015000   -3.818000    1.297000 H         1 <1>         0.041300 
     20 C          -0.750000   -2.660000    0.848000 C.3       1 <1>        -0.092200 
     21 H          -0.879000   -2.319000    1.887000 H         1 <1>        -0.025600 
     22 H          -1.040000   -1.856000    0.157000 H         1 <1>        -0.027000 
     23 C          -1.589000   -3.878000    0.581000 C.2       1 <1>         0.762600 
     24 O          -2.239000   -4.386000    1.481000 O.2       1 <1>        -1.004400 
     25 O          -1.618000   -4.403000   -0.621000 O.3       1 <1>        -0.993000 
     26 O           1.788000    1.523000    1.762000 O.3       1 <1>        -0.552100 
     27 H           2.444000    2.207000    1.817000 H         1 <1>         0.361200 
     28 C           6.002000   -1.999000    0.689000 C.2       1 <1>         0.767800 
     29 O           7.168000   -2.205000    0.392000 O.2       1 <1>        -0.982300 
     30 O           5.538000   -2.619000    1.741000 O.3       1 <1>        -0.945000 
@<TRIPOS>BOND
     1    1    2 1    
     2    2    3 1    
     3    2    4 1    
     4    4    5 1    
     5    4    6 1    
     6    4    7 1    
     7    7    8 1    
     8    7    9 1    
     9    7   10 1    
    10   10    1 1    
    11   10   11 2    
    12   11   12 1    
    13   12   13 1    
    14   12   14 2    
    15   14   15 1    
    16   15    1 1    
    17   15   16 2    
    18   14   17 1    
    19   17   18 1    
    20   17   19 1    
    21   17   20 1    
    22   20   21 1    
    23   20   22 1    
    24   20   23 1    
    25   23   24 2    
    26   23   25 1    
    27   11   26 1    
    28   26   27 1    
    29    2   28 1    
    30   28   29 2    
    31   28   30 1    
@<TRIPOS>SUBSTRUCTURE
     1 ****        1 TEMP              0 ****  ****    0 ROOT 
@<TRIPOS>SET
UNITY_3DHIT     STATIC     ATOMS    <user>   **** Atoms matching 3D or FLEX Search
0
MATCH_ATOMS     DYNAMIC    ATOMS    <user>   **** 
(1,2,3,4,5,6,7,8,9,10,11,12,13,14,15,16,17,18,19,20,21,22,23,24,25,26,27,28,29,30,31,32,33,34,35,36,37,38,39,40,41,42,43,44)
ATOM$INVISIBLE  STATIC     ATOMS    DISPGROUP SYSTEM 
0
@<TRIPOS>UNITY_ATOM_ATTR
25 1
AtomExpr -1
30 1
AtomExpr -1
@<TRIPOS>UNITY_BOND_ATTR
11 1
S I
14 1
S I
