#	Name:			mol_05
#	Creating user name:	jeff
#	Creation time:		Wed Dec 11 13:20:52 2002

#	Modifying user name:	jeff
#	Modification time:	Wed Dec 11 13:20:52 2002

@<TRIPOS>MOLECULE
mol_05
   34    35     1     0     3
SMALL
USER_CHARGES
INVALID_CHARGES
From 3DB ct
@<TRIPOS>ATOM
      1 S           4.775000    1.423000    0.791000 S.3       1 <1>        -0.211400 
      2 C           3.331000    0.332000    0.805000 C.3       1 <1>         0.026000 
      3 H           2.566000    0.784000    0.160000 H         1 <1>         0.092200 
      4 N           3.782000   -0.944000    0.293000 N.am      1 <1>        -0.360800 
      5 C           5.142000   -1.087000   -0.200000 C.3       1 <1>        -0.048500 
      6 H           5.106000   -1.489000   -1.224000 H         1 <1>         0.080000 
      7 C           5.784000    0.318000   -0.241000 C.3       1 <1>        -0.076500 
      8 H           6.818000    0.299000    0.139000 H         1 <1>         0.178300 
      9 H           5.780000    0.687000   -1.275000 H         1 <1>         0.012800 
     10 C           5.982000   -1.998000    0.655000 C.2       1 <1>         0.802600 
     11 O           7.145000   -2.205000    0.349000 O.2       1 <1>        -0.971600 
     12 O           5.525000   -2.633000    1.706000 O.3       1 <1>        -0.957900 
     13 C           2.955000   -2.017000    0.341000 C.2       1 <1>         0.567500 
     14 O           3.416000   -3.121000    0.058000 O.2       1 <1>        -0.571900 
     15 C           1.510000   -1.923000    0.755000 C.3       1 <1>        -0.146000 
     16 H           1.482000   -1.746000    1.842000 H         1 <1>         0.087900 
     17 H           1.008000   -1.092000    0.245000 H         1 <1>         0.089600 
     18 C           0.717000   -3.220000    0.465000 C.3       1 <1>        -0.111500 
     19 H           1.171000   -4.053000    1.015000 H         1 <1>         0.182000 
     20 H          -0.308000   -3.070000    0.835000 H         1 <1>         0.011600 
     21 S           0.629000   -3.678000   -1.293000 S.3       1 <1>        -0.207600 
     22 H          -0.386000   -3.750000   -1.571000 H         1 <1>         0.086000 
     23 C           2.818000    0.183000    2.238000 C.ar      1 <1>        -0.005200 
     24 C           1.449000    0.068000    2.483000 C.ar      1 <1>         0.406700 
     25 C           0.984000    0.008000    3.798000 C.ar      1 <1>        -0.527500 
     26 H          -0.080000   -0.074000    3.990000 H         1 <1>         0.195600 
     27 C           1.891000    0.045000    4.859000 C.ar      1 <1>        -0.054000 
     28 H           1.530000    0.002000    5.879000 H         1 <1>         0.130700 
     29 C           3.263000    0.133000    4.610000 C.ar      1 <1>        -0.232500 
     30 H           3.967000    0.156000    5.433000 H         1 <1>         0.161700 
     31 C           3.730000    0.190000    3.296000 C.ar      1 <1>        -0.121600 
     32 H           4.794000    0.241000    3.096000 H         1 <1>         0.276300 
     33 O           0.611000    0.007000    1.488000 O.3       1 <1>        -0.629300 
     34 H          -0.305000   -0.096000    1.713000 H         1 <1>         0.424300 
@<TRIPOS>BOND
     1    1    2 1    
     2    2    3 1    
     3    2    4 1    
     4    4    5 1    
     5    5    6 1    
     6    5    7 1    
     7    7    8 1    
     8    7    9 1    
     9    7    1 1    
    10    5   10 1    
    11   10   11 2    
    12   10   12 1    
    13    4   13 am   
    14   13   14 2    
    15   13   15 1    
    16   15   16 1    
    17   15   17 1    
    18   15   18 1    
    19   18   19 1    
    20   18   20 1    
    21   18   21 1    
    22   21   22 1    
    23    2   23 1    
    24   23   24 ar   
    25   24   25 ar   
    26   25   26 1    
    27   25   27 ar   
    28   27   28 1    
    29   27   29 ar   
    30   29   30 1    
    31   29   31 ar   
    32   31   32 1    
    33   31   23 ar   
    34   24   33 1    
    35   33   34 1    
@<TRIPOS>SUBSTRUCTURE
     1 ****        1 TEMP              0 ****  ****    0 ROOT 
@<TRIPOS>SET
UNITY_3DHIT     STATIC     ATOMS    <user>   **** Atoms matching 3D or FLEX Search
0
MATCH_ATOMS     DYNAMIC    ATOMS    <user>   **** 
(1,2,3,4,5,6,7,8,9,10,11,12,13,14,15,16,17,18,19,20,21,22,23,24,25,26,27,28,29,30,31,32,33,34,35,36,37,38,39,40,41,42,43,44)
ATOM$INVISIBLE  STATIC     ATOMS    DISPGROUP SYSTEM 
0
@<TRIPOS>UNITY_ATOM_ATTR
12 1
AtomExpr -1
