#	Name:			mol_39
#	Creating user name:	jeff
#	Creation time:		Wed Dec 11 13:20:53 2002

#	Modifying user name:	jeff
#	Modification time:	Wed Dec 11 13:20:53 2002

@<TRIPOS>MOLECULE
mol_39
   34    34     1     0     3
SMALL
USER_CHARGES
INVALID_CHARGES
From 3DB ct
@<TRIPOS>ATOM
      1 S           0.612000   -3.676000   -1.281000 S.3       1 <1>        -0.191200 
      2 H          -0.407000   -3.742000   -1.547000 H         1 <1>         0.090900 
      3 C           0.723000   -3.238000    0.482000 C.3       1 <1>        -0.245500 
      4 H           1.184000   -4.081000    1.016000 H         1 <1>         0.160500 
      5 H          -0.298000   -3.095000    0.867000 H         1 <1>         0.073900 
      6 C           1.519000   -1.940000    0.776000 C.3       1 <1>        -0.245300 
      7 H           1.499000   -1.776000    1.864000 H         1 <1>         0.098100 
      8 H           1.037000   -1.086000    0.282000 H         1 <1>         0.201400 
      9 C           2.961000   -2.025000    0.354000 C.2       1 <1>         0.868600 
     10 N           3.776000   -0.935000    0.284000 N.am      1 <1>        -0.764300 
     11 C           5.150000   -1.070000   -0.206000 C.3       1 <1>         0.346100 
     12 H           5.124000   -1.456000   -1.238000 H         1 <1>        -0.010300 
     13 C           5.878000    0.292000   -0.312000 C.3       1 <1>        -0.053700 
     14 H           5.277000    0.998000   -0.907000 H         1 <1>        -0.010800 
     15 H           6.004000    0.699000    0.705000 H         1 <1>         0.045500 
     16 C           7.247000    0.158000   -0.971000 C.ar      1 <1>        -0.018000 
     17 C           8.398000    0.444000   -0.238000 C.ar      1 <1>        -0.100700 
     18 H           8.317000    0.765000    0.794000 H         1 <1>         0.192700 
     19 C           9.652000    0.319000   -0.833000 C.ar      1 <1>        -0.201100 
     20 H          10.547000    0.549000   -0.266000 H         1 <1>         0.130400 
     21 C           9.756000   -0.103000   -2.158000 C.ar      1 <1>        -0.144700 
     22 H          10.731000   -0.208000   -2.618000 H         1 <1>         0.112400 
     23 C           8.605000   -0.391000   -2.890000 C.ar      1 <1>        -0.220900 
     24 H           8.686000   -0.716000   -3.921000 H         1 <1>         0.127800 
     25 C           7.351000   -0.260000   -2.296000 C.ar      1 <1>        -0.132800 
     26 H           6.456000   -0.484000   -2.866000 H         1 <1>         0.152900 
     27 C           5.981000   -2.009000    0.637000 C.2       1 <1>         0.691100 
     28 O           7.145000   -2.221000    0.339000 O.2       1 <1>        -0.944400 
     29 O           5.499000   -2.664000    1.695000 O.3       1 <1>        -0.947500 
     30 C           3.194000    0.343000    0.684000 C.3       1 <1>         0.049700 
     31 H           3.931000    1.153000    0.733000 H         1 <1>         0.121400 
     32 H           2.728000    0.246000    1.675000 H         1 <1>         0.079900 
     33 H           2.423000    0.632000   -0.047000 H         1 <1>        -0.037000 
     34 O           3.432000   -3.119000    0.048000 O.2       1 <1>        -0.697100 
@<TRIPOS>BOND
     1    2    1 1    
     2    1    3 1    
     3    3    4 1    
     4    3    5 1    
     5    3    6 1    
     6    6    7 1    
     7    6    8 1    
     8    6    9 1    
     9    9   10 am   
    10   10   11 1    
    11   11   12 1    
    12   11   13 1    
    13   13   14 1    
    14   13   15 1    
    15   13   16 1    
    16   16   17 ar   
    17   17   18 1    
    18   17   19 ar   
    19   19   20 1    
    20   19   21 ar   
    21   21   22 1    
    22   21   23 ar   
    23   23   24 1    
    24   23   25 ar   
    25   25   26 1    
    26   25   16 ar   
    27   11   27 1    
    28   27   28 2    
    29   27   29 1    
    30   10   30 1    
    31   30   31 1    
    32   30   32 1    
    33   30   33 1    
    34    9   34 2    
@<TRIPOS>SUBSTRUCTURE
     1 ****        2 TEMP              0 ****  ****    0 ROOT 
@<TRIPOS>SET
UNITY_3DHIT     STATIC     ATOMS    <user>   **** Atoms matching 3D or FLEX Search
0
MATCH_ATOMS     DYNAMIC    ATOMS    <user>   **** 
(1,2,3,4,5,6,7,8,9,10,11,12,13,14,15,16,17,18,19,20,21,22,23,24,25,26,27,28,29,30,31,32,33,34,35)
ATOM$INVISIBLE  STATIC     ATOMS    DISPGROUP SYSTEM 
0
@<TRIPOS>UNITY_ATOM_ATTR
29 1
AtomExpr -1
