#	Name:			mol_52
#	Creating user name:	jeff
#	Creation time:		Wed Dec 11 13:20:53 2002

#	Modifying user name:	jeff
#	Modification time:	Wed Dec 11 13:20:53 2002

@<TRIPOS>MOLECULE
mol_52
   32    32     1     0     3
SMALL
USER_CHARGES
****
From 3DB ct
@<TRIPOS>ATOM
      1 N           3.776000   -0.935000    0.284000 N.am      1 <1>        -0.960500 
      2 H           3.435000   -0.030000    0.547000 H         1 <1>         0.476100 
      3 C           2.961000   -2.025000    0.354000 C.2       1 <1>         0.701700 
      4 O           3.432000   -3.119000    0.048000 O.2       1 <1>        -0.690900 
      5 C           1.544000   -1.867000    0.812000 C.3       1 <1>         0.267500 
      6 H           1.023000   -1.145000    0.169000 H         1 <1>         0.052000 
      7 N           0.818000   -3.145000    0.742000 N.3       1 <1>        -0.886100 
      8 H          -0.218000   -2.983000    0.999000 H         1 <1>         0.330800 
      9 H           1.260000   -3.852000    1.428000 H         1 <1>         0.297900 
     10 C           1.527000   -1.345000    2.262000 C.3       1 <1>        -0.311700 
     11 H           2.032000   -0.370000    2.308000 H         1 <1>         0.076300 
     12 H           2.042000   -2.058000    2.923000 H         1 <1>         0.098700 
     13 H           0.485000   -1.222000    2.587000 H         1 <1>         0.086500 
     14 C           5.148000   -1.061000   -0.195000 C.3       1 <1>         0.461900 
     15 H           5.128000   -1.440000   -1.230000 H         1 <1>         0.001700 
     16 C           5.770000    0.355000   -0.184000 C.3       1 <1>        -0.465200 
     17 H           5.131000    1.029000   -0.773000 H         1 <1>         0.083700 
     18 H           5.819000    0.722000    0.852000 H         1 <1>         0.131900 
     19 C           7.164000    0.359000   -0.807000 C.ar      1 <1>         0.207300 
     20 C           8.283000    0.635000   -0.018000 C.ar      1 <1>        -0.202500 
     21 H           8.163000    0.848000    1.037000 H         1 <1>         0.226100 
     22 C           9.558000    0.635000   -0.587000 C.ar      1 <1>        -0.156200 
     23 H          10.425000    0.856000    0.024000 H         1 <1>         0.126500 
     24 C           9.715000    0.349000   -1.945000 C.ar      1 <1>        -0.168700 
     25 H          10.705000    0.342000   -2.384000 H         1 <1>         0.115700 
     26 C           8.596000    0.073000   -2.735000 C.ar      1 <1>        -0.190000 
     27 H           8.720000   -0.145000   -3.788000 H         1 <1>         0.122600 
     28 C           7.321000    0.078000   -2.165000 C.ar      1 <1>        -0.199100 
     29 H           6.455000   -0.136000   -2.778000 H         1 <1>         0.161300 
     30 C           5.981000   -2.006000    0.639000 C.2       1 <1>         0.653100 
     31 O           7.145000   -2.222000    0.339000 O.2       1 <1>        -0.919500 
     32 O           5.502000   -2.657000    1.700000 O.3       1 <1>        -0.951000 
@<TRIPOS>BOND
     1    2    1 1    
     2    1    3 am   
     3    3    4 2    
     4    3    5 1    
     5    5    6 1    
     6    5    7 1    
     7    7    8 1    
     8    7    9 1    
     9    5   10 1    
    10   10   11 1    
    11   10   12 1    
    12   10   13 1    
    13    1   14 1    
    14   14   15 1    
    15   14   16 1    
    16   16   17 1    
    17   16   18 1    
    18   16   19 1    
    19   19   20 ar   
    20   20   21 1    
    21   20   22 ar   
    22   22   23 1    
    23   22   24 ar   
    24   24   25 1    
    25   24   26 ar   
    26   26   27 1    
    27   26   28 ar   
    28   28   29 1    
    29   28   19 ar   
    30   14   30 1    
    31   30   31 2    
    32   30   32 1    
@<TRIPOS>SUBSTRUCTURE
     1 ****        2 TEMP              0 ****  ****    0 ROOT 
@<TRIPOS>SET
UNITY_3DHIT     STATIC     ATOMS    <user>   **** Atoms matching 3D or FLEX Search
0
MATCH_ATOMS     DYNAMIC    ATOMS    <user>   **** 
(1,2,3,4,5,6,7,8,9,10,11,12,13,14,15,16,17,18,19,20,21,22,23,24,25,26,27,28,29,30,31,32,33,34,35)
ATOM$INVISIBLE  STATIC     ATOMS    DISPGROUP SYSTEM 
0
@<TRIPOS>UNITY_ATOM_ATTR
32 1
AtomExpr -1
