#	Name:			mol_07
#	Creating user name:	jeff
#	Creation time:		Wed Dec 11 13:20:52 2002

#	Modifying user name:	jeff
#	Modification time:	Wed Dec 11 13:20:52 2002

@<TRIPOS>MOLECULE
mol_07
   29    29     1     0     3
SMALL
USER_CHARGES
****
From 3DB ct
@<TRIPOS>ATOM
      1 P           0.299000   -2.776000   -1.247000 P.3       1 <1>         1.968300 
      2 O           0.825000   -4.092000   -1.987000 O.2       1 <1>        -1.358300 
      3 N           0.653000   -2.967000    0.199000 N.pl3     1 <1>        -1.240100 
      4 H          -0.258000   -3.026000    0.774000 H         1 <1>         0.364900 
      5 C           1.512000   -1.897000    0.754000 C.3       1 <1>         0.381700 
      6 H           1.111000   -0.918000    0.454000 H         1 <1>         0.074100 
      7 C           1.453000   -1.990000    2.295000 C.3       1 <1>        -0.355600 
      8 H           2.051000   -1.193000    2.763000 H         1 <1>        -0.024300 
      9 H           1.841000   -2.970000    2.612000 H         1 <1>         0.057300 
     10 H           0.408000   -1.891000    2.623000 H         1 <1>         0.144700 
     11 C           2.961000   -2.024000    0.354000 C.2       1 <1>         0.659300 
     12 O           3.431000   -3.119000    0.048000 O.2       1 <1>        -0.748100 
     13 N           3.791000   -0.949000    0.365000 N.am      1 <1>        -0.526900 
     14 C           5.168000   -1.070000   -0.080000 C.3       1 <1>         0.094000 
     15 H           5.206000   -1.324000   -1.149000 H         1 <1>         0.034300 
     16 C           5.734000    0.343000    0.155000 C.3       1 <1>        -0.184600 
     17 H           6.561000    0.324000    0.882000 H         1 <1>         0.045000 
     18 H           6.093000    0.741000   -0.803000 H         1 <1>         0.026900 
     19 C           4.592000    1.225000    0.700000 C.3       1 <1>        -0.093600 
     20 H           4.866000    1.612000    1.693000 H         1 <1>         0.070400 
     21 H           4.421000    2.066000    0.013000 H         1 <1>        -0.016800 
     22 C           3.324000    0.351000    0.797000 C.3       1 <1>         0.046800 
     23 H           2.539000    0.738000    0.133000 H         1 <1>         0.168000 
     24 H           2.967000    0.320000    1.835000 H         1 <1>         0.055900 
     25 C           5.990000   -2.046000    0.707000 C.2       1 <1>         0.803000 
     26 O           7.147000   -2.272000    0.396000 O.2       1 <1>        -1.056300 
     27 O           5.520000   -2.685000    1.751000 O.3       1 <1>        -0.972200 
     28 O           1.263000   -1.719000   -1.966000 O.3       1 <1>        -1.335400 
     29 O          -1.073000   -2.513000   -1.327000 O.3       1 <1>        -1.348400 
@<TRIPOS>BOND
     1    1    2 2    
     2    1    3 1    
     3    3    4 1    
     4    3    5 1    
     5    5    6 1    
     6    5    7 1    
     7    7    8 1    
     8    7    9 1    
     9    7   10 1    
    10    5   11 1    
    11   11   12 2    
    12   11   13 am   
    13   13   14 1    
    14   14   15 1    
    15   14   16 1    
    16   16   17 1    
    17   16   18 1    
    18   16   19 1    
    19   19   20 1    
    20   19   21 1    
    21   19   22 1    
    22   22   23 1    
    23   22   24 1    
    24   22   13 1    
    25   14   25 1    
    26   25   26 2    
    27   25   27 1    
    28    1   28 1    
    29    1   29 1    
@<TRIPOS>SUBSTRUCTURE
     1 ****        1 TEMP              0 ****  ****    0 ROOT 
@<TRIPOS>SET
UNITY_3DHIT     STATIC     ATOMS    <user>   **** Atoms matching 3D or FLEX Search
0
MATCH_ATOMS     DYNAMIC    ATOMS    <user>   **** 
(1,2,3,4,5,6,7,8,9,10,11,12,13,14,15,16,17,18,19,20,21,22,23,24,25,26,27,28,29,30,31,32,33,34,35,36,37,38,39,40,41,42,43,44)
ATOM$INVISIBLE  STATIC     ATOMS    DISPGROUP SYSTEM 
0
@<TRIPOS>UNITY_ATOM_ATTR
27 1
AtomExpr -1
28 1
AtomExpr -1
29 1
AtomExpr -1
