#	Name:			mol_01
#	Creating user name:	jeff
#	Creation time:		Wed Dec 11 13:20:52 2002

#	Modifying user name:	jeff
#	Modification time:	Wed Dec 11 13:20:52 2002

@<TRIPOS>MOLECULE
mol_01
   24    25     1     0     3
SMALL
USER_CHARGES
INVALID_CHARGES
From 3DB ct
@<TRIPOS>ATOM
      1 S           0.680000   -3.626000   -1.375000 S.3       1 <1>        -0.203700 
      2 H          -0.295000   -3.861000   -1.703000 H         1 <1>         0.091800 
      3 C           0.556000   -2.564000    0.104000 C.3       1 <1>        -0.080100 
      4 H          -0.387000   -2.004000    0.030000 H         1 <1>         0.137500 
      5 H           0.509000   -3.219000    0.985000 H         1 <1>         0.146700 
      6 N           1.684000   -1.649000    0.234000 N.am      1 <1>        -0.372900 
      7 C           2.982000   -2.014000    0.208000 C.2       1 <1>         0.878700 
      8 N           3.748000   -0.942000    0.378000 N.am      1 <1>        -0.622600 
      9 N           2.842000    0.146000    0.556000 N.am      1 <1>        -0.305300 
     10 C           3.246000    1.502000    0.814000 C.3       1 <1>         0.282500 
     11 H           2.827000    2.168000    0.049000 H         1 <1>        -0.005400 
     12 H           2.886000    1.810000    1.806000 H         1 <1>         0.037500 
     13 C           4.758000    1.559000    0.775000 C.2       1 <1>        -0.252300 
     14 H           5.213000    2.524000    0.978000 H         1 <1>         0.119600 
     15 C           5.597000    0.543000    0.509000 C.2       1 <1>        -0.253200 
     16 H           6.663000    0.769000    0.514000 H         1 <1>         0.175500 
     17 C           5.179000   -0.868000    0.174000 C.3       1 <1>         0.432600 
     18 H           5.375000   -1.017000   -0.897000 H         1 <1>         0.009000 
     19 C           5.935000   -1.956000    0.891000 C.2       1 <1>         0.745400 
     20 O           7.056000   -2.310000    0.566000 O.2       1 <1>        -0.953900 
     21 O           5.414000   -2.617000    1.892000 O.3       1 <1>        -0.937800 
     22 C           1.585000   -0.322000    0.441000 C.2       1 <1>         0.830800 
     23 O           0.555000    0.328000    0.516000 O.2       1 <1>        -0.691000 
     24 O           3.407000   -3.148000    0.058000 O.2       1 <1>        -0.631500 
@<TRIPOS>BOND
     1    2    1 1    
     2    1    3 1    
     3    3    4 1    
     4    3    5 1    
     5    3    6 1    
     6    6    7 am   
     7    7    8 am   
     8    8    9 1    
     9    9   10 1    
    10   10   11 1    
    11   10   12 1    
    12   10   13 1    
    13   13   14 1    
    14   13   15 2    
    15   15   16 1    
    16   15   17 1    
    17   17   18 1    
    18   17    8 1    
    19   17   19 1    
    20   19   20 2    
    21   19   21 1    
    22    9   22 am   
    23   22    6 am   
    24   22   23 2    
    25    7   24 2    
@<TRIPOS>SUBSTRUCTURE
     1 ****        2 TEMP              0 ****  ****    0 ROOT 
@<TRIPOS>SET
UNITY_3DHIT     STATIC     ATOMS    <user>   **** Atoms matching 3D or FLEX Search
0
MATCH_ATOMS     DYNAMIC    ATOMS    <user>   **** 
(1,2,3,4,5,6,7,8,9,10,11,12,13,14,15,16,17,18,19,20,21,22,23,24,25,26,27,28,29,30,31,32,33,34,35,36,37,38,39,40,41,42,43,44)
ATOM$INVISIBLE  STATIC     ATOMS    DISPGROUP SYSTEM 
0
@<TRIPOS>UNITY_ATOM_ATTR
21 1
AtomExpr -1
@<TRIPOS>UNITY_BOND_ATTR
14 1
S N
