#	Name:			SQ29852_2U
#	Creating user name:	jeff
#	Creation time:		Wed Dec 11 13:20:54 2002

#	Modifying user name:	jeff
#	Modification time:	Wed Dec 11 13:20:54 2002

@<TRIPOS>MOLECULE
SQ29852_2U
   66    67     1     0     3
SMALL
USER_CHARGES
****
From 3DB ct
@<TRIPOS>ATOM
      1 S           4.129000    2.573000   -0.805000 S.3       1 <1>        -0.310300 
      2 C           4.519000    1.256000    0.426000 C.3       1 <1>         0.054400 
      3 H           4.817000    1.796000    1.344000 H         1 <1>         0.210400 
      4 C           3.311000    0.361000    0.650000 C.3       1 <1>        -0.424900 
      5 H           3.075000    0.474000    1.707000 H         1 <1>         0.164400 
      6 H           2.465000    0.693000    0.034000 H         1 <1>         0.168900 
      7 N           3.767000   -0.976000    0.281000 N.am      1 <1>        -0.266900 
      8 C           5.153000   -1.004000   -0.155000 C.3       1 <1>        -0.061700 
      9 H           5.163000   -1.382000   -1.193000 H         1 <1>         0.110000 
     10 C           5.624000    0.438000   -0.058000 C.3       1 <1>        -0.208100 
     11 H           6.533000    0.528000    0.561000 H         1 <1>         0.135400 
     12 H           5.926000    0.729000   -1.078000 H         1 <1>         0.067500 
     13 C           6.000000   -1.985000    0.676000 C.2       1 <1>         0.803900 
     14 O           7.158000   -2.187000    0.350000 O.2       1 <1>        -0.952800 
     15 O           5.443000   -2.636000    1.694000 O.3       1 <1>        -0.989200 
     16 C           2.985000   -2.069000    0.339000 C.2       1 <1>         0.444500 
     17 O           3.378000   -3.192000    0.026000 O.2       1 <1>        -0.478500 
     18 C           1.510000   -2.008000    0.747000 C.3       1 <1>         0.690900 
     19 H           1.112000   -1.167000    0.172000 H         1 <1>        -0.272100 
     20 O           0.688000   -3.151000    0.447000 O.3       1 <1>        -0.828200 
     21 P           0.435000   -4.532000    1.235000 P.3       1 <1>         1.636100 
     22 O           1.689000   -5.161000    1.745000 O.2       1 <1>        -1.033800 
     23 O           0.012000   -5.515000    0.044000 O.3       1 <1>        -1.037900 
     24 C          -1.058000   -4.559000    2.377000 C.3       1 <1>        -0.624300 
     25 H          -0.882000   -3.952000    3.280000 H         1 <1>         0.070200 
     26 H          -1.140000   -5.604000    2.702000 H         1 <1>         0.121000 
     27 C          -2.483000   -4.186000    1.827000 C.3       1 <1>        -0.002400 
     28 H          -2.687000   -4.785000    0.926000 H         1 <1>         0.067600 
     29 H          -3.286000   -4.412000    2.555000 H         1 <1>        -0.029600 
     30 C          -2.551000   -2.671000    1.492000 C.3       1 <1>         0.418900 
     31 H          -2.683000   -2.099000    2.425000 H         1 <1>        -0.103100 
     32 H          -1.574000   -2.514000    1.056000 H         1 <1>        -0.017100 
     33 C          -3.584000   -2.164000    0.450000 C.3       1 <1>        -0.790700 
     34 H          -3.751000   -2.979000   -0.271000 H         1 <1>         0.207800 
     35 H          -4.543000   -1.991000    0.968000 H         1 <1>         0.180700 
     36 C          -3.220000   -0.993000   -0.466000 C.ar      1 <1>         0.397000 
     37 C          -4.301000   -0.343000   -1.078000 C.ar      1 <1>        -0.364300 
     38 H          -5.322000   -0.626000   -0.843000 H         1 <1>         0.197400 
     39 C          -4.090000    0.684000   -2.006000 C.ar      1 <1>        -0.137100 
     40 H          -4.939000    1.194000   -2.450000 H         1 <1>         0.145900 
     41 C          -2.793000    1.056000   -2.365000 C.ar      1 <1>        -0.254300 
     42 H          -2.630000    1.860000   -3.077000 H         1 <1>         0.169400 
     43 C          -1.708000    0.381000   -1.803000 C.ar      1 <1>        -0.148800 
     44 H          -0.696000    0.645000   -2.098000 H         1 <1>         0.173100 
     45 C          -1.924000   -0.629000   -0.859000 C.ar      1 <1>        -0.288700 
     46 H          -1.049000   -1.118000   -0.477000 H         1 <1>         0.231400 
     47 C           1.343000   -1.666000    2.251000 C.3       1 <1>        -0.327700 
     48 H           1.306000   -2.630000    2.780000 H         1 <1>         0.155800 
     49 H           2.271000   -1.258000    2.661000 H         1 <1>         0.122300 
     50 C           0.212000   -0.779000    2.869000 C.3       1 <1>        -0.012100 
     51 H           0.194000   -1.024000    3.948000 H         1 <1>         0.042800 
     52 H          -0.749000   -1.066000    2.476000 H         1 <1>         0.038900 
     53 C           0.271000    0.778000    2.796000 C.3       1 <1>        -0.175500 
     54 H          -0.313000    1.184000    3.643000 H         1 <1>         0.042900 
     55 H           1.294000    1.151000    2.924000 H         1 <1>         0.088800 
     56 C          -0.410000    1.370000    1.533000 C.3       1 <1>         0.086600 
     57 H           0.140000    1.087000    0.624000 H         1 <1>         0.222700 
     58 H          -1.438000    0.976000    1.457000 H         1 <1>         0.097900 
     59 N          -0.514000    2.841000    1.647000 N.4       1 <1>        -0.326800 
     60 H          -1.074000    3.250000    0.816000 H         1 <1>         0.348600 
     61 H           0.468000    3.293000    1.678000 H         1 <1>         0.441000 
     62 H          -0.946000    3.040000    2.411000 H         1 <1>         0.411800 
     63 C           5.571000    3.686000   -0.675000 C.3       1 <1>        -0.178000 
     64 H           5.434000    4.530000   -1.368000 H         1 <1>         0.099000 
     65 H           6.514000    3.174000   -0.924000 H         1 <1>         0.080600 
     66 H           5.628000    4.072000    0.352000 H         1 <1>         0.076700 
@<TRIPOS>BOND
     1    1    2 1    
     2    2    3 1    
     3    2    4 1    
     4    4    5 1    
     5    4    6 1    
     6    4    7 1    
     7    7    8 1    
     8    8    9 1    
     9    8   10 1    
    10   10   11 1    
    11   10   12 1    
    12   10    2 1    
    13    8   13 1    
    14   13   14 2    
    15   13   15 1    
    16    7   16 am   
    17   16   17 2    
    18   16   18 1    
    19   18   19 1    
    20   18   20 1    
    21   20   21 1    
    22   21   22 2    
    23   21   23 1    
    24   21   24 1    
    25   24   25 1    
    26   24   26 1    
    27   24   27 1    
    28   27   28 1    
    29   27   29 1    
    30   27   30 1    
    31   30   31 1    
    32   30   32 1    
    33   30   33 1    
    34   33   34 1    
    35   33   35 1    
    36   33   36 1    
    37   36   37 ar   
    38   37   38 1    
    39   37   39 ar   
    40   39   40 1    
    41   39   41 ar   
    42   41   42 1    
    43   41   43 ar   
    44   43   44 1    
    45   43   45 ar   
    46   45   46 1    
    47   45   36 ar   
    48   18   47 1    
    49   47   48 1    
    50   47   49 1    
    51   47   50 1    
    52   50   51 1    
    53   50   52 1    
    54   50   53 1    
    55   53   54 1    
    56   53   55 1    
    57   53   56 1    
    58   56   57 1    
    59   56   58 1    
    60   56   59 1    
    61   59   60 1    
    62   59   61 1    
    63   59   62 1    
    64    1   63 1    
    65   63   64 1    
    66   63   65 1    
    67   63   66 1    
@<TRIPOS>SUBSTRUCTURE
     1 ****        1 TEMP              0 ****  ****    0 ROOT 
@<TRIPOS>SET
UNITY_3DHIT     STATIC     ATOMS    <user>   **** Atoms matching 3D or FLEX Search
0
MATCH_ATOMS     DYNAMIC    ATOMS    <user>   **** 
(1,2,3,4,5,6,7,8,9,10,11,12,13,14,15,16,17,18,19,20,21,22,23,24,25,26,27,28,29,30,31,32)
ATOM$INVISIBLE  STATIC     ATOMS    DISPGROUP SYSTEM 
0
@<TRIPOS>UNITY_ATOM_ATTR
15 1
AtomExpr -1
23 1
AtomExpr -1
59 1
AtomExpr +1
