#	Name:			SQ29852
#	Creating user name:	jeff
#	Creation time:		Wed Dec 11 13:20:54 2002

#	Modifying user name:	jeff
#	Modification time:	Wed Dec 11 13:20:54 2002

@<TRIPOS>MOLECULE
SQ29852
   62    63     1     0     3
SMALL
USER_CHARGES
****
From 3DB ct
@<TRIPOS>ATOM
      1 P           2.238000   -5.050000   -0.525000 P.3       1 <1>         1.629800 
      2 O           2.879000   -5.234000   -1.865000 O.2       1 <1>        -1.100900 
      3 O           1.443000   -3.678000   -0.009000 O.3       1 <1>        -0.775100 
      4 C           1.748000   -2.451000    0.764000 C.3       1 <1>         0.215500 
      5 H           1.016000   -1.642000    0.590000 H         1 <1>         0.087500 
      6 C           2.259000   -2.610000    2.231000 C.3       1 <1>        -0.103600 
      7 H           2.516000   -1.663000    2.721000 H         1 <1>         0.095500 
      8 H           3.173000   -3.238000    2.391000 H         1 <1>         0.064600 
      9 C           1.056000   -3.255000    2.877000 C.3       1 <1>        -0.030600 
     10 H           0.120000   -3.077000    2.302000 H         1 <1>         0.073400 
     11 H           1.436000   -4.279000    2.948000 H         1 <1>         0.089100 
     12 C           0.763000   -2.794000    4.287000 C.3       1 <1>        -0.238300 
     13 H           1.715000   -2.866000    4.835000 H         1 <1>         0.090200 
     14 H           0.039000   -3.503000    4.724000 H         1 <1>         0.074600 
     15 C           0.173000   -1.364000    4.181000 C.3       1 <1>         0.112400 
     16 H          -0.897000   -1.438000    3.926000 H         1 <1>         0.026400 
     17 H           0.631000   -0.740000    3.395000 H         1 <1>         0.121900 
     18 N           0.394000   -0.710000    5.476000 N.4       1 <1>        -0.383100 
     19 H          -0.123000    0.236000    5.500000 H         1 <1>         0.373800 
     20 H           1.454000   -0.545000    5.626000 H         1 <1>         0.428400 
     21 H           0.079000   -1.238000    6.133000 H         1 <1>         0.385900 
     22 C           3.070000   -2.035000    0.410000 C.2       1 <1>         0.676000 
     23 O           3.478000   -3.142000    0.061000 O.2       1 <1>        -0.622600 
     24 N           3.828000   -0.925000    0.357000 N.am      1 <1>        -0.500800 
     25 C           5.202000   -0.914000   -0.114000 C.3       1 <1>         0.003500 
     26 H           5.211000   -1.245000   -1.167000 H         1 <1>         0.089000 
     27 C           5.648000    0.534000    0.005000 C.3       1 <1>        -0.193800 
     28 H           5.956000    0.919000   -0.982000 H         1 <1>         0.072200 
     29 H           6.538000    0.590000    0.658000 H         1 <1>         0.087900 
     30 C           4.539000    1.318000    0.535000 C.3       1 <1>        -0.073000 
     31 H           4.825000    1.758000    1.510000 H         1 <1>         0.063900 
     32 H           4.265000    2.165000   -0.116000 H         1 <1>         0.019300 
     33 C           3.355000    0.394000    0.769000 C.3       1 <1>         0.096500 
     34 H           2.489000    0.679000    0.151000 H         1 <1>         0.083600 
     35 H           3.037000    0.391000    1.824000 H         1 <1>        -0.007000 
     36 C           6.040000   -1.893000    0.714000 C.2       1 <1>         0.878900 
     37 O           7.151000   -2.158000    0.286000 O.2       1 <1>        -0.883900 
     38 O           5.607000   -2.387000    1.871000 O.3       1 <1>        -1.066100 
     39 O           0.652000   -4.961000   -0.732000 O.3       1 <1>        -1.099300 
     40 C           1.873000   -6.536000    0.552000 C.3       1 <1>        -0.488000 
     41 H           2.253000   -7.433000    0.043000 H         1 <1>         0.079600 
     42 H           2.424000   -6.391000    1.496000 H         1 <1>         0.095700 
     43 C           0.389000   -6.896000    0.942000 C.3       1 <1>        -0.043900 
     44 H           0.268000   -7.953000    1.200000 H         1 <1>        -0.019000 
     45 H          -0.360000   -6.689000    0.160000 H         1 <1>         0.059300 
     46 C          -0.050000   -6.135000    2.195000 C.3       1 <1>         0.306900 
     47 H          -0.113000   -5.108000    1.982000 H         1 <1>        -0.002300 
     48 H           0.456000   -6.429000    3.128000 H         1 <1>        -0.020900 
     49 C          -1.529000   -5.981000    2.355000 C.3       1 <1>        -0.567800 
     50 H          -1.882000   -6.911000    1.873000 H         1 <1>         0.120600 
     51 H          -2.169000   -5.249000    1.800000 H         1 <1>         0.138100 
     52 C          -2.113000   -6.329000    3.678000 C.ar      1 <1>         0.262400 
     53 C          -1.916000   -7.616000    4.206000 C.ar      1 <1>        -0.258600 
     54 H          -1.258000   -8.344000    3.721000 H         1 <1>         0.175100 
     55 C          -2.512000   -8.019000    5.405000 C.ar      1 <1>        -0.156800 
     56 H          -2.275000   -9.008000    5.789000 H         1 <1>         0.134000 
     57 C          -3.365000   -7.155000    6.092000 C.ar      1 <1>        -0.163300 
     58 H          -3.805000   -7.490000    7.022000 H         1 <1>         0.127000 
     59 C          -3.618000   -5.889000    5.561000 C.ar      1 <1>        -0.191300 
     60 H          -4.297000   -5.184000    6.041000 H         1 <1>         0.147300 
     61 C          -2.996000   -5.485000    4.372000 C.ar      1 <1>        -0.216200 
     62 H          -3.209000   -4.492000    3.965000 H         1 <1>         0.198100 
@<TRIPOS>BOND
     1    1    2 2    
     2    1    3 1    
     3    3    4 1    
     4    4    5 1    
     5    4    6 1    
     6    6    7 1    
     7    6    8 1    
     8    6    9 1    
     9    9   10 1    
    10    9   11 1    
    11    9   12 1    
    12   12   13 1    
    13   12   14 1    
    14   12   15 1    
    15   15   16 1    
    16   15   17 1    
    17   15   18 1    
    18   18   19 1    
    19   18   20 1    
    20   18   21 1    
    21    4   22 1    
    22   22   23 2    
    23   22   24 am   
    24   24   25 1    
    25   25   26 1    
    26   25   27 1    
    27   27   28 1    
    28   27   29 1    
    29   27   30 1    
    30   30   31 1    
    31   30   32 1    
    32   30   33 1    
    33   33   34 1    
    34   33   35 1    
    35   33   24 1    
    36   25   36 1    
    37   36   37 2    
    38   36   38 1    
    39    1   39 1    
    40    1   40 1    
    41   40   41 1    
    42   40   42 1    
    43   40   43 1    
    44   43   44 1    
    45   43   45 1    
    46   43   46 1    
    47   46   47 1    
    48   46   48 1    
    49   46   49 1    
    50   49   50 1    
    51   49   51 1    
    52   49   52 1    
    53   52   53 ar   
    54   53   54 1    
    55   53   55 ar   
    56   55   56 1    
    57   55   57 ar   
    58   57   58 1    
    59   57   59 ar   
    60   59   60 1    
    61   59   61 ar   
    62   61   62 1    
    63   61   52 ar   
@<TRIPOS>SUBSTRUCTURE
     1 ****        1 TEMP              0 ****  ****    0 ROOT 
@<TRIPOS>SET
UNITY_3DHIT     STATIC     ATOMS    <user>   **** Atoms matching 3D or FLEX Search
0
MATCH_ATOMS     DYNAMIC    ATOMS    <user>   **** 
(1,2,3,4,5,6,7,8,9,10,11,12,13,14,15,16,17,18,19,20,21,22,23,24,25,26,27,28,29,30,31,32)
ATOM$INVISIBLE  STATIC     ATOMS    DISPGROUP SYSTEM 
0
@<TRIPOS>UNITY_ATOM_ATTR
18 1
AtomExpr +1
38 1
AtomExpr -1
39 1
AtomExpr -1
