#	Name:			SQ29852_2Q
#	Creating user name:	jeff
#	Creation time:		Wed Dec 11 13:20:54 2002

#	Modifying user name:	jeff
#	Modification time:	Wed Dec 11 13:20:54 2002

@<TRIPOS>MOLECULE
SQ29852_2Q
   72    74     1     0     3
SMALL
USER_CHARGES
****
From 3DB ct
@<TRIPOS>ATOM
      1 P           1.584000   -4.436000    0.021000 P.3       1 <1>         1.600700 
      2 O           2.507000   -4.870000   -1.065000 O.2       1 <1>        -1.097200 
      3 O           0.970000   -2.941000   -0.014000 O.3       1 <1>        -0.646100 
      4 C           1.566000   -1.818000    0.677000 C.3       1 <1>         0.090100 
      5 H           1.124000   -0.978000    0.115000 H         1 <1>         0.134300 
      6 C           1.251000   -1.622000    2.181000 C.3       1 <1>        -0.096200 
      7 H           2.070000   -2.045000    2.786000 H         1 <1>         0.095800 
      8 H           1.147000   -0.559000    2.429000 H         1 <1>         0.147700 
      9 C          -0.171000   -2.194000    2.471000 C.3       1 <1>        -0.150700 
     10 H          -0.260000   -3.159000    1.971000 H         1 <1>         0.120500 
     11 H          -0.975000   -1.569000    2.020000 H         1 <1>         0.055600 
     12 C          -0.341000   -2.243000    4.023000 C.3       1 <1>        -0.210400 
     13 H          -1.051000   -3.020000    4.361000 H         1 <1>         0.077600 
     14 H           0.602000   -2.499000    4.547000 H         1 <1>         0.091000 
     15 C          -0.832000   -0.805000    4.391000 C.3       1 <1>         0.083400 
     16 H          -0.758000   -0.061000    3.574000 H         1 <1>         0.134700 
     17 H          -1.905000   -0.870000    4.623000 H         1 <1>         0.028800 
     18 N          -0.055000   -0.194000    5.483000 N.4       1 <1>        -0.374900 
     19 H          -0.408000    0.816000    5.651000 H         1 <1>         0.365300 
     20 H           0.997000   -0.156000    5.223000 H         1 <1>         0.501900 
     21 H          -0.161000   -0.678000    6.234000 H         1 <1>         0.388900 
     22 C           3.049000   -2.024000    0.400000 C.2       1 <1>         0.487400 
     23 O           3.446000   -3.147000    0.092000 O.2       1 <1>        -0.582200 
     24 N           3.827000   -0.929000    0.335000 N.am      1 <1>        -0.347000 
     25 C           5.213000   -0.954000   -0.103000 C.3       1 <1>         0.090400 
     26 H           5.210000   -1.298000   -1.150000 H         1 <1>         0.076600 
     27 C           5.680000    0.489000   -0.014000 C.3       1 <1>        -0.361300 
     28 H           6.546000    0.581000    0.656000 H         1 <1>         0.129800 
     29 H           6.025000    0.835000   -1.000000 H         1 <1>         0.115300 
     30 C           4.573000    1.306000    0.466000 C.3       1 <1>        -0.032200 
     31 H           4.344000    2.143000   -0.222000 H         1 <1>         0.058300 
     32 C           3.368000    0.408000    0.697000 C.3       1 <1>         0.041700 
     33 H           2.954000    0.365000    1.711000 H         1 <1>         0.018000 
     34 H           2.568000    0.759000    0.017000 H         1 <1>         0.078600 
     35 C           4.689000    1.857000    1.918000 C.ar      1 <1>         0.094000 
     36 C           5.013000    1.006000    2.987000 C.ar      1 <1>        -0.142600 
     37 H           5.398000    0.009000    2.807000 H         1 <1>         0.208800 
     38 C           4.798000    1.396000    4.312000 C.ar      1 <1>        -0.161700 
     39 H           4.965000    0.697000    5.130000 H         1 <1>         0.145500 
     40 C           4.350000    2.688000    4.588000 C.ar      1 <1>        -0.208300 
     41 H           4.150000    2.987000    5.615000 H         1 <1>         0.131300 
     42 C           4.154000    3.589000    3.539000 C.ar      1 <1>        -0.131700 
     43 H           3.828000    4.603000    3.757000 H         1 <1>         0.129100 
     44 C           4.358000    3.184000    2.216000 C.ar      1 <1>        -0.248200 
     45 H           4.225000    3.910000    1.422000 H         1 <1>         0.165800 
     46 C           6.048000   -1.945000    0.707000 C.2       1 <1>         0.864400 
     47 O           7.162000   -2.221000    0.287000 O.2       1 <1>        -0.872700 
     48 O           5.557000   -2.426000    1.853000 O.3       1 <1>        -1.128700 
     49 O           0.571000   -5.484000   -0.648000 O.3       1 <1>        -1.086600 
     50 C           1.626000   -5.220000    1.703000 C.3       1 <1>        -0.384800 
     51 H           0.986000   -4.815000    2.516000 H         1 <1>         0.097500 
     52 H           2.654000   -5.098000    2.089000 H         1 <1>         0.050100 
     53 C           1.141000   -6.690000    1.455000 C.3       1 <1>        -0.063100 
     54 H           1.144000   -7.186000    0.460000 H         1 <1>         0.082000 
     55 H           1.954000   -7.298000    1.891000 H         1 <1>        -0.024000 
     56 C          -0.265000   -6.964000    2.087000 C.3       1 <1>        -0.011100 
     57 H          -0.722000   -7.877000    1.658000 H         1 <1>        -0.016800 
     58 H           0.160000   -7.181000    3.068000 H         1 <1>         0.035200 
     59 C          -1.468000   -5.968000    2.388000 C.3       1 <1>        -0.241600 
     60 H          -1.221000   -4.937000    2.596000 H         1 <1>         0.127400 
     61 H          -2.231000   -5.989000    1.595000 H         1 <1>         0.113000 
     62 C          -2.120000   -6.343000    3.703000 C.ar      1 <1>         0.207100 
     63 C          -2.952000   -5.454000    4.393000 C.ar      1 <1>        -0.262300 
     64 H          -3.115000   -4.438000    4.027000 H         1 <1>         0.177700 
     65 C          -3.610000   -5.853000    5.562000 C.ar      1 <1>        -0.132800 
     66 H          -4.262000   -5.163000    6.092000 H         1 <1>         0.123300 
     67 C          -3.431000   -7.142000    6.070000 C.ar      1 <1>        -0.209200 
     68 H          -3.943000   -7.462000    6.972000 H         1 <1>         0.131700 
     69 C          -2.573000   -8.023000    5.411000 C.ar      1 <1>        -0.145500 
     70 H          -2.423000   -9.025000    5.809000 H         1 <1>         0.129900 
     71 C          -1.916000   -7.619000    4.245000 C.ar      1 <1>        -0.236000 
     72 H          -1.354000   -8.429000    3.795000 H         1 <1>         0.157500 
@<TRIPOS>BOND
     1    1    2 2    
     2    1    3 1    
     3    3    4 1    
     4    4    5 1    
     5    4    6 1    
     6    6    7 1    
     7    6    8 1    
     8    6    9 1    
     9    9   10 1    
    10    9   11 1    
    11    9   12 1    
    12   12   13 1    
    13   12   14 1    
    14   12   15 1    
    15   15   16 1    
    16   15   17 1    
    17   15   18 1    
    18   18   19 1    
    19   18   20 1    
    20   18   21 1    
    21    4   22 1    
    22   22   23 2    
    23   22   24 am   
    24   24   25 1    
    25   25   26 1    
    26   25   27 1    
    27   27   28 1    
    28   27   29 1    
    29   27   30 1    
    30   30   31 1    
    31   30   32 1    
    32   32   33 1    
    33   32   34 1    
    34   32   24 1    
    35   30   35 1    
    36   35   36 ar   
    37   36   37 1    
    38   36   38 ar   
    39   38   39 1    
    40   38   40 ar   
    41   40   41 1    
    42   40   42 ar   
    43   42   43 1    
    44   42   44 ar   
    45   44   45 1    
    46   44   35 ar   
    47   25   46 1    
    48   46   47 2    
    49   46   48 1    
    50    1   49 1    
    51    1   50 1    
    52   50   51 1    
    53   50   52 1    
    54   50   53 1    
    55   53   54 1    
    56   53   55 1    
    57   53   56 1    
    58   56   57 1    
    59   56   58 1    
    60   56   59 1    
    61   59   60 1    
    62   59   61 1    
    63   59   62 1    
    64   62   63 ar   
    65   63   64 1    
    66   63   65 ar   
    67   65   66 1    
    68   65   67 ar   
    69   67   68 1    
    70   67   69 ar   
    71   69   70 1    
    72   69   71 ar   
    73   71   72 1    
    74   71   62 ar   
@<TRIPOS>SUBSTRUCTURE
     1 ****        1 TEMP              0 ****  ****    0 ROOT 
@<TRIPOS>SET
UNITY_3DHIT     STATIC     ATOMS    <user>   **** Atoms matching 3D or FLEX Search
0
MATCH_ATOMS     DYNAMIC    ATOMS    <user>   **** 
(1,2,3,4,5,6,7,8,9,10,11,12,13,14,15,16,17,18,19,20,21,22,23,24,25,26,27,28,29,30,31,32)
ATOM$INVISIBLE  STATIC     ATOMS    DISPGROUP SYSTEM 
0
@<TRIPOS>UNITY_ATOM_ATTR
18 1
AtomExpr +1
48 1
AtomExpr -1
49 1
AtomExpr -1
