#	Name:			SQ29852_2K
#	Creating user name:	jeff
#	Creation time:		Wed Dec 11 13:20:54 2002

#	Modifying user name:	jeff
#	Modification time:	Wed Dec 11 13:20:54 2002

@<TRIPOS>MOLECULE
SQ29852_2K
   71    72     1     0     3
SMALL
USER_CHARGES
****
From 3DB ct
@<TRIPOS>ATOM
      1 P           0.201000   -4.556000    1.306000 P.3       1 <1>         1.680300 
      2 O           0.812000   -5.198000    2.502000 O.2       1 <1>        -1.090100 
      3 O           1.156000   -3.442000    0.664000 O.3       1 <1>        -0.871100 
      4 C           1.523000   -2.057000    0.750000 C.3       1 <1>         0.604300 
      5 H           0.950000   -1.553000   -0.020000 H         1 <1>        -0.092400 
      6 C           1.311000   -1.649000    2.232000 C.3       1 <1>        -0.237400 
      7 H           0.885000   -2.450000    2.854000 H         1 <1>         0.134400 
      8 H           2.260000   -1.399000    2.728000 H         1 <1>         0.102900 
      9 C           0.260000   -0.478000    2.235000 C.3       1 <1>        -0.339900 
     10 H          -0.756000   -0.882000    2.112000 H         1 <1>         0.132400 
     11 H           0.403000    0.165000    1.354000 H         1 <1>         0.063300 
     12 C           0.250000    0.464000    3.475000 C.3       1 <1>        -0.029100 
     13 H          -0.475000    0.096000    4.220000 H         1 <1>         0.074700 
     14 H           1.242000    0.496000    3.951000 H         1 <1>         0.134600 
     15 C          -0.140000    1.911000    3.045000 C.3       1 <1>         0.100300 
     16 H           0.682000    2.350000    2.451000 H         1 <1>         0.123900 
     17 H          -1.043000    1.877000    2.411000 H         1 <1>         0.090700 
     18 N          -0.439000    2.777000    4.203000 N.4       1 <1>        -0.455200 
     19 H          -0.707000    3.773000    3.870000 H         1 <1>         0.422300 
     20 H           0.414000    2.838000    4.864000 H         1 <1>         0.479100 
     21 H          -1.133000    2.426000    4.656000 H         1 <1>         0.431400 
     22 C           2.982000   -2.066000    0.333000 C.2       1 <1>         0.645400 
     23 O           3.463000   -3.151000    0.008000 O.2       1 <1>        -0.557000 
     24 N           3.740000   -0.955000    0.293000 N.am      1 <1>        -0.532500 
     25 C           3.290000    0.422000    0.658000 C.3       1 <1>         0.184500 
     26 H           2.611000    0.374000    1.502000 H         1 <1>         0.031900 
     27 C           4.292000    1.551000    1.119000 C.3       1 <1>        -0.183500 
     28 H           3.691000    2.312000    1.651000 H         1 <1>         0.022000 
     29 H           5.002000    1.130000    1.850000 H         1 <1>         0.127600 
     30 C           5.071000    2.393000    0.048000 C.3       1 <1>        -0.031700 
     31 H           6.001000    1.932000   -0.308000 H         1 <1>         0.090500 
     32 H           5.405000    3.341000    0.505000 H         1 <1>        -0.013200 
     33 C           4.205000    2.741000   -1.188000 C.3       1 <1>        -0.053700 
     34 H           3.451000    3.498000   -0.917000 H         1 <1>         0.015400 
     35 H           4.838000    3.165000   -1.988000 H         1 <1>         0.000900 
     36 C           3.488000    1.474000   -1.707000 C.3       1 <1>        -0.064200 
     37 H           2.906000    1.738000   -2.607000 H         1 <1>         0.006500 
     38 H           4.224000    0.713000   -2.008000 H         1 <1>         0.076800 
     39 C           2.534000    0.937000   -0.607000 C.3       1 <1>        -0.194100 
     40 H           1.953000    0.138000   -1.084000 H         1 <1>         0.061600 
     41 H           1.827000    1.735000   -0.327000 H         1 <1>         0.072800 
     42 C           5.131000   -1.096000   -0.167000 C.3       1 <1>        -0.058100 
     43 H           5.117000   -1.511000   -1.188000 H         1 <1>         0.074500 
     44 H           5.696000   -0.175000   -0.214000 H         1 <1>         0.029000 
     45 C           5.999000   -1.999000    0.673000 C.2       1 <1>         0.878300 
     46 O           7.164000   -2.187000    0.363000 O.2       1 <1>        -0.990700 
     47 O           5.443000   -2.640000    1.699000 O.3       1 <1>        -1.077400 
     48 O           0.085000   -5.521000    0.035000 O.3       1 <1>        -1.037000 
     49 C          -1.535000   -4.088000    1.619000 C.3       1 <1>        -0.535800 
     50 H          -1.570000   -3.021000    1.856000 H         1 <1>         0.048900 
     51 H          -1.886000   -4.639000    2.506000 H         1 <1>         0.084200 
     52 C          -2.453000   -4.447000    0.420000 C.3       1 <1>         0.038800 
     53 H          -2.019000   -4.148000   -0.545000 H         1 <1>         0.038200 
     54 H          -2.618000   -5.539000    0.403000 H         1 <1>         0.020900 
     55 C          -3.799000   -3.720000    0.586000 C.3       1 <1>         0.005600 
     56 H          -4.606000   -4.266000    0.028000 H         1 <1>        -0.015500 
     57 H          -4.095000   -3.898000    1.635000 H         1 <1>        -0.002900 
     58 C          -3.598000   -2.153000    0.460000 C.3       1 <1>        -0.004700 
     59 H          -3.917000   -2.443000   -0.550000 H         1 <1>        -0.021900 
     60 H          -4.422000   -1.728000    1.058000 H         1 <1>         0.003400 
     61 C          -3.238000   -0.995000   -0.481000 C.ar      1 <1>        -0.005100 
     62 C          -1.928000   -0.637000   -0.832000 C.ar      1 <1>        -0.171000 
     63 H          -1.129000   -1.165000   -0.357000 H         1 <1>         0.208700 
     64 C          -1.693000    0.349000   -1.794000 C.ar      1 <1>        -0.070900 
     65 H          -0.672000    0.591000   -2.075000 H         1 <1>         0.108500 
     66 C          -2.763000    1.020000   -2.390000 C.ar      1 <1>        -0.183900 
     67 H          -2.576000    1.780000   -3.145000 H         1 <1>         0.137500 
     68 C          -4.071000    0.711000   -2.008000 C.ar      1 <1>        -0.185900 
     69 H          -4.907000    1.245000   -2.453000 H         1 <1>         0.137600 
     70 C          -4.301000   -0.285000   -1.054000 C.ar      1 <1>        -0.190900 
     71 H          -5.329000   -0.495000   -0.773000 H         1 <1>         0.150500 
@<TRIPOS>BOND
     1    1    2 2    
     2    1    3 1    
     3    3    4 1    
     4    4    5 1    
     5    4    6 1    
     6    6    7 1    
     7    6    8 1    
     8    6    9 1    
     9    9   10 1    
    10    9   11 1    
    11    9   12 1    
    12   12   13 1    
    13   12   14 1    
    14   12   15 1    
    15   15   16 1    
    16   15   17 1    
    17   15   18 1    
    18   18   19 1    
    19   18   20 1    
    20   18   21 1    
    21    4   22 1    
    22   22   23 2    
    23   22   24 am   
    24   24   25 1    
    25   25   26 1    
    26   25   27 1    
    27   27   28 1    
    28   27   29 1    
    29   27   30 1    
    30   30   31 1    
    31   30   32 1    
    32   30   33 1    
    33   33   34 1    
    34   33   35 1    
    35   33   36 1    
    36   36   37 1    
    37   36   38 1    
    38   36   39 1    
    39   39   40 1    
    40   39   41 1    
    41   39   25 1    
    42   24   42 1    
    43   42   43 1    
    44   42   44 1    
    45   42   45 1    
    46   45   46 2    
    47   45   47 1    
    48    1   48 1    
    49    1   49 1    
    50   49   50 1    
    51   49   51 1    
    52   49   52 1    
    53   52   53 1    
    54   52   54 1    
    55   52   55 1    
    56   55   56 1    
    57   55   57 1    
    58   55   58 1    
    59   58   59 1    
    60   58   60 1    
    61   58   61 1    
    62   61   62 ar   
    63   62   63 1    
    64   62   64 ar   
    65   64   65 1    
    66   64   66 ar   
    67   66   67 1    
    68   66   68 ar   
    69   68   69 1    
    70   68   70 ar   
    71   70   71 1    
    72   70   61 ar   
@<TRIPOS>SUBSTRUCTURE
     1 ****        1 TEMP              0 ****  ****    0 ROOT 
@<TRIPOS>SET
UNITY_3DHIT     STATIC     ATOMS    <user>   **** Atoms matching 3D or FLEX Search
0
MATCH_ATOMS     DYNAMIC    ATOMS    <user>   **** 
(1,2,3,4,5,6,7,8,9,10,11,12,13,14,15,16,17,18,19,20,21,22,23,24,25,26,27,28,29,30,31,32)
ATOM$INVISIBLE  STATIC     ATOMS    DISPGROUP SYSTEM 
0
@<TRIPOS>UNITY_ATOM_ATTR
18 1
AtomExpr +1
47 1
AtomExpr -1
48 1
AtomExpr -1
