#	Name:			SQ29852_2T
#	Creating user name:	jeff
#	Creation time:		Wed Dec 11 13:20:54 2002

#	Modifying user name:	jeff
#	Modification time:	Wed Dec 11 13:20:54 2002

@<TRIPOS>MOLECULE
SQ29852_2T
   73    75     1     0     3
SMALL
USER_CHARGES
****
From 3DB ct
@<TRIPOS>ATOM
      1 S           5.094000    1.409000    2.328000 S.3       1 <1>        -0.205800 
      2 C           4.553000    1.307000    0.481000 C.3       1 <1>         0.037800 
      3 H           4.329000    2.281000   -0.009000 H         1 <1>         0.098400 
      4 C           3.365000    0.396000    0.742000 C.3       1 <1>        -0.232600 
      5 H           2.857000    0.571000    1.714000 H         1 <1>         0.142200 
      6 H           2.629000    0.682000   -0.037000 H         1 <1>         0.146500 
      7 N           3.828000   -0.935000    0.358000 N.am      1 <1>        -0.320100 
      8 C           5.199000   -0.943000   -0.121000 C.3       1 <1>         0.066200 
      9 H           5.177000   -1.305000   -1.162000 H         1 <1>         0.085200 
     10 C           5.654000    0.505000   -0.038000 C.3       1 <1>        -0.358500 
     11 H           6.600000    0.577000    0.549000 H         1 <1>         0.153100 
     12 H           5.980000    0.813000   -1.066000 H         1 <1>         0.110300 
     13 C           6.053000   -1.925000    0.708000 C.2       1 <1>         0.867900 
     14 O           7.160000   -2.224000    0.291000 O.2       1 <1>        -0.876100 
     15 O           5.580000   -2.427000    1.847000 O.3       1 <1>        -1.092900 
     16 C           3.063000   -2.039000    0.440000 C.2       1 <1>         0.595600 
     17 O           3.462000   -3.156000    0.114000 O.2       1 <1>        -0.602300 
     18 C           1.572000   -1.876000    0.630000 C.3       1 <1>         0.029700 
     19 H           1.128000   -1.044000    0.076000 H         1 <1>         0.132500 
     20 O           1.408000   -3.081000   -0.436000 O.3       1 <1>        -0.507400 
     21 P           2.228000   -4.434000   -1.182000 P.3       1 <1>         1.566000 
     22 O           2.995000   -4.779000   -2.417000 O.2       1 <1>        -1.099400 
     23 O           1.055000   -5.503000   -1.380000 O.3       1 <1>        -1.076200 
     24 C           2.048000   -5.492000    0.546000 C.3       1 <1>        -0.436100 
     25 H           1.771000   -4.721000    1.280000 H         1 <1>         0.087900 
     26 H           2.995000   -5.918000    0.944000 H         1 <1>         0.062200 
     27 C           0.911000   -6.547000    1.044000 C.3       1 <1>        -0.015300 
     28 H           0.064000   -6.667000    0.355000 H         1 <1>         0.056700 
     29 H           1.380000   -7.561000    1.079000 H         1 <1>        -0.033800 
     30 C           0.105000   -6.370000    2.420000 C.3       1 <1>         0.093100 
     31 H           0.231000   -7.343000    2.919000 H         1 <1>        -0.043600 
     32 H           0.613000   -5.708000    3.127000 H         1 <1>         0.016900 
     33 C          -1.449000   -5.970000    2.392000 C.3       1 <1>        -0.361900 
     34 H          -1.588000   -4.912000    2.154000 H         1 <1>         0.156100 
     35 H          -1.969000   -6.566000    1.627000 H         1 <1>         0.095700 
     36 C          -2.117000   -6.334000    3.710000 C.ar      1 <1>         0.242100 
     37 C          -1.939000   -7.627000    4.222000 C.ar      1 <1>        -0.290700 
     38 H          -1.405000   -8.422000    3.738000 H         1 <1>         0.190900 
     39 C          -2.576000   -8.011000    5.408000 C.ar      1 <1>        -0.142400 
     40 H          -2.459000   -9.009000    5.826000 H         1 <1>         0.125500 
     41 C          -3.407000   -7.117000    6.090000 C.ar      1 <1>        -0.164100 
     42 H          -3.920000   -7.408000    7.012000 H         1 <1>         0.120300 
     43 C          -3.607000   -5.836000    5.572000 C.ar      1 <1>        -0.205700 
     44 H          -4.274000   -5.145000    6.097000 H         1 <1>         0.141500 
     45 C          -2.975000   -5.455000    4.386000 C.ar      1 <1>        -0.218200 
     46 H          -3.170000   -4.459000    4.001000 H         1 <1>         0.187000 
     47 C           1.302000   -1.675000    2.193000 C.3       1 <1>        -0.362000 
     48 H           1.944000   -2.558000    2.448000 H         1 <1>         0.146800 
     49 H           1.800000   -0.877000    2.780000 H         1 <1>         0.263700 
     50 C           0.006000   -2.307000    2.774000 C.3       1 <1>         0.089000 
     51 H          -0.271000   -3.106000    2.076000 H         1 <1>         0.033700 
     52 H          -0.844000   -1.612000    2.822000 H         1 <1>         0.021900 
     53 C           0.283000   -2.917000    4.188000 C.3       1 <1>        -0.292700 
     54 H          -0.634000   -3.378000    4.598000 H         1 <1>         0.086500 
     55 H           1.058000   -3.697000    4.099000 H         1 <1>         0.122200 
     56 C           0.826000   -1.830000    5.157000 C.3       1 <1>         0.056900 
     57 H           1.844000   -1.501000    4.894000 H         1 <1>         0.151900 
     58 H           0.142000   -0.964000    5.121000 H         1 <1>         0.037700 
     59 N           1.006000   -2.314000    6.536000 N.4       1 <1>        -0.367200 
     60 H           1.358000   -1.493000    7.152000 H         1 <1>         0.376500 
     61 H           1.745000   -3.108000    6.553000 H         1 <1>         0.441200 
     62 H           0.223000   -2.620000    6.856000 H         1 <1>         0.388600 
     63 C           5.095000    3.033000    3.112000 C.ar      1 <1>         0.117000 
     64 C           5.026000    4.179000    2.322000 C.ar      1 <1>        -0.243200 
     65 H           4.820000    4.077000    1.266000 H         1 <1>         0.170800 
     66 C           5.230000    5.443000    2.887000 C.ar      1 <1>        -0.158900 
     67 H           5.216000    6.325000    2.257000 H         1 <1>         0.143500 
     68 C           5.463000    5.584000    4.258000 C.ar      1 <1>        -0.137800 
     69 H           5.671000    6.564000    4.686000 H         1 <1>         0.134100 
     70 C           5.426000    4.450000    5.074000 C.ar      1 <1>        -0.196500 
     71 H           5.582000    4.564000    6.146000 H         1 <1>         0.151600 
     72 C           5.196000    3.186000    4.508000 C.ar      1 <1>        -0.107600 
     73 H           5.099000    2.332000    5.173000 H         1 <1>         0.186000 
@<TRIPOS>BOND
     1    1    2 1    
     2    2    3 1    
     3    2    4 1    
     4    4    5 1    
     5    4    6 1    
     6    4    7 1    
     7    7    8 1    
     8    8    9 1    
     9    8   10 1    
    10   10   11 1    
    11   10   12 1    
    12   10    2 1    
    13    8   13 1    
    14   13   14 2    
    15   13   15 1    
    16    7   16 am   
    17   16   17 2    
    18   16   18 1    
    19   18   19 1    
    20   18   20 1    
    21   20   21 1    
    22   21   22 2    
    23   21   23 1    
    24   21   24 1    
    25   24   25 1    
    26   24   26 1    
    27   24   27 1    
    28   27   28 1    
    29   27   29 1    
    30   27   30 1    
    31   30   31 1    
    32   30   32 1    
    33   30   33 1    
    34   33   34 1    
    35   33   35 1    
    36   33   36 1    
    37   36   37 ar   
    38   37   38 1    
    39   37   39 ar   
    40   39   40 1    
    41   39   41 ar   
    42   41   42 1    
    43   41   43 ar   
    44   43   44 1    
    45   43   45 ar   
    46   45   46 1    
    47   45   36 ar   
    48   18   47 1    
    49   47   48 1    
    50   47   49 1    
    51   47   50 1    
    52   50   51 1    
    53   50   52 1    
    54   50   53 1    
    55   53   54 1    
    56   53   55 1    
    57   53   56 1    
    58   56   57 1    
    59   56   58 1    
    60   56   59 1    
    61   59   60 1    
    62   59   61 1    
    63   59   62 1    
    64    1   63 1    
    65   63   64 ar   
    66   64   65 1    
    67   64   66 ar   
    68   66   67 1    
    69   66   68 ar   
    70   68   69 1    
    71   68   70 ar   
    72   70   71 1    
    73   70   72 ar   
    74   72   73 1    
    75   72   63 ar   
@<TRIPOS>SUBSTRUCTURE
     1 ****        1 TEMP              0 ****  ****    0 ROOT 
@<TRIPOS>SET
UNITY_3DHIT     STATIC     ATOMS    <user>   **** Atoms matching 3D or FLEX Search
0
MATCH_ATOMS     DYNAMIC    ATOMS    <user>   **** 
(1,2,3,4,5,6,7,8,9,10,11,12,13,14,15,16,17,18,19,20,21,22,23,24,25,26,27,28,29,30,31,32)
ATOM$INVISIBLE  STATIC     ATOMS    DISPGROUP SYSTEM 
0
@<TRIPOS>UNITY_ATOM_ATTR
15 1
AtomExpr -1
23 1
AtomExpr -1
59 1
AtomExpr +1
