#	Name:			SQ29852_2Y
#	Creating user name:	jeff
#	Creation time:		Wed Dec 11 13:20:55 2002

#	Modifying user name:	jeff
#	Modification time:	Wed Dec 11 13:20:55 2002

@<TRIPOS>MOLECULE
SQ29852_2Y
   63    64     1     0     3
SMALL
USER_CHARGES
****
From 3DB ct
@<TRIPOS>ATOM
      1 P           0.695000   -4.573000    1.162000 P.3       1 <1>         1.568700 
      2 O           1.833000   -4.973000    2.035000 O.2       1 <1>        -1.014400 
      3 O           0.837000   -3.183000    0.394000 O.3       1 <1>        -0.635400 
      4 C           1.528000   -2.006000    0.743000 C.3       1 <1>         0.416800 
      5 H           1.105000   -1.223000    0.111000 H         1 <1>        -0.203200 
      6 C           1.339000   -1.665000    2.244000 C.3       1 <1>        -0.215000 
      7 H           1.290000   -2.617000    2.789000 H         1 <1>         0.115400 
      8 H           2.235000   -1.231000    2.697000 H         1 <1>         0.114400 
      9 C           0.128000   -0.809000    2.705000 C.3       1 <1>        -0.104400 
     10 H          -0.119000   -1.107000    3.741000 H         1 <1>         0.058400 
     11 H          -0.679000   -1.102000    2.048000 H         1 <1>         0.060400 
     12 C           0.211000    0.749000    2.679000 C.3       1 <1>        -0.096300 
     13 H          -0.361000    1.154000    3.532000 H         1 <1>         0.023800 
     14 H           1.239000    1.106000    2.810000 H         1 <1>         0.070600 
     15 C          -0.450000    1.366000    1.417000 C.3       1 <1>         0.104500 
     16 H           0.056000    1.015000    0.507000 H         1 <1>         0.190100 
     17 H          -1.506000    1.051000    1.378000 H         1 <1>         0.093400 
     18 N          -0.421000    2.841000    1.487000 N.4       1 <1>        -0.377300 
     19 H          -0.989000    3.271000    0.673000 H         1 <1>         0.379100 
     20 H           0.596000    3.203000    1.447000 H         1 <1>         0.426000 
     21 H          -0.790000    3.101000    2.266000 H         1 <1>         0.427100 
     22 C           2.999000   -2.057000    0.336000 C.2       1 <1>         0.536800 
     23 O           3.409000   -3.174000    0.023000 O.2       1 <1>        -0.465200 
     24 N           3.768000   -0.954000    0.289000 N.am      1 <1>        -0.468000 
     25 C           5.158000   -0.963000   -0.135000 C.3       1 <1>         0.039700 
     26 H           5.170000   -1.325000   -1.179000 H         1 <1>         0.095100 
     27 C           5.610000    0.484000   -0.029000 C.3       1 <1>        -0.301600 
     28 H           6.512000    0.577000    0.600000 H         1 <1>         0.119600 
     29 H           5.925000    0.789000   -1.045000 H         1 <1>         0.069200 
     30 C           4.491000    1.287000    0.447000 C.3       1 <1>         0.309300 
     31 H           4.792000    1.848000    1.354000 H         1 <1>         0.083700 
     32 C           3.292000    0.376000    0.658000 C.3       1 <1>        -0.038000 
     33 H           3.084000    0.469000    1.721000 H         1 <1>         0.081200 
     34 H           2.436000    0.708000    0.054000 H         1 <1>         0.076800 
     35 O           4.247000    2.278000   -0.579000 O.3       1 <1>        -0.761200 
     36 H           3.604000    2.938000   -0.349000 H         1 <1>         0.411900 
     37 C           5.998000   -1.980000    0.679000 C.2       1 <1>         0.769000 
     38 O           7.153000   -2.189000    0.341000 O.2       1 <1>        -0.941000 
     39 O           5.448000   -2.633000    1.699000 O.3       1 <1>        -0.987800 
     40 O           0.523000   -5.476000   -0.149000 O.3       1 <1>        -1.060200 
     41 C          -0.945000   -4.489000    1.979000 C.3       1 <1>        -0.577300 
     42 H          -0.809000   -3.787000    2.816000 H         1 <1>         0.067300 
     43 H          -1.229000   -5.485000    2.365000 H         1 <1>         0.114800 
     44 C          -1.970000   -3.954000    0.939000 C.3       1 <1>         0.051800 
     45 H          -1.490000   -3.503000    0.058000 H         1 <1>         0.047900 
     46 H          -2.581000   -4.787000    0.547000 H         1 <1>        -0.037600 
     47 C          -2.890000   -2.890000    1.574000 C.3       1 <1>         0.216800 
     48 H          -3.621000   -3.463000    2.175000 H         1 <1>        -0.009700 
     49 H          -2.470000   -2.172000    2.278000 H         1 <1>        -0.096900 
     50 C          -3.631000   -2.150000    0.448000 C.3       1 <1>        -0.443900 
     51 H          -4.098000   -2.904000   -0.208000 H         1 <1>         0.133300 
     52 H          -4.465000   -1.687000    1.010000 H         1 <1>         0.081800 
     53 C          -3.261000   -0.991000   -0.471000 C.ar      1 <1>         0.157400 
     54 C          -4.301000   -0.336000   -1.148000 C.ar      1 <1>        -0.261200 
     55 H          -5.336000   -0.611000   -0.964000 H         1 <1>         0.162400 
     56 C          -4.030000    0.684000   -2.067000 C.ar      1 <1>        -0.214900 
     57 H          -4.854000    1.197000   -2.554000 H         1 <1>         0.149200 
     58 C          -2.711000    1.048000   -2.352000 C.ar      1 <1>        -0.198400 
     59 H          -2.513000    1.847000   -3.060000 H         1 <1>         0.153100 
     60 C          -1.666000    0.368000   -1.724000 C.ar      1 <1>        -0.215300 
     61 H          -0.640000    0.618000   -1.973000 H         1 <1>         0.195800 
     62 C          -1.942000   -0.636000   -0.792000 C.ar      1 <1>        -0.090400 
     63 H          -1.134000   -1.172000   -0.324000 H         1 <1>         0.220100 
@<TRIPOS>BOND
     1    1    2 2    
     2    1    3 1    
     3    3    4 1    
     4    4    5 1    
     5    4    6 1    
     6    6    7 1    
     7    6    8 1    
     8    6    9 1    
     9    9   10 1    
    10    9   11 1    
    11    9   12 1    
    12   12   13 1    
    13   12   14 1    
    14   12   15 1    
    15   15   16 1    
    16   15   17 1    
    17   15   18 1    
    18   18   19 1    
    19   18   20 1    
    20   18   21 1    
    21    4   22 1    
    22   22   23 2    
    23   22   24 am   
    24   24   25 1    
    25   25   26 1    
    26   25   27 1    
    27   27   28 1    
    28   27   29 1    
    29   27   30 1    
    30   30   31 1    
    31   30   32 1    
    32   32   33 1    
    33   32   34 1    
    34   32   24 1    
    35   30   35 1    
    36   35   36 1    
    37   25   37 1    
    38   37   38 2    
    39   37   39 1    
    40    1   40 1    
    41    1   41 1    
    42   41   42 1    
    43   41   43 1    
    44   41   44 1    
    45   44   45 1    
    46   44   46 1    
    47   44   47 1    
    48   47   48 1    
    49   47   49 1    
    50   47   50 1    
    51   50   51 1    
    52   50   52 1    
    53   50   53 1    
    54   53   54 ar   
    55   54   55 1    
    56   54   56 ar   
    57   56   57 1    
    58   56   58 ar   
    59   58   59 1    
    60   58   60 ar   
    61   60   61 1    
    62   60   62 ar   
    63   62   63 1    
    64   62   53 ar   
@<TRIPOS>SUBSTRUCTURE
     1 ****        1 TEMP              0 ****  ****    0 ROOT 
@<TRIPOS>SET
UNITY_3DHIT     STATIC     ATOMS    <user>   **** Atoms matching 3D or FLEX Search
0
MATCH_ATOMS     DYNAMIC    ATOMS    <user>   **** 
(1,2,3,4,5,6,7,8,9,10,11,12,13,14,15,16,17,18,19,20,21,22,23,24,25,26,27,28,29,30,31,32)
ATOM$INVISIBLE  STATIC     ATOMS    DISPGROUP SYSTEM 
0
@<TRIPOS>UNITY_ATOM_ATTR
18 1
AtomExpr +1
39 1
AtomExpr -1
40 1
AtomExpr -1
