#	Name:			SQ29852_2V
#	Creating user name:	jeff
#	Creation time:		Wed Dec 11 13:20:54 2002

#	Modifying user name:	jeff
#	Modification time:	Wed Dec 11 13:20:54 2002

@<TRIPOS>MOLECULE
SQ29852_2V
   66    67     1     0     3
SMALL
USER_CHARGES
****
From 3DB ct
@<TRIPOS>ATOM
      1 S           4.932000    2.225000    1.947000 S.3       1 <1>        -0.326300 
      2 C           4.517000    1.257000    0.434000 C.3       1 <1>         0.160100 
      3 H           4.264000    2.012000   -0.334000 H         1 <1>         0.077300 
      4 C           3.309000    0.362000    0.652000 C.3       1 <1>        -0.272500 
      5 H           2.987000    0.522000    1.677000 H         1 <1>         0.158800 
      6 H           2.511000    0.677000   -0.038000 H         1 <1>         0.150800 
      7 N           3.767000   -0.975000    0.282000 N.am      1 <1>        -0.502500 
      8 C           5.154000   -1.001000   -0.148000 C.3       1 <1>         0.105100 
      9 H           5.169000   -1.342000   -1.198000 H         1 <1>         0.077300 
     10 C           5.625000    0.441000   -0.046000 C.3       1 <1>        -0.338900 
     11 H           6.469000    0.495000    0.664000 H         1 <1>         0.138300 
     12 H           6.014000    0.792000   -1.020000 H         1 <1>         0.110400 
     13 C           6.001000   -1.989000    0.675000 C.2       1 <1>         0.886000 
     14 O           7.161000   -2.185000    0.353000 O.2       1 <1>        -0.870300 
     15 O           5.439000   -2.636000    1.694000 O.3       1 <1>        -1.092600 
     16 C           2.985000   -2.068000    0.335000 C.2       1 <1>         0.763100 
     17 O           3.380000   -3.190000    0.022000 O.2       1 <1>        -0.604100 
     18 C           1.525000   -1.985000    0.748000 C.3       1 <1>         0.327800 
     19 H           1.147000   -1.128000    0.183000 H         1 <1>         0.057700 
     20 O           0.624000   -2.961000    0.346000 O.3       1 <1>        -0.744300 
     21 P           0.233000   -4.253000    1.166000 P.3       1 <1>         1.616600 
     22 O           1.242000   -5.352000    1.157000 O.2       1 <1>        -1.073500 
     23 O          -0.510000   -4.311000   -0.250000 O.3       1 <1>        -1.043800 
     24 C          -1.511000   -4.597000    1.725000 C.3       1 <1>        -0.328300 
     25 H          -1.747000   -3.874000    2.520000 H         1 <1>         0.019900 
     26 H          -1.408000   -5.593000    2.195000 H         1 <1>         0.043100 
     27 C          -2.736000   -4.706000    0.719000 C.3       1 <1>        -0.150700 
     28 H          -2.535000   -5.566000    0.047000 H         1 <1>         0.070400 
     29 H          -3.626000   -4.976000    1.309000 H         1 <1>         0.004300 
     30 C          -3.135000   -3.498000   -0.219000 C.3       1 <1>        -0.027900 
     31 H          -2.348000   -3.263000   -0.948000 H         1 <1>         0.071500 
     32 H          -3.980000   -3.832000   -0.846000 H         1 <1>        -0.005600 
     33 C          -3.571000   -2.159000    0.454000 C.3       1 <1>         0.006400 
     34 H          -4.632000   -2.212000    0.742000 H         1 <1>         0.022800 
     35 H          -3.000000   -2.012000    1.376000 H         1 <1>         0.025500 
     36 C          -3.264000   -0.988000   -0.476000 C.ar      1 <1>        -0.030800 
     37 C          -4.311000   -0.322000   -1.135000 C.ar      1 <1>        -0.224800 
     38 H          -5.342000   -0.589000   -0.936000 H         1 <1>         0.154600 
     39 C          -4.035000    0.695000   -2.060000 C.ar      1 <1>        -0.161200 
     40 H          -4.857000    1.223000   -2.546000 H         1 <1>         0.129500 
     41 C          -2.717000    1.043000   -2.360000 C.ar      1 <1>        -0.176100 
     42 H          -2.505000    1.843000   -3.074000 H         1 <1>         0.133800 
     43 C          -1.668000    0.367000   -1.727000 C.ar      1 <1>        -0.215900 
     44 H          -0.635000    0.630000   -1.948000 H         1 <1>         0.144400 
     45 C          -1.948000   -0.640000   -0.799000 C.ar      1 <1>         0.002700 
     46 H          -1.135000   -1.172000   -0.339000 H         1 <1>         0.135200 
     47 C           1.331000   -1.674000    2.250000 C.3       1 <1>        -0.186300 
     48 H           1.535000   -2.639000    2.740000 H         1 <1>         0.074600 
     49 H           2.097000   -1.071000    2.737000 H         1 <1>         0.075500 
     50 C          -0.075000   -1.186000    2.725000 C.3       1 <1>        -0.020200 
     51 H          -0.339000   -1.743000    3.641000 H         1 <1>         0.038900 
     52 H          -0.840000   -1.430000    1.982000 H         1 <1>         0.016000 
     53 C          -0.164000    0.323000    3.111000 C.3       1 <1>        -0.227900 
     54 H          -1.077000    0.496000    3.708000 H         1 <1>         0.032200 
     55 H           0.695000    0.592000    3.745000 H         1 <1>         0.142700 
     56 C          -0.247000    1.277000    1.891000 C.3       1 <1>         0.276500 
     57 H           0.563000    1.064000    1.184000 H         1 <1>         0.032000 
     58 H          -1.206000    1.115000    1.372000 H         1 <1>         0.030500 
     59 N          -0.167000    2.689000    2.326000 N.4       1 <1>        -0.750600 
     60 H          -0.294000    3.354000    1.481000 H         1 <1>         0.525200 
     61 H           0.787000    2.891000    2.795000 H         1 <1>         0.567800 
     62 H          -0.823000    2.847000    2.922000 H         1 <1>         0.438000 
     63 C           5.427000    3.825000    1.234000 C.3       1 <1>        -0.217900 
     64 H           5.721000    4.502000    2.050000 H         1 <1>         0.100700 
     65 H           4.583000    4.271000    0.685000 H         1 <1>         0.083100 
     66 H           6.279000    3.682000    0.552000 H         1 <1>         0.144000 
@<TRIPOS>BOND
     1    1    2 1    
     2    2    3 1    
     3    2    4 1    
     4    4    5 1    
     5    4    6 1    
     6    4    7 1    
     7    7    8 1    
     8    8    9 1    
     9    8   10 1    
    10   10   11 1    
    11   10   12 1    
    12   10    2 1    
    13    8   13 1    
    14   13   14 2    
    15   13   15 1    
    16    7   16 am   
    17   16   17 2    
    18   16   18 1    
    19   18   19 1    
    20   18   20 1    
    21   20   21 1    
    22   21   22 2    
    23   21   23 1    
    24   21   24 1    
    25   24   25 1    
    26   24   26 1    
    27   24   27 1    
    28   27   28 1    
    29   27   29 1    
    30   27   30 1    
    31   30   31 1    
    32   30   32 1    
    33   30   33 1    
    34   33   34 1    
    35   33   35 1    
    36   33   36 1    
    37   36   37 ar   
    38   37   38 1    
    39   37   39 ar   
    40   39   40 1    
    41   39   41 ar   
    42   41   42 1    
    43   41   43 ar   
    44   43   44 1    
    45   43   45 ar   
    46   45   46 1    
    47   45   36 ar   
    48   18   47 1    
    49   47   48 1    
    50   47   49 1    
    51   47   50 1    
    52   50   51 1    
    53   50   52 1    
    54   50   53 1    
    55   53   54 1    
    56   53   55 1    
    57   53   56 1    
    58   56   57 1    
    59   56   58 1    
    60   56   59 1    
    61   59   60 1    
    62   59   61 1    
    63   59   62 1    
    64    1   63 1    
    65   63   64 1    
    66   63   65 1    
    67   63   66 1    
@<TRIPOS>SUBSTRUCTURE
     1 ****        1 TEMP              0 ****  ****    0 ROOT 
@<TRIPOS>SET
UNITY_3DHIT     STATIC     ATOMS    <user>   **** Atoms matching 3D or FLEX Search
0
MATCH_ATOMS     DYNAMIC    ATOMS    <user>   **** 
(1,2,3,4,5,6,7,8,9,10,11,12,13,14,15,16,17,18,19,20,21,22,23,24,25,26,27,28,29,30,31,32)
ATOM$INVISIBLE  STATIC     ATOMS    DISPGROUP SYSTEM 
0
@<TRIPOS>UNITY_ATOM_ATTR
15 1
AtomExpr -1
23 1
AtomExpr -1
59 1
AtomExpr +1
