#	Name:			SQ29852_2S
#	Creating user name:	jeff
#	Creation time:		Wed Dec 11 13:20:54 2002

#	Modifying user name:	jeff
#	Modification time:	Wed Dec 11 13:20:54 2002

@<TRIPOS>MOLECULE
SQ29852_2S
   73    75     1     0     3
SMALL
USER_CHARGES
****
From 3DB ct
@<TRIPOS>ATOM
      1 S           4.383000    2.775000   -0.540000 S.3       1 <1>        -0.245600 
      2 C           4.579000    1.241000    0.436000 C.3       1 <1>        -0.016100 
      3 H           4.891000    1.643000    1.423000 H         1 <1>         0.164300 
      4 C           3.359000    0.364000    0.663000 C.3       1 <1>         0.275800 
      5 H           3.161000    0.382000    1.737000 H         1 <1>        -0.114600 
      6 H           2.523000    0.729000    0.050000 H         1 <1>         0.079900 
      7 N           3.791000   -0.978000    0.285000 N.am      1 <1>        -0.622900 
      8 C           5.174000   -1.025000   -0.160000 C.3       1 <1>         0.117600 
      9 H           5.180000   -1.383000   -1.205000 H         1 <1>         0.079500 
     10 C           5.669000    0.409000   -0.058000 C.3       1 <1>        -0.332000 
     11 H           6.575000    0.464000    0.578000 H         1 <1>         0.163800 
     12 H           5.981000    0.722000   -1.064000 H         1 <1>         0.080500 
     13 C           5.995000   -2.007000    0.661000 C.2       1 <1>         0.764900 
     14 O           7.162000   -2.188000    0.355000 O.2       1 <1>        -0.950600 
     15 O           5.453000   -2.615000    1.713000 O.3       1 <1>        -0.996200 
     16 C           2.993000   -2.059000    0.341000 C.2       1 <1>         0.602900 
     17 O           3.366000   -3.186000    0.020000 O.2       1 <1>        -0.512000 
     18 C           1.522000   -2.002000    0.746000 C.3       1 <1>         0.436700 
     19 H           1.180000   -1.168000    0.126000 H         1 <1>        -0.172400 
     20 O           0.620000   -3.058000    0.409000 O.3       1 <1>        -0.680700 
     21 P           0.365000   -4.406000    1.223000 P.3       1 <1>         1.615000 
     22 O           1.629000   -4.809000    1.904000 O.2       1 <1>        -1.049800 
     23 O           0.120000   -5.442000    0.026000 O.3       1 <1>        -1.047200 
     24 C          -1.056000   -4.385000    2.436000 C.3       1 <1>        -0.515900 
     25 H          -0.779000   -3.733000    3.277000 H         1 <1>         0.033600 
     26 H          -0.984000   -5.422000    2.808000 H         1 <1>         0.089100 
     27 C          -2.583000   -4.141000    2.153000 C.3       1 <1>        -0.022700 
     28 H          -2.904000   -4.853000    1.377000 H         1 <1>         0.082600 
     29 H          -3.093000   -4.441000    3.086000 H         1 <1>        -0.031800 
     30 C          -3.104000   -2.689000    1.807000 C.3       1 <1>         0.048200 
     31 H          -4.164000   -2.615000    2.115000 H         1 <1>        -0.048800 
     32 H          -2.547000   -1.938000    2.386000 H         1 <1>         0.014700 
     33 C          -3.091000   -2.404000    0.273000 C.3       1 <1>        -0.236200 
     34 H          -2.143000   -2.876000   -0.012000 H         1 <1>         0.134500 
     35 H          -3.853000   -3.043000   -0.193000 H         1 <1>         0.090700 
     36 C          -3.158000   -1.017000   -0.465000 C.ar      1 <1>         0.153400 
     37 C          -4.285000   -0.395000   -1.025000 C.ar      1 <1>        -0.271900 
     38 H          -5.276000   -0.738000   -0.744000 H         1 <1>         0.187900 
     39 C          -4.147000    0.651000   -1.944000 C.ar      1 <1>        -0.144500 
     40 H          -5.030000    1.137000   -2.351000 H         1 <1>         0.133700 
     41 C          -2.879000    1.074000   -2.350000 C.ar      1 <1>        -0.249700 
     42 H          -2.768000    1.895000   -3.056000 H         1 <1>         0.148500 
     43 C          -1.749000    0.428000   -1.842000 C.ar      1 <1>        -0.201600 
     44 H          -0.756000    0.730000   -2.169000 H         1 <1>         0.164800 
     45 C          -1.894000   -0.601000   -0.906000 C.ar      1 <1>        -0.164900 
     46 H          -0.993000   -1.074000   -0.549000 H         1 <1>         0.185400 
     47 C           1.319000   -1.649000    2.241000 C.3       1 <1>        -0.184300 
     48 H           1.109000   -2.540000    2.836000 H         1 <1>         0.134900 
     49 H           2.241000   -1.300000    2.722000 H         1 <1>         0.114400 
     50 C           0.164000   -0.605000    2.507000 C.3       1 <1>        -0.235500 
     51 H          -0.381000   -0.874000    3.428000 H         1 <1>         0.074500 
     52 H          -0.566000   -0.630000    1.687000 H         1 <1>         0.115500 
     53 C           0.609000    0.881000    2.703000 C.3       1 <1>        -0.088100 
     54 H           1.220000    0.972000    3.617000 H         1 <1>         0.183200 
     55 H           1.188000    1.217000    1.846000 H         1 <1>         0.112800 
     56 C          -0.517000    1.952000    2.722000 C.3       1 <1>        -0.097200 
     57 H          -1.020000    1.982000    1.739000 H         1 <1>         0.160300 
     58 H          -1.266000    1.702000    3.487000 H         1 <1>         0.150300 
     59 N           0.056000    3.284000    3.036000 N.4       1 <1>        -0.251700 
     60 H          -0.693000    4.060000    2.947000 H         1 <1>         0.395400 
     61 H           0.889000    3.521000    2.385000 H         1 <1>         0.369300 
     62 H           0.353000    3.272000    3.885000 H         1 <1>         0.394700 
     63 C           6.072000    3.347000   -0.352000 C.ar      1 <1>        -0.007500 
     64 C           6.529000    3.801000    0.888000 C.ar      1 <1>        -0.162000 
     65 H           5.842000    3.894000    1.724000 H         1 <1>         0.188900 
     66 C           7.875000    4.134000    1.068000 C.ar      1 <1>        -0.140500 
     67 H           8.236000    4.442000    2.043000 H         1 <1>         0.149100 
     68 C           8.762000    4.070000   -0.014000 C.ar      1 <1>        -0.118500 
     69 H           9.806000    4.323000    0.124000 H         1 <1>         0.124600 
     70 C           8.292000    3.678000   -1.273000 C.ar      1 <1>        -0.230100 
     71 H           8.973000    3.653000   -2.117000 H         1 <1>         0.144200 
     72 C           6.951000    3.318000   -1.438000 C.ar      1 <1>        -0.089700 
     73 H           6.596000    3.010000   -2.417000 H         1 <1>         0.151100 
@<TRIPOS>BOND
     1    1    2 1    
     2    2    3 1    
     3    2    4 1    
     4    4    5 1    
     5    4    6 1    
     6    4    7 1    
     7    7    8 1    
     8    8    9 1    
     9    8   10 1    
    10   10   11 1    
    11   10   12 1    
    12   10    2 1    
    13    8   13 1    
    14   13   14 2    
    15   13   15 1    
    16    7   16 am   
    17   16   17 2    
    18   16   18 1    
    19   18   19 1    
    20   18   20 1    
    21   20   21 1    
    22   21   22 2    
    23   21   23 1    
    24   21   24 1    
    25   24   25 1    
    26   24   26 1    
    27   24   27 1    
    28   27   28 1    
    29   27   29 1    
    30   27   30 1    
    31   30   31 1    
    32   30   32 1    
    33   30   33 1    
    34   33   34 1    
    35   33   35 1    
    36   33   36 1    
    37   36   37 ar   
    38   37   38 1    
    39   37   39 ar   
    40   39   40 1    
    41   39   41 ar   
    42   41   42 1    
    43   41   43 ar   
    44   43   44 1    
    45   43   45 ar   
    46   45   46 1    
    47   45   36 ar   
    48   18   47 1    
    49   47   48 1    
    50   47   49 1    
    51   47   50 1    
    52   50   51 1    
    53   50   52 1    
    54   50   53 1    
    55   53   54 1    
    56   53   55 1    
    57   53   56 1    
    58   56   57 1    
    59   56   58 1    
    60   56   59 1    
    61   59   60 1    
    62   59   61 1    
    63   59   62 1    
    64    1   63 1    
    65   63   64 ar   
    66   64   65 1    
    67   64   66 ar   
    68   66   67 1    
    69   66   68 ar   
    70   68   69 1    
    71   68   70 ar   
    72   70   71 1    
    73   70   72 ar   
    74   72   73 1    
    75   72   63 ar   
@<TRIPOS>SUBSTRUCTURE
     1 ****        1 TEMP              0 ****  ****    0 ROOT 
@<TRIPOS>SET
UNITY_3DHIT     STATIC     ATOMS    <user>   **** Atoms matching 3D or FLEX Search
0
MATCH_ATOMS     DYNAMIC    ATOMS    <user>   **** 
(1,2,3,4,5,6,7,8,9,10,11,12,13,14,15,16,17,18,19,20,21,22,23,24,25,26,27,28,29,30,31,32)
ATOM$INVISIBLE  STATIC     ATOMS    DISPGROUP SYSTEM 
0
@<TRIPOS>UNITY_ATOM_ATTR
15 1
AtomExpr -1
23 1
AtomExpr -1
59 1
AtomExpr +1
