#	Name:			SQ29852_2P
#	Creating user name:	jeff
#	Creation time:		Wed Dec 11 13:20:54 2002

#	Modifying user name:	jeff
#	Modification time:	Wed Dec 11 13:20:54 2002

@<TRIPOS>MOLECULE
SQ29852_2P
   72    74     1     0     3
SMALL
USER_CHARGES
****
From 3DB ct
@<TRIPOS>ATOM
      1 P           0.729000   -3.526000    0.517000 P.3       1 <1>         1.614900 
      2 O           1.701000   -4.625000    0.248000 O.2       1 <1>        -1.044100 
      3 O           0.778000   -2.159000   -0.230000 O.3       1 <1>        -0.742700 
      4 C           1.578000   -1.909000    0.840000 C.3       1 <1>        -0.198400 
      5 H           1.887000   -2.229000    1.910000 H         1 <1>         0.217000 
      6 C           0.897000   -0.602000    1.520000 C.3       1 <1>        -0.054600 
      7 H           0.039000   -1.049000    2.050000 H         1 <1>         0.073400 
      8 H           1.400000   -0.138000    2.384000 H         1 <1>         0.048700 
      9 C           0.270000    0.586000    0.667000 C.3       1 <1>        -0.169300 
     10 H          -0.810000    0.479000    0.828000 H         1 <1>         0.153900 
     11 H           0.491000    0.434000   -0.395000 H         1 <1>         0.096400 
     12 C           0.339000    2.125000    1.033000 C.3       1 <1>        -0.207900 
     13 H          -0.536000    2.598000    0.544000 H         1 <1>         0.059800 
     14 H           0.225000    2.252000    2.118000 H         1 <1>         0.091100 
     15 C           1.447000    3.101000    0.517000 C.3       1 <1>         0.182800 
     16 H           2.376000    3.020000    1.106000 H         1 <1>         0.170400 
     17 H           1.673000    2.928000   -0.550000 H         1 <1>         0.156100 
     18 N           0.953000    4.500000    0.602000 N.4       1 <1>        -0.649000 
     19 H           1.691000    5.209000    0.246000 H         1 <1>         0.474100 
     20 H           0.669000    4.752000    1.616000 H         1 <1>         0.496700 
     21 H           0.223000    4.571000    0.081000 H         1 <1>         0.489700 
     22 C           3.005000   -2.037000    0.347000 C.2       1 <1>         1.072200 
     23 O           3.392000   -3.165000    0.048000 O.2       1 <1>        -0.541300 
     24 N           3.794000   -0.950000    0.283000 N.am      1 <1>        -0.756400 
     25 C           5.183000   -0.990000   -0.143000 C.3       1 <1>         0.002200 
     26 H           5.187000   -1.331000   -1.192000 H         1 <1>         0.134300 
     27 C           5.663000    0.449000   -0.056000 C.3       1 <1>        -0.215400 
     28 H           6.355000    0.467000    0.804000 H         1 <1>         0.133300 
     29 H           6.341000    0.675000   -0.908000 H         1 <1>         0.058200 
     30 C           4.560000    1.279000    0.410000 C.3       1 <1>        -0.193800 
     31 H           4.784000    2.057000    1.167000 H         1 <1>         0.206100 
     32 C           3.345000    0.394000    0.635000 C.3       1 <1>        -0.335400 
     33 H           3.291000    0.481000    1.724000 H         1 <1>         0.232000 
     34 H           2.526000    0.828000    0.115000 H         1 <1>         0.053100 
     35 C           4.444000    2.004000   -1.049000 C.ar      1 <1>         0.135000 
     36 C           3.702000    1.458000   -2.099000 C.ar      1 <1>        -0.084500 
     37 H           3.027000    0.630000   -1.912000 H         1 <1>         0.196500 
     38 C           3.833000    1.982000   -3.388000 C.ar      1 <1>        -0.221300 
     39 H           3.192000    1.617000   -4.183000 H         1 <1>         0.155600 
     40 C           4.783000    2.973000   -3.648000 C.ar      1 <1>        -0.179300 
     41 H           4.936000    3.325000   -4.662000 H         1 <1>         0.129800 
     42 C           5.526000    3.517000   -2.594000 C.ar      1 <1>        -0.199700 
     43 H           6.255000    4.295000   -2.790000 H         1 <1>         0.137300 
     44 C           5.323000    3.065000   -1.287000 C.ar      1 <1>        -0.242100 
     45 H           5.844000    3.534000   -0.458000 H         1 <1>         0.153900 
     46 C           6.010000   -1.970000    0.680000 C.2       1 <1>         0.821100 
     47 O           7.166000   -2.178000    0.355000 O.2       1 <1>        -0.952100 
     48 O           5.471000   -2.607000    1.714000 O.3       1 <1>        -0.975400 
     49 O          -0.221000   -3.925000   -0.708000 O.3       1 <1>        -1.030900 
     50 C          -0.680000   -4.217000    1.437000 C.3       1 <1>        -0.661600 
     51 H          -0.595000   -3.909000    2.490000 H         1 <1>         0.106100 
     52 H          -0.465000   -5.296000    1.384000 H         1 <1>         0.119900 
     53 C          -2.132000   -4.067000    0.882000 C.3       1 <1>         0.105100 
     54 H          -2.281000   -4.000000   -0.210000 H         1 <1>         0.041400 
     55 H          -2.732000   -4.957000    1.133000 H         1 <1>        -0.036500 
     56 C          -2.719000   -2.808000    1.526000 C.3       1 <1>         0.051200 
     57 H          -3.321000   -3.167000    2.377000 H         1 <1>        -0.007100 
     58 H          -2.007000   -2.070000    1.900000 H         1 <1>         0.038500 
     59 C          -3.605000   -2.118000    0.482000 C.3       1 <1>        -0.291000 
     60 H          -4.256000   -2.827000   -0.058000 H         1 <1>         0.087100 
     61 H          -4.288000   -1.564000    1.154000 H         1 <1>         0.045700 
     62 C          -3.202000   -0.982000   -0.456000 C.ar      1 <1>         0.133400 
     63 C          -4.298000   -0.301000   -1.008000 C.ar      1 <1>        -0.264300 
     64 H          -5.319000   -0.550000   -0.734000 H         1 <1>         0.150800 
     65 C          -4.102000    0.716000   -1.947000 C.ar      1 <1>        -0.204600 
     66 H          -4.952000    1.251000   -2.364000 H         1 <1>         0.127300 
     67 C          -2.812000    1.050000   -2.369000 C.ar      1 <1>        -0.149600 
     68 H          -2.652000    1.841000   -3.097000 H         1 <1>         0.122000 
     69 C          -1.717000    0.355000   -1.852000 C.ar      1 <1>        -0.217600 
     70 H          -0.731000    0.586000   -2.235000 H         1 <1>         0.181900 
     71 C          -1.917000   -0.655000   -0.906000 C.ar      1 <1>        -0.078800 
     72 H          -1.145000   -1.283000   -0.545000 H         1 <1>         0.226800 
@<TRIPOS>BOND
     1    1    2 2    
     2    1    3 1    
     3    3    4 1    
     4    4    5 1    
     5    4    6 1    
     6    6    7 1    
     7    6    8 1    
     8    6    9 1    
     9    9   10 1    
    10    9   11 1    
    11    9   12 1    
    12   12   13 1    
    13   12   14 1    
    14   12   15 1    
    15   15   16 1    
    16   15   17 1    
    17   15   18 1    
    18   18   19 1    
    19   18   20 1    
    20   18   21 1    
    21    4   22 1    
    22   22   23 2    
    23   22   24 am   
    24   24   25 1    
    25   25   26 1    
    26   25   27 1    
    27   27   28 1    
    28   27   29 1    
    29   27   30 1    
    30   30   31 1    
    31   30   32 1    
    32   32   33 1    
    33   32   34 1    
    34   32   24 1    
    35   30   35 1    
    36   35   36 ar   
    37   36   37 1    
    38   36   38 ar   
    39   38   39 1    
    40   38   40 ar   
    41   40   41 1    
    42   40   42 ar   
    43   42   43 1    
    44   42   44 ar   
    45   44   45 1    
    46   44   35 ar   
    47   25   46 1    
    48   46   47 2    
    49   46   48 1    
    50    1   49 1    
    51    1   50 1    
    52   50   51 1    
    53   50   52 1    
    54   50   53 1    
    55   53   54 1    
    56   53   55 1    
    57   53   56 1    
    58   56   57 1    
    59   56   58 1    
    60   56   59 1    
    61   59   60 1    
    62   59   61 1    
    63   59   62 1    
    64   62   63 ar   
    65   63   64 1    
    66   63   65 ar   
    67   65   66 1    
    68   65   67 ar   
    69   67   68 1    
    70   67   69 ar   
    71   69   70 1    
    72   69   71 ar   
    73   71   72 1    
    74   71   62 ar   
@<TRIPOS>SUBSTRUCTURE
     1 ****        1 TEMP              0 ****  ****    0 ROOT 
@<TRIPOS>SET
UNITY_3DHIT     STATIC     ATOMS    <user>   **** Atoms matching 3D or FLEX Search
0
MATCH_ATOMS     DYNAMIC    ATOMS    <user>   **** 
(1,2,3,4,5,6,7,8,9,10,11,12,13,14,15,16,17,18,19,20,21,22,23,24,25,26,27,28,29,30,31,32)
ATOM$INVISIBLE  STATIC     ATOMS    DISPGROUP SYSTEM 
0
@<TRIPOS>UNITY_ATOM_ATTR
18 1
AtomExpr +1
48 1
AtomExpr -1
49 1
AtomExpr -1
