#	Name:			SQ29852_2I
#	Creating user name:	jeff
#	Creation time:		Wed Dec 11 13:20:54 2002

#	Modifying user name:	jeff
#	Modification time:	Wed Dec 11 13:20:54 2002

@<TRIPOS>MOLECULE
SQ29852_2I
   66    68     1     0     3
SMALL
USER_CHARGES
****
From 3DB ct
@<TRIPOS>ATOM
      1 P           0.114000   -4.352000    1.275000 P.3       1 <1>         1.698200 
      2 O           1.319000   -5.007000    1.856000 O.2       1 <1>        -1.083700 
      3 O           0.633000   -3.097000    0.431000 O.3       1 <1>        -0.812500 
      4 C           1.517000   -2.020000    0.744000 C.3       1 <1>         0.563000 
      5 H           1.101000   -1.307000    0.057000 H         1 <1>        -0.122000 
      6 C           1.337000   -1.625000    2.237000 C.3       1 <1>        -0.326100 
      7 H           2.204000   -0.977000    2.429000 H         1 <1>         0.115900 
      8 H           1.471000   -2.454000    2.947000 H         1 <1>         0.131500 
      9 C           0.191000   -0.591000    2.597000 C.3       1 <1>        -0.043500 
     10 H          -0.288000   -0.218000    1.681000 H         1 <1>         0.037100 
     11 H          -0.559000   -1.118000    3.192000 H         1 <1>         0.018600 
     12 C           0.482000    0.698000    3.456000 C.3       1 <1>        -0.050500 
     13 H           1.069000    1.430000    2.875000 H         1 <1>         0.089600 
     14 H           1.057000    0.446000    4.361000 H         1 <1>         0.053400 
     15 C          -0.848000    1.401000    3.904000 C.3       1 <1>         0.017200 
     16 H          -1.461000    0.702000    4.497000 H         1 <1>         0.039600 
     17 H          -1.424000    1.682000    3.007000 H         1 <1>         0.137900 
     18 N          -0.664000    2.636000    4.706000 N.4       1 <1>        -0.422200 
     19 H          -1.625000    3.088000    4.936000 H         1 <1>         0.368300 
     20 H          -0.148000    2.424000    5.633000 H         1 <1>         0.377200 
     21 H          -0.175000    3.222000    4.229000 H         1 <1>         0.408500 
     22 C           2.989000   -2.032000    0.296000 C.2       1 <1>         0.547400 
     23 O           3.392000   -3.170000    0.061000 O.2       1 <1>        -0.486600 
     24 N           3.785000   -0.949000    0.252000 N.am      1 <1>        -0.434500 
     25 C           5.158000   -1.057000   -0.140000 C.3       1 <1>         0.120400 
     26 H           5.280000   -1.132000   -1.232000 H         1 <1>         0.100500 
     27 C           5.698000    0.279000    0.490000 C.3       1 <1>        -0.331000 
     28 H           6.433000    0.743000   -0.188000 H         1 <1>         0.104300 
     29 H           6.150000    0.210000    1.497000 H         1 <1>         0.149500 
     30 C           4.473000    1.159000    0.699000 C.ar      1 <1>        -0.086100 
     31 C           3.317000    0.406000    0.529000 C.ar      1 <1>         0.321900 
     32 C           2.176000    1.140000    0.167000 C.ar      1 <1>        -0.323800 
     33 H           1.254000    0.744000   -0.213000 H         1 <1>         0.194600 
     34 C           2.272000    2.546000    0.132000 C.ar      1 <1>        -0.074100 
     35 H           1.433000    3.130000   -0.234000 H         1 <1>         0.124300 
     36 C           3.424000    3.250000    0.507000 C.ar      1 <1>        -0.293500 
     37 H           3.454000    4.336000    0.518000 H         1 <1>         0.143900 
     38 C           4.572000    2.537000    0.835000 C.ar      1 <1>        -0.135400 
     39 H           5.509000    3.013000    1.113000 H         1 <1>         0.157000 
     40 C           5.996000   -2.010000    0.666000 C.2       1 <1>         0.809200 
     41 O           7.158000   -2.199000    0.347000 O.2       1 <1>        -0.861700 
     42 O           5.455000   -2.639000    1.707000 O.3       1 <1>        -0.938000 
     43 O          -0.515000   -5.258000    0.115000 O.3       1 <1>        -1.035000 
     44 C          -1.128000   -3.991000    2.622000 C.3       1 <1>        -0.724900 
     45 H          -1.260000   -4.955000    3.138000 H         1 <1>         0.128400 
     46 H          -0.673000   -3.329000    3.365000 H         1 <1>         0.106200 
     47 C          -2.554000   -3.454000    2.237000 C.3       1 <1>         0.056600 
     48 H          -3.194000   -3.413000    3.136000 H         1 <1>        -0.034400 
     49 H          -2.949000   -4.270000    1.610000 H         1 <1>         0.060800 
     50 C          -2.616000   -2.176000    1.570000 C.3       1 <1>         0.167000 
     51 H          -1.619000   -2.155000    1.140000 H         1 <1>         0.081100 
     52 H          -2.713000   -1.302000    2.236000 H         1 <1>        -0.000300 
     53 C          -3.586000   -2.151000    0.431000 C.3       1 <1>        -0.591000 
     54 H          -4.579000   -2.036000    0.898000 H         1 <1>         0.134900 
     55 H          -3.602000   -3.054000   -0.200000 H         1 <1>         0.173400 
     56 C          -3.186000   -1.005000   -0.481000 C.ar      1 <1>         0.232600 
     57 C          -4.292000   -0.287000   -0.960000 C.ar      1 <1>        -0.240100 
     58 H          -5.298000   -0.490000   -0.608000 H         1 <1>         0.166500 
     59 C          -4.137000    0.704000   -1.935000 C.ar      1 <1>        -0.184200 
     60 H          -5.010000    1.216000   -2.328000 H         1 <1>         0.137600 
     61 C          -2.865000    1.028000   -2.414000 C.ar      1 <1>        -0.168600 
     62 H          -2.750000    1.774000   -3.195000 H         1 <1>         0.131900 
     63 C          -1.748000    0.386000   -1.878000 C.ar      1 <1>        -0.127300 
     64 H          -0.755000    0.667000   -2.217000 H         1 <1>         0.136600 
     65 C          -1.911000   -0.612000   -0.911000 C.ar      1 <1>        -0.241300 
     66 H          -1.008000   -1.081000   -0.581000 H         1 <1>         0.207500 
@<TRIPOS>BOND
     1    1    2 2    
     2    1    3 1    
     3    3    4 1    
     4    4    5 1    
     5    4    6 1    
     6    6    7 1    
     7    6    8 1    
     8    6    9 1    
     9    9   10 1    
    10    9   11 1    
    11    9   12 1    
    12   12   13 1    
    13   12   14 1    
    14   12   15 1    
    15   15   16 1    
    16   15   17 1    
    17   15   18 1    
    18   18   19 1    
    19   18   20 1    
    20   18   21 1    
    21    4   22 1    
    22   22   23 2    
    23   22   24 am   
    24   24   25 1    
    25   25   26 1    
    26   25   27 1    
    27   27   28 1    
    28   27   29 1    
    29   27   30 1    
    30   30   31 ar   
    31   31   24 1    
    32   31   32 ar   
    33   32   33 1    
    34   32   34 ar   
    35   34   35 1    
    36   34   36 ar   
    37   36   37 1    
    38   36   38 ar   
    39   38   39 1    
    40   38   30 ar   
    41   25   40 1    
    42   40   41 2    
    43   40   42 1    
    44    1   43 1    
    45    1   44 1    
    46   44   45 1    
    47   44   46 1    
    48   44   47 1    
    49   47   48 1    
    50   47   49 1    
    51   47   50 1    
    52   50   51 1    
    53   50   52 1    
    54   50   53 1    
    55   53   54 1    
    56   53   55 1    
    57   53   56 1    
    58   56   57 ar   
    59   57   58 1    
    60   57   59 ar   
    61   59   60 1    
    62   59   61 ar   
    63   61   62 1    
    64   61   63 ar   
    65   63   64 1    
    66   63   65 ar   
    67   65   66 1    
    68   65   56 ar   
@<TRIPOS>SUBSTRUCTURE
     1 ****        1 TEMP              0 ****  ****    0 ROOT 
@<TRIPOS>SET
UNITY_3DHIT     STATIC     ATOMS    <user>   **** Atoms matching 3D or FLEX Search
0
MATCH_ATOMS     DYNAMIC    ATOMS    <user>   **** 
(1,2,3,4,5,6,7,8,9,10,11,12,13,14,15,16,17,18,19,20,21,22,23,24,25,26,27,28,29,30,31,32)
ATOM$INVISIBLE  STATIC     ATOMS    DISPGROUP SYSTEM 
0
@<TRIPOS>UNITY_ATOM_ATTR
18 1
AtomExpr +1
42 1
AtomExpr -1
43 1
AtomExpr -1
