#	Name:			SQ29852_2X
#	Creating user name:	jeff
#	Creation time:		Wed Dec 11 13:20:55 2002

#	Modifying user name:	jeff
#	Modification time:	Wed Dec 11 13:20:55 2002

@<TRIPOS>MOLECULE
SQ29852_2X
   68    70     1     0     3
SMALL
USER_CHARGES
****
From 3DB ct
@<TRIPOS>ATOM
      1 S           4.137000    2.624000   -0.679000 S.3       1 <1>        -0.064100 
      2 C           4.547000    1.311000    0.493000 C.3       1 <1>        -0.028800 
      3 S           5.039000    2.119000    2.034000 S.3       1 <1>        -0.053100 
      4 C           5.929000    3.505000    1.252000 C.3       1 <1>        -0.097900 
      5 H           5.644000    4.425000    1.784000 H         1 <1>         0.065100 
      6 H           7.020000    3.365000    1.372000 H         1 <1>         0.085500 
      7 C           5.578000    3.648000   -0.247000 C.3       1 <1>        -0.266500 
      8 H           5.376000    4.691000   -0.535000 H         1 <1>         0.145100 
      9 H           6.412000    3.281000   -0.872000 H         1 <1>         0.120600 
     10 C           3.359000    0.395000    0.737000 C.3       1 <1>        -0.152100 
     11 H           3.146000    0.451000    1.805000 H         1 <1>         0.071400 
     12 H           2.478000    0.693000    0.148000 H         1 <1>         0.212300 
     13 N           3.833000   -0.934000    0.361000 N.am      1 <1>        -0.357800 
     14 C           5.211000   -0.936000   -0.098000 C.3       1 <1>         0.150200 
     15 H           5.219000   -1.303000   -1.142000 H         1 <1>         0.082400 
     16 C           5.659000    0.513000   -0.008000 C.3       1 <1>        -0.470000 
     17 H           6.579000    0.586000    0.597000 H         1 <1>         0.215400 
     18 H           5.950000    0.822000   -1.028000 H         1 <1>         0.145000 
     19 C           6.046000   -1.921000    0.715000 C.2       1 <1>         0.825900 
     20 O           7.149000   -2.226000    0.292000 O.2       1 <1>        -0.865200 
     21 O           5.564000   -2.443000    1.839000 O.3       1 <1>        -1.132700 
     22 C           3.072000   -2.040000    0.431000 C.2       1 <1>         0.573500 
     23 O           3.480000   -3.156000    0.112000 O.2       1 <1>        -0.602900 
     24 C           1.576000   -1.879000    0.681000 C.3       1 <1>         0.378300 
     25 H           1.019000   -1.283000   -0.059000 H         1 <1>         0.086400 
     26 O           1.363000   -3.307000    0.340000 O.3       1 <1>        -0.846800 
     27 P           1.989000   -4.498000   -0.648000 P.3       1 <1>         1.688400 
     28 O           2.649000   -4.462000   -1.991000 O.2       1 <1>        -1.126500 
     29 O           0.417000   -4.521000   -0.950000 O.3       1 <1>        -1.102200 
     30 C           1.357000   -5.895000    0.427000 C.3       1 <1>        -0.536300 
     31 H           2.017000   -6.107000    1.308000 H         1 <1>         0.110700 
     32 H           1.538000   -6.750000   -0.277000 H         1 <1>         0.085900 
     33 C          -0.186000   -5.794000    0.927000 C.3       1 <1>         0.015200 
     34 H          -0.902000   -5.956000    0.080000 H         1 <1>         0.040200 
     35 H           0.034000   -6.884000    1.132000 H         1 <1>        -0.025300 
     36 C          -1.028000   -4.769000    2.037000 C.3       1 <1>         0.157800 
     37 H          -0.008000   -5.022000    2.362000 H         1 <1>         0.024400 
     38 H          -0.951000   -4.354000    3.047000 H         1 <1>         0.076300 
     39 C          -1.597000   -6.030000    2.407000 C.3       1 <1>        -0.493600 
     40 H          -2.545000   -5.770000    1.908000 H         1 <1>         0.124200 
     41 H          -1.669000   -7.084000    2.077000 H         1 <1>         0.120800 
     42 C          -2.068000   -6.390000    3.735000 C.ar      1 <1>         0.174600 
     43 C          -1.943000   -7.658000    4.311000 C.ar      1 <1>        -0.186700 
     44 H          -1.300000   -8.434000    3.907000 H         1 <1>         0.157600 
     45 C          -2.661000   -7.975000    5.466000 C.ar      1 <1>        -0.195800 
     46 H          -2.618000   -8.952000    5.938000 H         1 <1>         0.139700 
     47 C          -3.501000   -7.024000    6.054000 C.ar      1 <1>        -0.134100 
     48 H          -4.104000   -7.217000    6.936000 H         1 <1>         0.123200 
     49 C          -3.614000   -5.751000    5.491000 C.ar      1 <1>        -0.210000 
     50 H          -4.240000   -4.968000    5.907000 H         1 <1>         0.141700 
     51 C          -2.901000   -5.439000    4.331000 C.ar      1 <1>        -0.185000 
     52 H          -3.000000   -4.445000    3.907000 H         1 <1>         0.197700 
     53 C           1.293000   -1.588000    2.187000 C.3       1 <1>        -0.240100 
     54 H           2.127000   -2.034000    2.752000 H         1 <1>         0.100200 
     55 H           1.332000   -0.505000    2.323000 H         1 <1>         0.125600 
     56 C          -0.063000   -1.845000    2.831000 C.3       1 <1>        -0.047800 
     57 H          -0.330000   -2.603000    2.129000 H         1 <1>         0.088700 
     58 H          -0.817000   -1.057000    2.681000 H         1 <1>         0.063000 
     59 C           0.160000   -2.181000    4.343000 C.3       1 <1>        -0.250100 
     60 H          -0.772000   -2.578000    4.770000 H         1 <1>         0.082100 
     61 H           0.938000   -2.951000    4.492000 H         1 <1>         0.100500 
     62 C           0.576000   -0.911000    5.142000 C.3       1 <1>         0.120300 
     63 H           1.523000   -0.478000    4.773000 H         1 <1>         0.114300 
     64 H          -0.216000   -0.156000    5.017000 H         1 <1>         0.028400 
     65 N           0.722000   -1.235000    6.578000 N.4       1 <1>        -0.435800 
     66 H           0.870000   -0.335000    7.161000 H         1 <1>         0.381000 
     67 H           1.558000   -1.904000    6.736000 H         1 <1>         0.549100 
     68 H          -0.030000   -1.641000    6.860000 H         1 <1>         0.396100 
@<TRIPOS>BOND
     1    1    2 1    
     2    2    3 1    
     3    3    4 1    
     4    4    5 1    
     5    4    6 1    
     6    4    7 1    
     7    7    8 1    
     8    7    9 1    
     9    7    1 1    
    10    2   10 1    
    11   10   11 1    
    12   10   12 1    
    13   10   13 1    
    14   13   14 1    
    15   14   15 1    
    16   14   16 1    
    17   16   17 1    
    18   16   18 1    
    19   16    2 1    
    20   14   19 1    
    21   19   20 2    
    22   19   21 1    
    23   13   22 am   
    24   22   23 2    
    25   22   24 1    
    26   24   25 1    
    27   24   26 1    
    28   26   27 1    
    29   27   28 2    
    30   27   29 1    
    31   27   30 1    
    32   30   31 1    
    33   30   32 1    
    34   30   33 1    
    35   33   34 1    
    36   33   35 1    
    37   33   36 1    
    38   36   37 1    
    39   36   38 1    
    40   36   39 1    
    41   39   40 1    
    42   39   41 1    
    43   39   42 1    
    44   42   43 ar   
    45   43   44 1    
    46   43   45 ar   
    47   45   46 1    
    48   45   47 ar   
    49   47   48 1    
    50   47   49 ar   
    51   49   50 1    
    52   49   51 ar   
    53   51   52 1    
    54   51   42 ar   
    55   24   53 1    
    56   53   54 1    
    57   53   55 1    
    58   53   56 1    
    59   56   57 1    
    60   56   58 1    
    61   56   59 1    
    62   59   60 1    
    63   59   61 1    
    64   59   62 1    
    65   62   63 1    
    66   62   64 1    
    67   62   65 1    
    68   65   66 1    
    69   65   67 1    
    70   65   68 1    
@<TRIPOS>SUBSTRUCTURE
     1 ****        1 TEMP              0 ****  ****    0 ROOT 
@<TRIPOS>SET
UNITY_3DHIT     STATIC     ATOMS    <user>   **** Atoms matching 3D or FLEX Search
0
MATCH_ATOMS     DYNAMIC    ATOMS    <user>   **** 
(1,2,3,4,5,6,7,8,9,10,11,12,13,14,15,16,17,18,19,20,21,22,23,24,25,26,27,28,29,30,31,32)
ATOM$INVISIBLE  STATIC     ATOMS    DISPGROUP SYSTEM 
0
@<TRIPOS>UNITY_ATOM_ATTR
21 1
AtomExpr -1
29 1
AtomExpr -1
65 1
AtomExpr +1
