#	Name:			SQ29852_2G
#	Creating user name:	jeff
#	Creation time:		Wed Dec 11 13:20:54 2002

#	Modifying user name:	jeff
#	Modification time:	Wed Dec 11 13:20:54 2002

@<TRIPOS>MOLECULE
SQ29852_2G
   73    74     1     0     3
SMALL
USER_CHARGES
****
From 3DB ct
@<TRIPOS>ATOM
      1 P          -0.146000   -4.376000    1.309000 P.3       1 <1>         1.695000 
      2 O           0.601000   -5.547000    1.852000 O.2       1 <1>        -1.062500 
      3 O           1.086000   -3.440000    0.846000 O.3       1 <1>        -0.827400 
      4 C           1.514000   -2.064000    0.748000 C.3       1 <1>         0.388500 
      5 H           0.903000   -1.748000   -0.089000 H         1 <1>         0.079000 
      6 C           1.331000   -1.639000    2.240000 C.3       1 <1>        -0.412700 
      7 H           1.400000   -2.505000    2.922000 H         1 <1>         0.123200 
      8 H           2.185000   -1.012000    2.533000 H         1 <1>         0.195700 
      9 C           0.057000   -0.791000    2.602000 C.3       1 <1>        -0.008300 
     10 H          -0.403000   -1.166000    3.527000 H         1 <1>         0.051200 
     11 H          -0.647000   -0.973000    1.784000 H         1 <1>         0.056500 
     12 C           0.184000    0.751000    2.901000 C.3       1 <1>        -0.386500 
     13 H           0.160000    0.944000    3.987000 H         1 <1>         0.041400 
     14 H           1.133000    1.196000    2.580000 H         1 <1>         0.234300 
     15 C          -1.005000    1.538000    2.270000 C.3       1 <1>         0.419000 
     16 H          -1.091000    1.339000    1.188000 H         1 <1>        -0.017200 
     17 H          -1.941000    1.202000    2.749000 H         1 <1>         0.152100 
     18 N          -0.855000    2.996000    2.472000 N.4       1 <1>        -0.719900 
     19 H          -1.756000    3.517000    2.171000 H         1 <1>         0.473400 
     20 H          -0.019000    3.375000    1.898000 H         1 <1>         0.517000 
     21 H          -0.705000    3.155000    3.345000 H         1 <1>         0.483500 
     22 C           2.969000   -2.040000    0.300000 C.2       1 <1>         0.748500 
     23 O           3.459000   -3.144000    0.067000 O.2       1 <1>        -0.575100 
     24 N           3.740000   -0.939000    0.252000 N.am      1 <1>        -0.633900 
     25 C           5.137000   -1.080000   -0.167000 C.3       1 <1>        -0.111400 
     26 H           5.127000   -1.504000   -1.184000 H         1 <1>         0.101100 
     27 H           5.682000   -0.129000   -0.250000 H         1 <1>         0.042600 
     28 C           5.997000   -1.994000    0.678000 C.2       1 <1>         0.910100 
     29 O           7.153000   -2.192000    0.341000 O.2       1 <1>        -0.975000 
     30 O           5.457000   -2.636000    1.712000 O.3       1 <1>        -1.094700 
     31 C           3.262000    0.367000    0.550000 C.ar      1 <1>         0.545200 
     32 C           4.103000    1.466000    0.749000 C.ar      1 <1>        -0.461600 
     33 H           4.897000    1.444000    1.485000 H         1 <1>         0.267000 
     34 C           3.913000    2.585000   -0.089000 C.ar      1 <1>         0.370700 
     35 C           2.750000    2.671000   -0.874000 C.ar      1 <1>        -0.135800 
     36 C           1.674000    1.877000   -0.488000 C.ar      1 <1>         0.001900 
     37 H           0.655000    2.111000   -0.776000 H         1 <1>         0.208000 
     38 C           1.936000    0.746000    0.280000 C.ar      1 <1>        -0.500800 
     39 H           1.049000    0.247000    0.567000 H         1 <1>         0.263700 
     40 O           2.661000    3.503000   -2.002000 O.3       1 <1>        -0.387500 
     41 C           1.468000    3.550000   -2.815000 C.3       1 <1>        -0.004800 
     42 H           1.659000    4.214000   -3.670000 H         1 <1>         0.076200 
     43 H           0.618000    3.965000   -2.250000 H         1 <1>         0.056100 
     44 H           1.202000    2.555000   -3.208000 H         1 <1>         0.066200 
     45 O           4.889000    3.591000   -0.125000 O.3       1 <1>        -0.446600 
     46 C           4.586000    4.896000   -0.662000 C.3       1 <1>         0.057100 
     47 H           5.423000    5.564000   -0.415000 H         1 <1>         0.052900 
     48 H           3.669000    5.299000   -0.202000 H         1 <1>         0.059500 
     49 H           4.490000    4.901000   -1.758000 H         1 <1>         0.068700 
     50 O          -0.888000   -4.952000    0.012000 O.3       1 <1>        -1.153700 
     51 C          -1.390000   -3.977000    2.635000 C.3       1 <1>        -0.392900 
     52 H          -0.978000   -3.259000    3.342000 H         1 <1>         0.058700 
     53 H          -1.379000   -4.930000    3.190000 H         1 <1>         0.080700 
     54 C          -2.920000   -3.713000    2.409000 C.3       1 <1>        -0.152400 
     55 H          -3.296000   -4.477000    1.707000 H         1 <1>         0.075900 
     56 H          -3.417000   -3.920000    3.375000 H         1 <1>         0.001400 
     57 C          -3.379000   -2.272000    1.974000 C.3       1 <1>         0.175900 
     58 H          -4.384000   -2.083000    2.391000 H         1 <1>        -0.048300 
     59 H          -2.730000   -1.500000    2.393000 H         1 <1>         0.021400 
     60 C          -3.555000   -2.177000    0.434000 C.3       1 <1>        -0.389200 
     61 H          -2.799000   -2.876000    0.043000 H         1 <1>         0.175700 
     62 H          -4.515000   -2.632000    0.138000 H         1 <1>         0.078300 
     63 C          -3.181000   -0.995000   -0.465000 C.ar      1 <1>         0.205800 
     64 C          -1.906000   -0.634000   -0.926000 C.ar      1 <1>        -0.158900 
     65 H          -1.059000   -1.160000   -0.558000 H         1 <1>         0.186800 
     66 C          -1.755000    0.374000   -1.883000 C.ar      1 <1>        -0.201700 
     67 H          -0.771000    0.634000   -2.252000 H         1 <1>         0.163300 
     68 C          -2.874000    1.046000   -2.382000 C.ar      1 <1>        -0.169300 
     69 H          -2.763000    1.830000   -3.121000 H         1 <1>         0.121200 
     70 C          -4.147000    0.702000   -1.921000 C.ar      1 <1>        -0.159800 
     71 H          -5.024000    1.222000   -2.293000 H         1 <1>         0.124000 
     72 C          -4.294000   -0.314000   -0.972000 C.ar      1 <1>        -0.279900 
     73 H          -5.295000   -0.555000   -0.628000 H         1 <1>         0.171500 
@<TRIPOS>BOND
     1    1    2 2    
     2    1    3 1    
     3    3    4 1    
     4    4    5 1    
     5    4    6 1    
     6    6    7 1    
     7    6    8 1    
     8    6    9 1    
     9    9   10 1    
    10    9   11 1    
    11    9   12 1    
    12   12   13 1    
    13   12   14 1    
    14   12   15 1    
    15   15   16 1    
    16   15   17 1    
    17   15   18 1    
    18   18   19 1    
    19   18   20 1    
    20   18   21 1    
    21    4   22 1    
    22   22   23 2    
    23   22   24 am   
    24   24   25 1    
    25   25   26 1    
    26   25   27 1    
    27   25   28 1    
    28   28   29 2    
    29   28   30 1    
    30   24   31 1    
    31   31   32 ar   
    32   32   33 1    
    33   32   34 ar   
    34   34   35 ar   
    35   35   36 ar   
    36   36   37 1    
    37   36   38 ar   
    38   38   39 1    
    39   38   31 ar   
    40   35   40 1    
    41   40   41 1    
    42   41   42 1    
    43   41   43 1    
    44   41   44 1    
    45   34   45 1    
    46   45   46 1    
    47   46   47 1    
    48   46   48 1    
    49   46   49 1    
    50    1   50 1    
    51    1   51 1    
    52   51   52 1    
    53   51   53 1    
    54   51   54 1    
    55   54   55 1    
    56   54   56 1    
    57   54   57 1    
    58   57   58 1    
    59   57   59 1    
    60   57   60 1    
    61   60   61 1    
    62   60   62 1    
    63   60   63 1    
    64   63   64 ar   
    65   64   65 1    
    66   64   66 ar   
    67   66   67 1    
    68   66   68 ar   
    69   68   69 1    
    70   68   70 ar   
    71   70   71 1    
    72   70   72 ar   
    73   72   73 1    
    74   72   63 ar   
@<TRIPOS>SUBSTRUCTURE
     1 ****        1 TEMP              0 ****  ****    0 ROOT 
@<TRIPOS>SET
UNITY_3DHIT     STATIC     ATOMS    <user>   **** Atoms matching 3D or FLEX Search
0
MATCH_ATOMS     DYNAMIC    ATOMS    <user>   **** 
(1,2,3,4,5,6,7,8,9,10,11,12,13,14,15,16,17,18,19,20,21,22,23,24,25,26,27,28,29,30,31,32)
ATOM$INVISIBLE  STATIC     ATOMS    DISPGROUP SYSTEM 
0
@<TRIPOS>UNITY_ATOM_ATTR
18 1
AtomExpr +1
30 1
AtomExpr -1
50 1
AtomExpr -1
