#	Name:			SQ29852_2A
#	Creating user name:	jeff
#	Creation time:		Wed Dec 11 13:20:54 2002

#	Modifying user name:	jeff
#	Modification time:	Wed Dec 11 13:20:54 2002

@<TRIPOS>MOLECULE
SQ29852_2A
   78    80     1     0     3
SMALL
USER_CHARGES
****
From 3DB ct
@<TRIPOS>ATOM
      1 P           0.396000   -4.284000    1.173000 P.3       1 <1>         1.693900 
      2 O           1.685000   -4.926000    1.551000 O.2       1 <1>        -1.048000 
      3 O           0.691000   -3.027000    0.229000 O.3       1 <1>        -0.740700 
      4 C           1.541000   -2.024000    0.775000 C.3       1 <1>         0.135700 
      5 H           1.784000   -2.328000    1.814000 H         1 <1>         0.136900 
      6 C           0.790000   -0.720000    1.076000 C.3       1 <1>        -0.238700 
      7 H          -0.200000   -0.839000    1.480000 H         1 <1>         0.113200 
      8 H           1.195000   -0.215000    1.948000 H         1 <1>         0.115500 
      9 C           0.645000    0.156000   -0.182000 C.3       1 <1>        -0.458700 
     10 H           0.470000   -0.409000   -1.066000 H         1 <1>         0.174400 
     11 H           1.559000    0.252000   -0.714000 H         1 <1>         0.254300 
     12 C           0.000000    1.547000    0.167000 C.3       1 <1>        -0.335500 
     13 H          -1.071000    1.617000   -0.007000 H         1 <1>         0.160200 
     14 H           0.095000    1.682000    1.246000 H         1 <1>         0.147000 
     15 C           0.678000    2.803000   -0.438000 C.3       1 <1>         0.169000 
     16 H           1.665000    2.504000   -0.714000 H         1 <1>         0.124300 
     17 H           0.237000    3.098000   -1.400000 H         1 <1>         0.123100 
     18 N           0.829000    3.935000    0.506000 N.4       1 <1>        -0.521600 
     19 H           1.432000    4.718000    0.057000 H         1 <1>         0.433100 
     20 H           1.301000    3.605000    1.428000 H         1 <1>         0.487800 
     21 H           0.015000    4.267000    0.697000 H         1 <1>         0.436500 
     22 C           3.006000   -2.037000    0.343000 C.2       1 <1>         0.740600 
     23 O           3.387000   -3.155000    0.002000 O.2       1 <1>        -0.580100 
     24 N           3.800000   -0.951000    0.316000 N.am      1 <1>        -0.523800 
     25 C           5.186000   -0.983000   -0.118000 C.3       1 <1>         0.001900 
     26 H           5.192000   -1.402000   -1.130000 H         1 <1>         0.093400 
     27 C           5.674000    0.450000    0.018000 C.3       1 <1>        -0.224800 
     28 H           6.504000    0.470000    0.755000 H         1 <1>         0.101600 
     29 H           6.162000    0.582000   -0.927000 H         1 <1>         0.049700 
     30 C           4.576000    1.268000    0.519000 C.3       1 <1>         0.331900 
     31 H           4.865000    1.798000    1.465000 H         1 <1>         0.059800 
     32 C           3.358000    0.381000    0.718000 C.3       1 <1>        -0.282100 
     33 H           3.483000    0.122000    1.793000 H         1 <1>         0.150600 
     34 H           2.520000    1.059000    0.854000 H         1 <1>         0.117600 
     35 C           4.343000    2.398000   -0.546000 C.3       1 <1>        -0.253000 
     36 H           3.645000    3.073000   -0.023000 H         1 <1>        -0.000300 
     37 C           5.516000    3.389000   -0.797000 C.3       1 <1>        -0.147500 
     38 H           5.093000    4.288000   -1.285000 H         1 <1>         0.042800 
     39 H           5.953000    3.708000    0.162000 H         1 <1>         0.066300 
     40 C           6.623000    2.861000   -1.750000 C.3       1 <1>        -0.035100 
     41 H           7.370000    2.264000   -1.209000 H         1 <1>         0.061000 
     42 H           7.223000    3.726000   -2.084000 H         1 <1>         0.009400 
     43 C           6.015000    2.216000   -3.041000 C.3       1 <1>        -0.109400 
     44 H           5.638000    3.051000   -3.652000 H         1 <1>         0.027600 
     45 H           6.786000    1.679000   -3.612000 H         1 <1>         0.032000 
     46 C           4.785000    1.277000   -2.921000 C.3       1 <1>        -0.070000 
     47 H           4.278000    1.181000   -3.902000 H         1 <1>        -0.033200 
     48 H           4.993000    0.226000   -2.684000 H         1 <1>         0.070700 
     49 C           3.788000    1.937000   -1.943000 C.3       1 <1>         0.240400 
     50 H           3.029000    1.167000   -1.897000 H         1 <1>        -0.097600 
     51 H           3.326000    2.806000   -2.445000 H         1 <1>        -0.053500 
     52 C           5.999000   -1.990000    0.665000 C.2       1 <1>         0.782300 
     53 O           7.163000   -2.173000    0.357000 O.2       1 <1>        -0.959400 
     54 O           5.466000   -2.601000    1.718000 O.3       1 <1>        -0.970800 
     55 O          -0.308000   -5.247000    0.105000 O.3       1 <1>        -1.069000 
     56 C          -0.756000   -3.948000    2.575000 C.3       1 <1>        -0.588900 
     57 H          -0.410000   -3.052000    3.123000 H         1 <1>         0.055200 
     58 H          -0.666000   -4.817000    3.241000 H         1 <1>         0.101000 
     59 C          -2.254000   -3.787000    2.144000 C.3       1 <1>        -0.088700 
     60 H          -2.470000   -4.546000    1.381000 H         1 <1>         0.097800 
     61 H          -2.947000   -3.936000    2.980000 H         1 <1>        -0.008700 
     62 C          -2.493000   -2.381000    1.551000 C.3       1 <1>         0.231600 
     63 H          -2.493000   -1.577000    2.308000 H         1 <1>         0.008400 
     64 H          -1.577000   -2.352000    1.008000 H         1 <1>         0.084400 
     65 C          -3.562000   -2.166000    0.455000 C.3       1 <1>        -0.692400 
     66 H          -3.672000   -3.066000   -0.173000 H         1 <1>         0.199600 
     67 H          -4.513000   -1.998000    0.990000 H         1 <1>         0.158100 
     68 C          -3.171000   -1.003000   -0.470000 C.ar      1 <1>         0.323300 
     69 C          -4.303000   -0.329000   -0.948000 C.ar      1 <1>        -0.260700 
     70 H          -5.313000   -0.609000   -0.659000 H         1 <1>         0.179000 
     71 C          -4.172000    0.703000   -1.885000 C.ar      1 <1>        -0.261300 
     72 H          -5.051000    1.226000   -2.278000 H         1 <1>         0.159400 
     73 C          -2.915000    1.046000   -2.386000 C.ar      1 <1>        -0.199300 
     74 H          -2.787000    1.859000   -3.106000 H         1 <1>         0.151500 
     75 C          -1.788000    0.337000   -1.963000 C.ar      1 <1>        -0.199600 
     76 H          -0.849000    0.620000   -2.417000 H         1 <1>         0.176600 
     77 C          -1.923000   -0.689000   -1.025000 C.ar      1 <1>        -0.209300 
     78 H          -1.213000   -1.451000   -0.853000 H         1 <1>         0.229000 
@<TRIPOS>BOND
     1    1    2 2    
     2    1    3 1    
     3    3    4 1    
     4    4    5 1    
     5    4    6 1    
     6    6    7 1    
     7    6    8 1    
     8    6    9 1    
     9    9   10 1    
    10    9   11 1    
    11    9   12 1    
    12   12   13 1    
    13   12   14 1    
    14   12   15 1    
    15   15   16 1    
    16   15   17 1    
    17   15   18 1    
    18   18   19 1    
    19   18   20 1    
    20   18   21 1    
    21    4   22 1    
    22   22   23 2    
    23   22   24 am   
    24   24   25 1    
    25   25   26 1    
    26   25   27 1    
    27   27   28 1    
    28   27   29 1    
    29   27   30 1    
    30   30   31 1    
    31   30   32 1    
    32   32   33 1    
    33   32   34 1    
    34   32   24 1    
    35   30   35 1    
    36   35   36 1    
    37   35   37 1    
    38   37   38 1    
    39   37   39 1    
    40   37   40 1    
    41   40   41 1    
    42   40   42 1    
    43   40   43 1    
    44   43   44 1    
    45   43   45 1    
    46   43   46 1    
    47   46   47 1    
    48   46   48 1    
    49   46   49 1    
    50   49   50 1    
    51   49   51 1    
    52   49   35 1    
    53   25   52 1    
    54   52   53 2    
    55   52   54 1    
    56    1   55 1    
    57    1   56 1    
    58   56   57 1    
    59   56   58 1    
    60   56   59 1    
    61   59   60 1    
    62   59   61 1    
    63   59   62 1    
    64   62   63 1    
    65   62   64 1    
    66   62   65 1    
    67   65   66 1    
    68   65   67 1    
    69   65   68 1    
    70   68   69 ar   
    71   69   70 1    
    72   69   71 ar   
    73   71   72 1    
    74   71   73 ar   
    75   73   74 1    
    76   73   75 ar   
    77   75   76 1    
    78   75   77 ar   
    79   77   78 1    
    80   77   68 ar   
@<TRIPOS>SUBSTRUCTURE
     1 ****        1 TEMP              0 ****  ****    0 ROOT 
@<TRIPOS>SET
UNITY_3DHIT     STATIC     ATOMS    <user>   **** Atoms matching 3D or FLEX Search
0
MATCH_ATOMS     DYNAMIC    ATOMS    <user>   **** 
(1,2,3,4,5,6,7,8,9,10,11,12,13,14,15,16,17,18,19,20,21,22,23,24,25,26,27,28,29,30,31,32)
ATOM$INVISIBLE  STATIC     ATOMS    DISPGROUP SYSTEM 
0
@<TRIPOS>UNITY_ATOM_ATTR
18 1
AtomExpr +1
54 1
AtomExpr -1
55 1
AtomExpr -1
