#	Name:			SQ29852_2W
#	Creating user name:	jeff
#	Creation time:		Wed Dec 11 13:20:54 2002

#	Modifying user name:	jeff
#	Modification time:	Wed Dec 11 13:20:54 2002

@<TRIPOS>MOLECULE
SQ29852_2W
   70    71     1     0     3
SMALL
USER_CHARGES
****
From 3DB ct
@<TRIPOS>ATOM
      1 S           4.230000    2.536000   -0.876000 S.3       1 <1>        -0.162300 
      2 C           4.528000    1.257000    0.428000 C.3       1 <1>         0.210800 
      3 C           3.317000    0.364000    0.647000 C.3       1 <1>        -0.058700 
      4 H           3.104000    0.435000    1.706000 H         1 <1>         0.156500 
      5 H           2.466000    0.719000    0.052000 H         1 <1>         0.080600 
      6 N           3.773000   -0.975000    0.281000 N.am      1 <1>        -0.519300 
      7 C           5.160000   -1.004000   -0.149000 C.3       1 <1>         0.012700 
      8 H           5.161000   -1.383000   -1.186000 H         1 <1>         0.100400 
      9 C           5.634000    0.437000   -0.050000 C.3       1 <1>        -0.441500 
     10 H           6.500000    0.493000    0.621000 H         1 <1>         0.185100 
     11 H           6.013000    0.660000   -1.054000 H         1 <1>         0.186600 
     12 C           6.005000   -1.985000    0.678000 C.2       1 <1>         0.885900 
     13 O           7.162000   -2.188000    0.347000 O.2       1 <1>        -0.885900 
     14 O           5.446000   -2.638000    1.693000 O.3       1 <1>        -1.142900 
     15 C           2.989000   -2.066000    0.336000 C.2       1 <1>         0.803200 
     16 O           3.382000   -3.189000    0.025000 O.2       1 <1>        -0.584600 
     17 C           1.539000   -1.974000    0.746000 C.3       1 <1>         0.382400 
     18 H           1.147000   -1.130000    0.169000 H         1 <1>        -0.129800 
     19 O           0.822000   -3.036000    0.306000 O.3       1 <1>        -0.760700 
     20 P           0.897000   -4.438000    0.996000 P.3       1 <1>         1.673800 
     21 O           1.935000   -5.463000    0.692000 O.2       1 <1>        -1.073000 
     22 O           0.174000   -4.256000   -0.420000 O.3       1 <1>        -1.054500 
     23 C          -0.930000   -4.846000    1.249000 C.3       1 <1>        -0.591100 
     24 H          -1.175000   -4.464000    2.249000 H         1 <1>         0.062800 
     25 H          -0.982000   -5.947000    1.314000 H         1 <1>         0.107000 
     26 C          -2.089000   -4.392000    0.221000 C.3       1 <1>         0.029300 
     27 H          -1.877000   -3.625000   -0.537000 H         1 <1>         0.032900 
     28 H          -2.395000   -5.277000   -0.375000 H         1 <1>         0.016600 
     29 C          -3.329000   -3.689000    0.817000 C.3       1 <1>         0.062100 
     30 H          -4.193000   -4.367000    0.607000 H         1 <1>        -0.003600 
     31 H          -3.283000   -3.740000    1.916000 H         1 <1>        -0.026400 
     32 C          -3.616000   -2.159000    0.466000 C.3       1 <1>        -0.205400 
     33 H          -4.339000   -2.502000   -0.299000 H         1 <1>         0.066400 
     34 H          -4.217000   -1.710000    1.286000 H         1 <1>         0.031000 
     35 C          -3.223000   -0.999000   -0.475000 C.ar      1 <1>         0.080800 
     36 C          -4.297000   -0.329000   -1.077000 C.ar      1 <1>        -0.219300 
     37 H          -5.327000   -0.552000   -0.822000 H         1 <1>         0.146300 
     38 C          -4.072000    0.702000   -1.996000 C.ar      1 <1>        -0.211300 
     39 H          -4.911000    1.235000   -2.422000 H         1 <1>         0.139900 
     40 C          -2.770000    1.050000   -2.359000 C.ar      1 <1>        -0.117600 
     41 H          -2.604000    1.838000   -3.076000 H         1 <1>         0.124700 
     42 C          -1.692000    0.362000   -1.796000 C.ar      1 <1>        -0.237300 
     43 H          -0.681000    0.606000   -2.105000 H         1 <1>         0.166800 
     44 C          -1.921000   -0.649000   -0.861000 C.ar      1 <1>        -0.034200 
     45 H          -1.080000   -1.222000   -0.494000 H         1 <1>         0.182900 
     46 C           1.319000   -1.672000    2.247000 C.3       1 <1>        -0.351200 
     47 H           1.497000   -2.615000    2.791000 H         1 <1>         0.162700 
     48 H           2.021000   -1.005000    2.745000 H         1 <1>         0.114000 
     49 C          -0.131000   -1.186000    2.589000 C.3       1 <1>        -0.032200 
     50 H          -0.648000   -1.949000    3.200000 H         1 <1>         0.063000 
     51 H          -0.732000   -1.095000    1.671000 H         1 <1>         0.082200 
     52 C          -0.268000    0.183000    3.334000 C.3       1 <1>        -0.361500 
     53 H          -1.340000    0.431000    3.384000 H         1 <1>         0.034000 
     54 H           0.104000    0.093000    4.364000 H         1 <1>         0.145000 
     55 C           0.444000    1.375000    2.636000 C.3       1 <1>         0.723900 
     56 H           1.509000    1.381000    2.912000 H         1 <1>        -0.035100 
     57 H           0.346000    1.287000    1.539000 H         1 <1>        -0.033100 
     58 N          -0.119000    2.676000    3.060000 N.4       1 <1>        -0.964300 
     59 H           0.389000    3.490000    2.552000 H         1 <1>         0.629600 
     60 H          -0.014000    2.804000    4.128000 H         1 <1>         0.620000 
     61 H          -0.993000    2.699000    2.848000 H         1 <1>         0.476500 
     62 S           4.989000    2.092000    2.022000 S.3       1 <1>        -0.344500 
     63 C           5.246000    3.876000    1.735000 C.3       1 <1>        -0.242100 
     64 H           6.189000    4.052000    1.203000 H         1 <1>         0.149900 
     65 H           4.408000    4.322000    1.181000 H         1 <1>         0.114200 
     66 H           5.316000    4.371000    2.714000 H         1 <1>         0.098800 
     67 C           5.888000    3.173000   -1.379000 C.3       1 <1>        -0.123200 
     68 H           6.101000    2.844000   -2.408000 H         1 <1>         0.048300 
     69 H           6.712000    2.831000   -0.734000 H         1 <1>         0.033200 
     70 H           5.879000    4.272000   -1.362000 H         1 <1>         0.101900 
@<TRIPOS>BOND
     1    1    2 1    
     2    2    3 1    
     3    3    4 1    
     4    3    5 1    
     5    3    6 1    
     6    6    7 1    
     7    7    8 1    
     8    7    9 1    
     9    9   10 1    
    10    9   11 1    
    11    9    2 1    
    12    7   12 1    
    13   12   13 2    
    14   12   14 1    
    15    6   15 am   
    16   15   16 2    
    17   15   17 1    
    18   17   18 1    
    19   17   19 1    
    20   19   20 1    
    21   20   21 2    
    22   20   22 1    
    23   20   23 1    
    24   23   24 1    
    25   23   25 1    
    26   23   26 1    
    27   26   27 1    
    28   26   28 1    
    29   26   29 1    
    30   29   30 1    
    31   29   31 1    
    32   29   32 1    
    33   32   33 1    
    34   32   34 1    
    35   32   35 1    
    36   35   36 ar   
    37   36   37 1    
    38   36   38 ar   
    39   38   39 1    
    40   38   40 ar   
    41   40   41 1    
    42   40   42 ar   
    43   42   43 1    
    44   42   44 ar   
    45   44   45 1    
    46   44   35 ar   
    47   17   46 1    
    48   46   47 1    
    49   46   48 1    
    50   46   49 1    
    51   49   50 1    
    52   49   51 1    
    53   49   52 1    
    54   52   53 1    
    55   52   54 1    
    56   52   55 1    
    57   55   56 1    
    58   55   57 1    
    59   55   58 1    
    60   58   59 1    
    61   58   60 1    
    62   58   61 1    
    63    2   62 1    
    64   62   63 1    
    65   63   64 1    
    66   63   65 1    
    67   63   66 1    
    68    1   67 1    
    69   67   68 1    
    70   67   69 1    
    71   67   70 1    
@<TRIPOS>SUBSTRUCTURE
     1 ****        1 TEMP              0 ****  ****    0 ROOT 
@<TRIPOS>SET
UNITY_3DHIT     STATIC     ATOMS    <user>   **** Atoms matching 3D or FLEX Search
0
MATCH_ATOMS     DYNAMIC    ATOMS    <user>   **** 
(1,2,3,4,5,6,7,8,9,10,11,12,13,14,15,16,17,18,19,20,21,22,23,24,25,26,27,28,29,30,31,32)
ATOM$INVISIBLE  STATIC     ATOMS    DISPGROUP SYSTEM 
0
@<TRIPOS>UNITY_ATOM_ATTR
14 1
AtomExpr -1
22 1
AtomExpr -1
58 1
AtomExpr +1
