#	Name:			SQ29852_2E
#	Creating user name:	jeff
#	Creation time:		Wed Dec 11 13:20:54 2002

#	Modifying user name:	jeff
#	Modification time:	Wed Dec 11 13:20:54 2002

@<TRIPOS>MOLECULE
SQ29852_2E
   65    66     1     0     3
SMALL
USER_CHARGES
****
From 3DB ct
@<TRIPOS>ATOM
      1 P          -0.835000   -3.978000    1.161000 P.3       1 <1>         1.318600 
      2 O          -0.295000   -5.169000    1.877000 O.2       1 <1>        -0.958000 
      3 O           0.565000   -3.200000    0.730000 O.3       1 <1>        -0.552900 
      4 C           1.480000   -2.024000    0.755000 C.3       1 <1>        -0.134500 
      5 H           1.014000   -1.251000    0.156000 H         1 <1>         0.227700 
      6 C           1.352000   -1.654000    2.252000 C.3       1 <1>        -0.215400 
      7 H           2.362000   -1.304000    2.530000 H         1 <1>         0.179200 
      8 H           1.209000   -2.571000    2.852000 H         1 <1>         0.105600 
      9 C           0.465000   -0.539000    2.926000 C.3       1 <1>        -0.048300 
     10 H          -0.576000   -0.825000    3.070000 H         1 <1>         0.056700 
     11 H           0.841000   -0.486000    3.965000 H         1 <1>         0.032800 
     12 C           0.533000    0.944000    2.447000 C.3       1 <1>        -0.117500 
     13 H           1.575000    1.239000    2.303000 H         1 <1>         0.097700 
     14 H           0.131000    1.588000    3.249000 H         1 <1>         0.042100 
     15 C          -0.306000    1.293000    1.190000 C.3       1 <1>        -0.105700 
     16 H          -1.363000    1.021000    1.345000 H         1 <1>         0.095000 
     17 H           0.076000    0.747000    0.327000 H         1 <1>         0.178300 
     18 N          -0.190000    2.730000    0.854000 N.4       1 <1>        -0.037500 
     19 H          -0.631000    3.345000    1.626000 H         1 <1>         0.326700 
     20 H          -0.674000    2.945000   -0.091000 H         1 <1>         0.358500 
     21 H           0.683000    2.939000    0.784000 H         1 <1>         0.192700 
     22 C           2.975000   -2.055000    0.337000 C.2       1 <1>         0.947800 
     23 O           3.437000   -3.147000    0.011000 O.2       1 <1>        -0.573800 
     24 N           3.747000   -0.955000    0.279000 N.am      1 <1>        -0.879500 
     25 C           5.136000   -1.082000   -0.162000 C.3       1 <1>         0.029700 
     26 H           5.659000   -0.112000   -0.148000 H         1 <1>         0.015800 
     27 H           5.142000   -1.439000   -1.204000 H         1 <1>         0.068800 
     28 C           5.990000   -2.008000    0.662000 C.2       1 <1>         0.824100 
     29 O           7.165000   -2.191000    0.358000 O.2       1 <1>        -0.972100 
     30 O           5.455000   -2.625000    1.715000 O.3       1 <1>        -1.010000 
     31 C           3.243000    0.367000    0.159000 C.ar      1 <1>         0.607300 
     32 C           2.420000    0.705000   -0.920000 C.ar      1 <1>        -0.380200 
     33 H           2.047000   -0.064000   -1.589000 H         1 <1>         0.248000 
     34 C           2.110000    2.044000   -1.177000 C.ar      1 <1>        -0.152500 
     35 H           1.469000    2.303000   -2.015000 H         1 <1>         0.153700 
     36 C           2.638000    3.049000   -0.363000 C.ar      1 <1>        -0.275300 
     37 H           2.443000    4.093000   -0.594000 H         1 <1>         0.131600 
     38 C           3.418000    2.710000    0.747000 C.ar      1 <1>        -0.172900 
     39 H           3.812000    3.490000    1.390000 H         1 <1>         0.143900 
     40 C           3.697000    1.367000    1.023000 C.ar      1 <1>        -0.243300 
     41 H           4.278000    1.101000    1.900000 H         1 <1>         0.225400 
     42 O          -1.294000   -4.589000   -0.246000 O.3       1 <1>        -1.032800 
     43 C          -2.487000   -3.519000    2.224000 C.3       1 <1>        -0.204700 
     44 H          -3.206000   -4.331000    1.960000 H         1 <1>         0.053400 
     45 H          -2.041000   -3.952000    3.141000 H         1 <1>         0.065400 
     46 C          -3.188000   -2.424000    2.948000 C.3       1 <1>        -0.179300 
     47 H          -2.717000   -1.964000    3.840000 H         1 <1>         0.029300 
     48 H          -4.280000   -2.581000    3.059000 H         1 <1>         0.031500 
     49 C          -2.656000   -2.077000    1.590000 C.3       1 <1>         0.277000 
     50 H          -1.638000   -1.653000    1.405000 H         1 <1>        -0.086900 
     51 H          -3.027000   -1.051000    1.846000 H         1 <1>        -0.063500 
     52 C          -3.583000   -2.159000    0.413000 C.3       1 <1>        -0.261900 
     53 H          -4.651000   -2.214000    0.693000 H         1 <1>         0.055900 
     54 H          -3.365000   -3.052000   -0.191000 H         1 <1>         0.128200 
     55 C          -3.207000   -0.994000   -0.481000 C.ar      1 <1>         0.058500 
     56 C          -4.303000   -0.312000   -1.025000 C.ar      1 <1>        -0.197900 
     57 H          -5.324000   -0.555000   -0.744000 H         1 <1>         0.156200 
     58 C          -4.112000    0.710000   -1.962000 C.ar      1 <1>        -0.200700 
     59 H          -4.968000    1.243000   -2.372000 H         1 <1>         0.136300 
     60 C          -2.823000    1.047000   -2.383000 C.ar      1 <1>        -0.125400 
     61 H          -2.672000    1.836000   -3.115000 H         1 <1>         0.127500 
     62 C          -1.725000    0.363000   -1.858000 C.ar      1 <1>        -0.222300 
     63 H          -0.721000    0.615000   -2.185000 H         1 <1>         0.169100 
     64 C          -1.920000   -0.645000   -0.911000 C.ar      1 <1>        -0.117600 
     65 H          -1.057000   -1.217000   -0.614000 H         1 <1>         0.204300 
@<TRIPOS>BOND
     1    1    2 2    
     2    1    3 1    
     3    3    4 1    
     4    4    5 1    
     5    4    6 1    
     6    6    7 1    
     7    6    8 1    
     8    6    9 1    
     9    9   10 1    
    10    9   11 1    
    11    9   12 1    
    12   12   13 1    
    13   12   14 1    
    14   12   15 1    
    15   15   16 1    
    16   15   17 1    
    17   15   18 1    
    18   18   19 1    
    19   18   20 1    
    20   18   21 1    
    21    4   22 1    
    22   22   23 2    
    23   22   24 am   
    24   24   25 1    
    25   25   26 1    
    26   25   27 1    
    27   25   28 1    
    28   28   29 2    
    29   28   30 1    
    30   24   31 1    
    31   31   32 ar   
    32   32   33 1    
    33   32   34 ar   
    34   34   35 1    
    35   34   36 ar   
    36   36   37 1    
    37   36   38 ar   
    38   38   39 1    
    39   38   40 ar   
    40   40   41 1    
    41   40   31 ar   
    42    1   42 1    
    43    1   43 1    
    44   43   44 1    
    45   43   45 1    
    46   43   46 1    
    47   46   47 1    
    48   46   48 1    
    49   46   49 1    
    50   49   50 1    
    51   49   51 1    
    52   49   52 1    
    53   52   53 1    
    54   52   54 1    
    55   52   55 1    
    56   55   56 ar   
    57   56   57 1    
    58   56   58 ar   
    59   58   59 1    
    60   58   60 ar   
    61   60   61 1    
    62   60   62 ar   
    63   62   63 1    
    64   62   64 ar   
    65   64   65 1    
    66   64   55 ar   
@<TRIPOS>SUBSTRUCTURE
     1 ****        1 TEMP              0 ****  ****    0 ROOT 
@<TRIPOS>SET
UNITY_3DHIT     STATIC     ATOMS    <user>   **** Atoms matching 3D or FLEX Search
0
MATCH_ATOMS     DYNAMIC    ATOMS    <user>   **** 
(1,2,3,4,5,6,7,8,9,10,11,12,13,14,15,16,17,18,19,20,21,22,23,24,25,26,27,28,29,30,31,32)
ATOM$INVISIBLE  STATIC     ATOMS    DISPGROUP SYSTEM 
0
@<TRIPOS>UNITY_ATOM_ATTR
18 1
AtomExpr +1
30 1
AtomExpr -1
42 1
AtomExpr -1
