#	Name:			SQ29852_2H
#	Creating user name:	jeff
#	Creation time:		Wed Dec 11 13:20:54 2002

#	Modifying user name:	jeff
#	Modification time:	Wed Dec 11 13:20:54 2002

@<TRIPOS>MOLECULE
SQ29852_2H
   68    70     1     0     3
SMALL
USER_CHARGES
****
From 3DB ct
@<TRIPOS>ATOM
      1 P           0.325000   -4.610000    1.290000 P.3       1 <1>         1.606400 
      2 O           1.503000   -5.225000    1.956000 O.2       1 <1>        -0.994700 
      3 O           0.689000   -3.216000    0.562000 O.3       1 <1>        -0.907700 
      4 C           1.512000   -2.038000    0.765000 C.3       1 <1>         0.313500 
      5 H           1.077000   -1.278000    0.125000 H         1 <1>         0.154600 
      6 C           1.330000   -1.643000    2.244000 C.3       1 <1>        -0.300300 
      7 H           1.452000   -2.520000    2.898000 H         1 <1>         0.138800 
      8 H           2.151000   -0.962000    2.507000 H         1 <1>         0.194300 
      9 C           0.019000   -0.845000    2.588000 C.3       1 <1>        -0.150200 
     10 H          -0.651000   -1.487000    3.183000 H         1 <1>         0.068300 
     11 H          -0.483000   -0.553000    1.664000 H         1 <1>         0.069900 
     12 C           0.138000    0.506000    3.363000 C.3       1 <1>         0.024400 
     13 H           0.444000    0.282000    4.399000 H         1 <1>         0.073100 
     14 H           0.903000    1.156000    2.910000 H         1 <1>         0.046600 
     15 C          -1.207000    1.309000    3.393000 C.3       1 <1>        -0.280000 
     16 H          -2.065000    0.637000    3.568000 H         1 <1>         0.165200 
     17 H          -1.170000    2.028000    4.230000 H         1 <1>         0.146500 
     18 N          -1.430000    2.123000    2.172000 N.4       1 <1>         0.047800 
     19 H          -2.326000    2.724000    2.268000 H         1 <1>         0.314400 
     20 H          -1.515000    1.505000    1.291000 H         1 <1>         0.326300 
     21 H          -0.727000    2.675000    2.066000 H         1 <1>         0.266300 
     22 C           2.974000   -2.049000    0.321000 C.2       1 <1>         0.768800 
     23 O           3.448000   -3.149000    0.039000 O.2       1 <1>        -0.477900 
     24 N           3.750000   -0.951000    0.275000 N.am      1 <1>        -0.810800 
     25 C           5.137000   -1.080000   -0.166000 C.3       1 <1>        -0.060200 
     26 H           5.126000   -1.496000   -1.185000 H         1 <1>         0.099400 
     27 H           5.643000   -0.104000   -0.227000 H         1 <1>         0.049500 
     28 C           5.999000   -1.992000    0.677000 C.2       1 <1>         0.859100 
     29 O           7.156000   -2.189000    0.346000 O.2       1 <1>        -0.968000 
     30 O           5.456000   -2.641000    1.705000 O.3       1 <1>        -1.038200 
     31 C           3.323000    0.374000    0.577000 C.ar      1 <1>         0.672400 
     32 C           3.928000    1.158000    1.568000 C.ar      1 <1>        -0.467600 
     33 H           4.593000    0.731000    2.310000 H         1 <1>         0.330500 
     34 C           3.667000    2.533000    1.518000 C.ar      1 <1>         0.270900 
     35 C           2.742000    3.079000    0.657000 C.ar      1 <1>         0.134300 
     36 C           2.027000    2.300000   -0.245000 C.ar      1 <1>        -0.335800 
     37 H           1.260000    2.722000   -0.887000 H         1 <1>         0.232700 
     38 C           2.380000    0.949000   -0.296000 C.ar      1 <1>        -0.495500 
     39 H           1.940000    0.354000   -1.087000 H         1 <1>         0.246700 
     40 O           2.627000    4.447000    0.781000 O.3       1 <1>        -0.451900 
     41 C           3.866000    4.678000    1.516000 C.3       1 <1>         0.298900 
     42 H           4.644000    4.888000    0.759000 H         1 <1>         0.077200 
     43 H           3.772000    5.569000    2.153000 H         1 <1>         0.066700 
     44 O           4.288000    3.500000    2.283000 O.3       1 <1>        -0.410100 
     45 O          -0.101000   -5.555000    0.070000 O.3       1 <1>        -1.032700 
     46 C          -1.250000   -4.724000    2.275000 C.3       1 <1>        -0.465300 
     47 H          -1.163000   -4.100000    3.174000 H         1 <1>         0.026800 
     48 H          -1.367000   -5.768000    2.604000 H         1 <1>         0.092300 
     49 C          -2.560000   -4.353000    1.516000 C.3       1 <1>        -0.080900 
     50 H          -2.828000   -5.127000    0.777000 H         1 <1>         0.085500 
     51 H          -3.406000   -4.251000    2.215000 H         1 <1>        -0.008300 
     52 C          -2.330000   -3.026000    0.765000 C.3       1 <1>         0.373800 
     53 H          -1.720000   -2.402000    1.408000 H         1 <1>        -0.065900 
     54 H          -1.780000   -3.264000   -0.159000 H         1 <1>        -0.009100 
     55 C          -3.570000   -2.160000    0.447000 C.3       1 <1>        -0.765100 
     56 H          -4.274000   -2.807000   -0.095000 H         1 <1>         0.215400 
     57 H          -4.060000   -1.794000    1.360000 H         1 <1>         0.176800 
     58 C          -3.196000   -0.998000   -0.470000 C.ar      1 <1>         0.374500 
     59 C          -1.908000   -0.632000   -0.888000 C.ar      1 <1>        -0.355900 
     60 H          -1.036000   -1.124000   -0.509000 H         1 <1>         0.240800 
     61 C          -1.729000    0.373000   -1.844000 C.ar      1 <1>        -0.111200 
     62 H          -0.728000    0.640000   -2.165000 H         1 <1>         0.155200 
     63 C          -2.833000    1.038000   -2.382000 C.ar      1 <1>        -0.206500 
     64 H          -2.688000    1.819000   -3.117000 H         1 <1>         0.150800 
     65 C          -4.119000    0.691000   -1.964000 C.ar      1 <1>        -0.111300 
     66 H          -4.978000    1.208000   -2.377000 H         1 <1>         0.135900 
     67 C          -4.295000   -0.322000   -1.016000 C.ar      1 <1>        -0.333100 
     68 H          -5.305000   -0.579000   -0.710000 H         1 <1>         0.180800 
@<TRIPOS>BOND
     1    1    2 2    
     2    1    3 1    
     3    3    4 1    
     4    4    5 1    
     5    4    6 1    
     6    6    7 1    
     7    6    8 1    
     8    6    9 1    
     9    9   10 1    
    10    9   11 1    
    11    9   12 1    
    12   12   13 1    
    13   12   14 1    
    14   12   15 1    
    15   15   16 1    
    16   15   17 1    
    17   15   18 1    
    18   18   19 1    
    19   18   20 1    
    20   18   21 1    
    21    4   22 1    
    22   22   23 2    
    23   22   24 am   
    24   24   25 1    
    25   25   26 1    
    26   25   27 1    
    27   25   28 1    
    28   28   29 2    
    29   28   30 1    
    30   24   31 1    
    31   31   32 ar   
    32   32   33 1    
    33   32   34 ar   
    34   34   35 ar   
    35   35   36 ar   
    36   36   37 1    
    37   36   38 ar   
    38   38   39 1    
    39   38   31 ar   
    40   35   40 1    
    41   40   41 1    
    42   41   42 1    
    43   41   43 1    
    44   41   44 1    
    45   44   34 1    
    46    1   45 1    
    47    1   46 1    
    48   46   47 1    
    49   46   48 1    
    50   46   49 1    
    51   49   50 1    
    52   49   51 1    
    53   49   52 1    
    54   52   53 1    
    55   52   54 1    
    56   52   55 1    
    57   55   56 1    
    58   55   57 1    
    59   55   58 1    
    60   58   59 ar   
    61   59   60 1    
    62   59   61 ar   
    63   61   62 1    
    64   61   63 ar   
    65   63   64 1    
    66   63   65 ar   
    67   65   66 1    
    68   65   67 ar   
    69   67   68 1    
    70   67   58 ar   
@<TRIPOS>SUBSTRUCTURE
     1 ****        1 TEMP              0 ****  ****    0 ROOT 
@<TRIPOS>SET
UNITY_3DHIT     STATIC     ATOMS    <user>   **** Atoms matching 3D or FLEX Search
0
MATCH_ATOMS     DYNAMIC    ATOMS    <user>   **** 
(1,2,3,4,5,6,7,8,9,10,11,12,13,14,15,16,17,18,19,20,21,22,23,24,25,26,27,28,29,30,31,32)
ATOM$INVISIBLE  STATIC     ATOMS    DISPGROUP SYSTEM 
0
@<TRIPOS>UNITY_ATOM_ATTR
18 1
AtomExpr +1
30 1
AtomExpr -1
45 1
AtomExpr -1
