#	Name:			SQ29852_2Z
#	Creating user name:	jeff
#	Creation time:		Wed Dec 11 13:20:55 2002

#	Modifying user name:	jeff
#	Modification time:	Wed Dec 11 13:20:55 2002

@<TRIPOS>MOLECULE
SQ29852_2Z
   63    64     1     0     3
SMALL
USER_CHARGES
****
From 3DB ct
@<TRIPOS>ATOM
      1 P           0.204000   -4.120000    1.109000 P.3       1 <1>         1.572300 
      2 O           1.384000   -4.935000    1.484000 O.2       1 <1>        -1.069300 
      3 O           0.449000   -2.744000    0.398000 O.3       1 <1>        -0.764000 
      4 C           1.520000   -1.960000    0.755000 C.3       1 <1>         0.522200 
      5 H           1.186000   -1.027000    0.268000 H         1 <1>         0.227000 
      6 C           1.348000   -1.669000    2.262000 C.3       1 <1>        -0.444700 
      7 H           1.378000   -2.640000    2.779000 H         1 <1>         0.150300 
      8 H           2.275000   -1.266000    2.679000 H         1 <1>         0.092700 
      9 C           0.161000   -0.860000    2.899000 C.3       1 <1>         0.155200 
     10 H          -0.172000   -1.449000    3.776000 H         1 <1>         0.003500 
     11 H          -0.702000   -0.800000    2.222000 H         1 <1>         0.008800 
     12 C           0.511000    0.537000    3.527000 C.3       1 <1>        -0.349800 
     13 H          -0.184000    0.754000    4.359000 H         1 <1>         0.049100 
     14 H           1.523000    0.542000    3.965000 H         1 <1>         0.128900 
     15 C           0.339000    1.739000    2.559000 C.3       1 <1>         0.425700 
     16 H           1.028000    1.669000    1.710000 H         1 <1>        -0.046200 
     17 H          -0.689000    1.725000    2.162000 H         1 <1>         0.000000 
     18 N           0.537000    3.025000    3.266000 N.4       1 <1>        -0.658800 
     19 H           0.419000    3.857000    2.584000 H         1 <1>         0.446700 
     20 H           1.517000    3.073000    3.722000 H         1 <1>         0.493500 
     21 H          -0.084000    3.095000    3.913000 H         1 <1>         0.435500 
     22 C           2.994000   -2.056000    0.332000 C.2       1 <1>         0.687600 
     23 O           3.402000   -3.172000    0.013000 O.2       1 <1>        -0.619700 
     24 N           3.766000   -0.956000    0.294000 N.am      1 <1>        -0.616700 
     25 C           5.158000   -0.966000   -0.124000 C.3       1 <1>         0.170500 
     26 H           5.180000   -1.306000   -1.176000 H         1 <1>         0.079400 
     27 C           5.614000    0.479000   -0.006000 C.3       1 <1>        -0.555500 
     28 H           6.522000    0.538000    0.619000 H         1 <1>         0.170900 
     29 H           5.914000    0.833000   -1.012000 H         1 <1>         0.151300 
     30 C           4.495000    1.282000    0.469000 C.3       1 <1>         0.372700 
     31 H           4.285000    2.145000   -0.193000 H         1 <1>         0.051400 
     32 C           3.293000    0.374000    0.669000 C.3       1 <1>        -0.012300 
     33 H           3.010000    0.491000    1.716000 H         1 <1>         0.008300 
     34 H           2.496000    0.730000    0.002000 H         1 <1>         0.111000 
     35 O           4.992000    1.831000    1.713000 O.3       1 <1>        -0.799900 
     36 H           4.410000    2.446000    2.143000 H         1 <1>         0.501400 
     37 C           5.999000   -1.986000    0.677000 C.2       1 <1>         0.811800 
     38 O           7.157000   -2.186000    0.347000 O.2       1 <1>        -0.810200 
     39 O           5.448000   -2.634000    1.700000 O.3       1 <1>        -1.125000 
     40 O          -0.127000   -4.088000   -0.457000 O.3       1 <1>        -1.060400 
     41 C          -1.509000   -4.866000    0.838000 C.3       1 <1>        -0.475400 
     42 H          -2.001000   -4.929000    1.814000 H         1 <1>         0.050600 
     43 H          -1.204000   -5.893000    0.568000 H         1 <1>         0.080200 
     44 C          -2.562000   -4.437000   -0.296000 C.3       1 <1>         0.119900 
     45 H          -2.148000   -3.896000   -1.165000 H         1 <1>        -0.009600 
     46 H          -2.982000   -5.364000   -0.720000 H         1 <1>        -0.011500 
     47 C          -3.812000   -3.620000    0.146000 C.3       1 <1>        -0.085400 
     48 H          -4.634000   -3.661000   -0.586000 H         1 <1>         0.008300 
     49 H          -4.169000   -4.118000    1.064000 H         1 <1>         0.016400 
     50 C          -3.532000   -2.141000    0.493000 C.3       1 <1>         0.015300 
     51 H          -4.254000   -1.769000    1.247000 H         1 <1>        -0.007600 
     52 H          -2.565000   -2.237000    1.044000 H         1 <1>         0.041200 
     53 C          -3.166000   -1.004000   -0.466000 C.ar      1 <1>        -0.120900 
     54 C          -1.903000   -0.614000   -0.933000 C.ar      1 <1>         0.073200 
     55 H          -1.007000   -1.090000   -0.579000 H         1 <1>         0.154800 
     56 C          -1.775000    0.378000   -1.911000 C.ar      1 <1>        -0.305600 
     57 H          -0.812000    0.644000   -2.333000 H         1 <1>         0.183300 
     58 C          -2.906000    1.025000   -2.412000 C.ar      1 <1>        -0.084300 
     59 H          -2.848000    1.786000   -3.185000 H         1 <1>         0.122300 
     60 C          -4.166000    0.683000   -1.917000 C.ar      1 <1>        -0.234000 
     61 H          -5.068000    1.201000   -2.246000 H         1 <1>         0.141100 
     62 C          -4.291000   -0.326000   -0.958000 C.ar      1 <1>        -0.132400 
     63 H          -5.277000   -0.576000   -0.564000 H         1 <1>         0.143000 
@<TRIPOS>BOND
     1    1    2 2    
     2    1    3 1    
     3    3    4 1    
     4    4    5 1    
     5    4    6 1    
     6    6    7 1    
     7    6    8 1    
     8    6    9 1    
     9    9   10 1    
    10    9   11 1    
    11    9   12 1    
    12   12   13 1    
    13   12   14 1    
    14   12   15 1    
    15   15   16 1    
    16   15   17 1    
    17   15   18 1    
    18   18   19 1    
    19   18   20 1    
    20   18   21 1    
    21    4   22 1    
    22   22   23 2    
    23   22   24 am   
    24   24   25 1    
    25   25   26 1    
    26   25   27 1    
    27   27   28 1    
    28   27   29 1    
    29   27   30 1    
    30   30   31 1    
    31   30   32 1    
    32   32   33 1    
    33   32   34 1    
    34   32   24 1    
    35   30   35 1    
    36   35   36 1    
    37   25   37 1    
    38   37   38 2    
    39   37   39 1    
    40    1   40 1    
    41    1   41 1    
    42   41   42 1    
    43   41   43 1    
    44   41   44 1    
    45   44   45 1    
    46   44   46 1    
    47   44   47 1    
    48   47   48 1    
    49   47   49 1    
    50   47   50 1    
    51   50   51 1    
    52   50   52 1    
    53   50   53 1    
    54   53   54 ar   
    55   54   55 1    
    56   54   56 ar   
    57   56   57 1    
    58   56   58 ar   
    59   58   59 1    
    60   58   60 ar   
    61   60   61 1    
    62   60   62 ar   
    63   62   63 1    
    64   62   53 ar   
@<TRIPOS>SUBSTRUCTURE
     1 ****        1 TEMP              0 ****  ****    0 ROOT 
@<TRIPOS>SET
UNITY_3DHIT     STATIC     ATOMS    <user>   **** Atoms matching 3D or FLEX Search
0
MATCH_ATOMS     DYNAMIC    ATOMS    <user>   **** 
(1,2,3,4,5,6,7,8,9,10,11,12,13,14,15,16,17,18,19,20,21,22,23,24,25,26,27,28,29,30,31,32)
ATOM$INVISIBLE  STATIC     ATOMS    DISPGROUP SYSTEM 
0
@<TRIPOS>UNITY_ATOM_ATTR
18 1
AtomExpr +1
39 1
AtomExpr -1
40 1
AtomExpr -1
