#	Name:			SQ29852_2B
#	Creating user name:	jeff
#	Creation time:		Wed Dec 11 13:20:54 2002

#	Modifying user name:	jeff
#	Modification time:	Wed Dec 11 13:20:54 2002

@<TRIPOS>MOLECULE
SQ29852_2B
   78    80     1     0     3
SMALL
USER_CHARGES
****
From 3DB ct
@<TRIPOS>ATOM
      1 P           0.765000   -4.564000    1.135000 P.3       1 <1>         1.644800 
      2 O           1.991000   -4.858000    1.930000 O.2       1 <1>        -1.023800 
      3 O           0.748000   -3.136000    0.437000 O.3       1 <1>        -0.863200 
      4 C           1.525000   -2.003000    0.752000 C.3       1 <1>         0.493700 
      5 H           1.128000   -1.221000    0.106000 H         1 <1>        -0.128100 
      6 C           1.322000   -1.639000    2.242000 C.3       1 <1>        -0.227400 
      7 H           0.951000   -2.507000    2.800000 H         1 <1>         0.148600 
      8 H           2.291000   -1.425000    2.713000 H         1 <1>         0.118600 
      9 C           0.325000   -0.445000    2.585000 C.3       1 <1>        -0.137700 
     10 H           0.339000   -0.400000    3.689000 H         1 <1>         0.078100 
     11 H          -0.700000   -0.699000    2.309000 H         1 <1>         0.065200 
     12 C           0.438000    1.065000    2.132000 C.3       1 <1>        -0.167400 
     13 H          -0.192000    1.658000    2.820000 H         1 <1>         0.040100 
     14 H           1.436000    1.490000    2.262000 H         1 <1>         0.066900 
     15 C          -0.159000    1.455000    0.744000 C.3       1 <1>         0.202300 
     16 H           0.306000    0.895000   -0.070000 H         1 <1>         0.197400 
     17 H          -1.237000    1.236000    0.755000 H         1 <1>         0.089800 
     18 N          -0.022000    2.897000    0.433000 N.4       1 <1>        -0.519800 
     19 H          -0.517000    3.136000   -0.501000 H         1 <1>         0.396400 
     20 H           1.017000    3.178000    0.358000 H         1 <1>         0.479400 
     21 H          -0.404000    3.374000    1.094000 H         1 <1>         0.454600 
     22 C           2.996000   -2.051000    0.344000 C.2       1 <1>         0.625700 
     23 O           3.365000   -3.178000    0.016000 O.2       1 <1>        -0.514800 
     24 N           3.797000   -0.973000    0.289000 N.am      1 <1>        -0.561600 
     25 C           5.178000   -1.021000   -0.162000 C.3       1 <1>         0.134300 
     26 H           5.185000   -1.366000   -1.210000 H         1 <1>         0.084800 
     27 C           5.677000    0.410000   -0.055000 C.3       1 <1>        -0.465000 
     28 H           6.523000    0.331000    0.633000 H         1 <1>         0.175000 
     29 H           6.107000    0.754000   -1.014000 H         1 <1>         0.064300 
     30 C           4.592000    1.244000    0.448000 C.3       1 <1>         0.384600 
     31 H           4.327000    1.924000   -0.380000 H         1 <1>        -0.044800 
     32 C           3.371000    0.369000    0.675000 C.3       1 <1>        -0.165900 
     33 H           3.211000    0.366000    1.753000 H         1 <1>         0.122100 
     34 H           2.502000    0.712000    0.109000 H         1 <1>         0.006300 
     35 C           5.087000    2.175000    1.631000 C.3       1 <1>         0.077200 
     36 H           5.134000    1.515000    2.516000 H         1 <1>         0.102800 
     37 C           4.109000    3.362000    1.926000 C.3       1 <1>        -0.106800 
     38 H           3.952000    3.451000    3.014000 H         1 <1>         0.028500 
     39 H           3.133000    3.146000    1.476000 H         1 <1>        -0.003300 
     40 C           4.609000    4.755000    1.421000 C.3       1 <1>        -0.132100 
     41 H           3.753000    5.441000    1.298000 H         1 <1>         0.001400 
     42 H           5.285000    5.227000    2.154000 H         1 <1>         0.080100 
     43 C           5.383000    4.632000    0.084000 C.3       1 <1>        -0.020600 
     44 H           4.707000    4.202000   -0.672000 H         1 <1>         0.015400 
     45 H           5.680000    5.630000   -0.283000 H         1 <1>        -0.004200 
     46 C           6.649000    3.750000    0.274000 C.3       1 <1>        -0.085700 
     47 H           6.837000    3.173000   -0.646000 H         1 <1>         0.015100 
     48 H           7.534000    4.391000    0.439000 H         1 <1>         0.041400 
     49 C           6.518000    2.808000    1.504000 C.3       1 <1>        -0.238200 
     50 H           6.695000    3.387000    2.425000 H         1 <1>         0.069700 
     51 H           7.364000    2.107000    1.487000 H         1 <1>         0.086000 
     52 C           6.002000   -1.985000    0.678000 C.2       1 <1>         0.752500 
     53 O           7.161000   -2.183000    0.350000 O.2       1 <1>        -0.952800 
     54 O           5.451000   -2.633000    1.701000 O.3       1 <1>        -0.984300 
     55 O           0.730000   -5.316000   -0.278000 O.3       1 <1>        -1.047800 
     56 C          -0.847000   -4.766000    2.066000 C.3       1 <1>        -0.557900 
     57 H          -0.751000   -4.135000    2.963000 H         1 <1>         0.052500 
     58 H          -0.875000   -5.807000    2.421000 H         1 <1>         0.100100 
     59 C          -2.253000   -4.427000    1.432000 C.3       1 <1>        -0.039300 
     60 H          -2.514000   -5.197000    0.685000 H         1 <1>         0.076700 
     61 H          -3.032000   -4.450000    2.212000 H         1 <1>        -0.024400 
     62 C          -2.260000   -3.035000    0.732000 C.3       1 <1>         0.379900 
     63 H          -1.648000   -2.413000    1.381000 H         1 <1>        -0.086900 
     64 H          -1.726000   -3.233000   -0.211000 H         1 <1>         0.004800 
     65 C          -3.561000   -2.181000    0.465000 C.3       1 <1>        -0.766000 
     66 H          -4.311000   -2.837000   -0.007000 H         1 <1>         0.206000 
     67 H          -3.980000   -1.799000    1.410000 H         1 <1>         0.178000 
     68 C          -3.227000   -1.007000   -0.453000 C.ar      1 <1>         0.407700 
     69 C          -4.298000   -0.347000   -1.079000 C.ar      1 <1>        -0.342100 
     70 H          -5.321000   -0.637000   -0.859000 H         1 <1>         0.193600 
     71 C          -4.090000    0.680000   -2.004000 C.ar      1 <1>        -0.133900 
     72 H          -4.929000    1.205000   -2.453000 H         1 <1>         0.144000 
     73 C          -2.794000    1.049000   -2.367000 C.ar      1 <1>        -0.265800 
     74 H          -2.612000    1.844000   -3.084000 H         1 <1>         0.161800 
     75 C          -1.713000    0.373000   -1.798000 C.ar      1 <1>        -0.132600 
     76 H          -0.710000    0.635000   -2.117000 H         1 <1>         0.162400 
     77 C          -1.932000   -0.638000   -0.853000 C.ar      1 <1>        -0.331600 
     78 H          -1.065000   -1.100000   -0.418000 H         1 <1>         0.243300 
@<TRIPOS>BOND
     1    1    2 2    
     2    1    3 1    
     3    3    4 1    
     4    4    5 1    
     5    4    6 1    
     6    6    7 1    
     7    6    8 1    
     8    6    9 1    
     9    9   10 1    
    10    9   11 1    
    11    9   12 1    
    12   12   13 1    
    13   12   14 1    
    14   12   15 1    
    15   15   16 1    
    16   15   17 1    
    17   15   18 1    
    18   18   19 1    
    19   18   20 1    
    20   18   21 1    
    21    4   22 1    
    22   22   23 2    
    23   22   24 am   
    24   24   25 1    
    25   25   26 1    
    26   25   27 1    
    27   27   28 1    
    28   27   29 1    
    29   27   30 1    
    30   30   31 1    
    31   30   32 1    
    32   32   33 1    
    33   32   34 1    
    34   32   24 1    
    35   30   35 1    
    36   35   36 1    
    37   35   37 1    
    38   37   38 1    
    39   37   39 1    
    40   37   40 1    
    41   40   41 1    
    42   40   42 1    
    43   40   43 1    
    44   43   44 1    
    45   43   45 1    
    46   43   46 1    
    47   46   47 1    
    48   46   48 1    
    49   46   49 1    
    50   49   50 1    
    51   49   51 1    
    52   49   35 1    
    53   25   52 1    
    54   52   53 2    
    55   52   54 1    
    56    1   55 1    
    57    1   56 1    
    58   56   57 1    
    59   56   58 1    
    60   56   59 1    
    61   59   60 1    
    62   59   61 1    
    63   59   62 1    
    64   62   63 1    
    65   62   64 1    
    66   62   65 1    
    67   65   66 1    
    68   65   67 1    
    69   65   68 1    
    70   68   69 ar   
    71   69   70 1    
    72   69   71 ar   
    73   71   72 1    
    74   71   73 ar   
    75   73   74 1    
    76   73   75 ar   
    77   75   76 1    
    78   75   77 ar   
    79   77   78 1    
    80   77   68 ar   
@<TRIPOS>SUBSTRUCTURE
     1 ****        1 TEMP              0 ****  ****    0 ROOT 
@<TRIPOS>SET
UNITY_3DHIT     STATIC     ATOMS    <user>   **** Atoms matching 3D or FLEX Search
0
MATCH_ATOMS     DYNAMIC    ATOMS    <user>   **** 
(1,2,3,4,5,6,7,8,9,10,11,12,13,14,15,16,17,18,19,20,21,22,23,24,25,26,27,28,29,30,31,32)
ATOM$INVISIBLE  STATIC     ATOMS    DISPGROUP SYSTEM 
0
@<TRIPOS>UNITY_ATOM_ATTR
18 1
AtomExpr +1
54 1
AtomExpr -1
55 1
AtomExpr -1
