#	Name:			SQ29852_2R
#	Creating user name:	jeff
#	Creation time:		Wed Dec 11 13:20:54 2002

#	Modifying user name:	jeff
#	Modification time:	Wed Dec 11 13:20:54 2002

@<TRIPOS>MOLECULE
SQ29852_2R
   75    77     1     0     3
SMALL
USER_CHARGES
****
From 3DB ct
@<TRIPOS>ATOM
      1 P           0.299000   -4.465000    1.263000 P.3       1 <1>         1.638600 
      2 O           1.548000   -5.073000    1.804000 O.2       1 <1>        -1.023000 
      3 O           0.685000   -3.139000    0.443000 O.3       1 <1>        -0.863000 
      4 C           1.517000   -2.014000    0.746000 C.3       1 <1>         0.563000 
      5 H           1.133000   -1.206000    0.114000 H         1 <1>        -0.152600 
      6 C           1.334000   -1.646000    2.239000 C.3       1 <1>        -0.253300 
      7 H           1.207000   -2.566000    2.816000 H         1 <1>         0.160800 
      8 H           2.255000   -1.275000    2.699000 H         1 <1>         0.111100 
      9 C           0.219000   -0.587000    2.556000 C.3       1 <1>        -0.167300 
     10 H          -0.111000   -0.787000    3.590000 H         1 <1>         0.085900 
     11 H          -0.602000   -0.805000    1.888000 H         1 <1>         0.076500 
     12 C           0.400000    0.970000    2.392000 C.3       1 <1>        -0.174600 
     13 H          -0.173000    1.433000    3.213000 H         1 <1>         0.040700 
     14 H           1.426000    1.317000    2.542000 H         1 <1>         0.076800 
     15 C          -0.252000    1.609000    1.119000 C.3       1 <1>         0.223600 
     16 H           0.307000    1.406000    0.195000 H         1 <1>         0.196500 
     17 H          -1.273000    1.216000    0.983000 H         1 <1>         0.090900 
     18 N          -0.407000    3.071000    1.299000 N.4       1 <1>        -0.529600 
     19 H          -0.926000    3.508000    0.454000 H         1 <1>         0.401400 
     20 H           0.554000    3.549000    1.419000 H         1 <1>         0.474600 
     21 H          -0.894000    3.218000    2.041000 H         1 <1>         0.451500 
     22 C           2.987000   -2.072000    0.339000 C.2       1 <1>         0.545600 
     23 O           3.377000   -3.194000    0.018000 O.2       1 <1>        -0.506700 
     24 N           3.770000   -0.980000    0.283000 N.am      1 <1>        -0.504500 
     25 C           5.154000   -1.007000   -0.160000 C.3       1 <1>         0.268300 
     26 H           5.160000   -1.343000   -1.211000 H         1 <1>         0.048100 
     27 C           5.628000    0.433000   -0.057000 C.3       1 <1>        -0.539600 
     28 H           6.439000    0.365000    0.681000 H         1 <1>         0.196000 
     29 H           6.052000    0.778000   -1.018000 H         1 <1>         0.077100 
     30 C           4.526000    1.250000    0.436000 C.3       1 <1>         0.468100 
     31 H           4.243000    1.972000   -0.354000 H         1 <1>        -0.043300 
     32 C           3.318000    0.356000    0.661000 C.3       1 <1>        -0.216100 
     33 H           3.201000    0.365000    1.737000 H         1 <1>         0.170100 
     34 H           2.426000    0.701000    0.131000 H         1 <1>         0.021400 
     35 C           4.951000    2.118000    1.668000 C.3       1 <1>        -0.825600 
     36 H           4.025000    2.532000    2.100000 H         1 <1>         0.196200 
     37 H           5.419000    1.499000    2.453000 H         1 <1>         0.326600 
     38 C           5.897000    3.298000    1.325000 C.ar      1 <1>         0.341700 
     39 C           7.063000    3.171000    0.549000 C.ar      1 <1>        -0.255500 
     40 H           7.463000    2.221000    0.239000 H         1 <1>         0.205500 
     41 C           7.789000    4.292000    0.141000 C.ar      1 <1>        -0.135000 
     42 H           8.629000    4.173000   -0.541000 H         1 <1>         0.137800 
     43 C           7.441000    5.557000    0.614000 C.ar      1 <1>        -0.190900 
     44 H           8.020000    6.425000    0.316000 H         1 <1>         0.132800 
     45 C           6.347000    5.688000    1.471000 C.ar      1 <1>        -0.172300 
     46 H           6.089000    6.665000    1.870000 H         1 <1>         0.131700 
     47 C           5.582000    4.572000    1.817000 C.ar      1 <1>        -0.257100 
     48 H           4.733000    4.710000    2.481000 H         1 <1>         0.149100 
     49 C           5.992000   -2.009000    0.659000 C.2       1 <1>         0.697300 
     50 O           7.160000   -2.187000    0.352000 O.2       1 <1>        -0.942000 
     51 O           5.451000   -2.615000    1.712000 O.3       1 <1>        -0.957900 
     52 O          -0.307000   -5.391000    0.111000 O.3       1 <1>        -1.038500 
     53 C          -0.997000   -4.263000    2.599000 C.3       1 <1>        -0.551800 
     54 H          -0.735000   -3.475000    3.318000 H         1 <1>         0.045300 
     55 H          -1.005000   -5.209000    3.158000 H         1 <1>         0.098300 
     56 C          -2.445000   -3.958000    2.098000 C.3       1 <1>        -0.026800 
     57 H          -2.715000   -4.716000    1.349000 H         1 <1>         0.070200 
     58 H          -3.161000   -4.008000    2.934000 H         1 <1>        -0.028900 
     59 C          -2.487000   -2.534000    1.487000 C.3       1 <1>         0.392100 
     60 H          -2.497000   -1.786000    2.293000 H         1 <1>        -0.102400 
     61 H          -1.563000   -2.527000    0.924000 H         1 <1>        -0.007800 
     62 C          -3.574000   -2.161000    0.455000 C.3       1 <1>        -0.741400 
     63 H          -3.744000   -3.027000   -0.207000 H         1 <1>         0.201900 
     64 H          -4.504000   -1.970000    1.014000 H         1 <1>         0.168100 
     65 C          -3.192000   -0.994000   -0.467000 C.ar      1 <1>         0.405000 
     66 C          -4.299000   -0.339000   -1.022000 C.ar      1 <1>        -0.362200 
     67 H          -5.311000   -0.608000   -0.739000 H         1 <1>         0.195500 
     68 C          -4.124000    0.683000   -1.960000 C.ar      1 <1>        -0.134200 
     69 H          -4.989000    1.194000   -2.370000 H         1 <1>         0.144800 
     70 C          -2.841000    1.056000   -2.373000 C.ar      1 <1>        -0.268900 
     71 H          -2.707000    1.857000   -3.093000 H         1 <1>         0.164400 
     72 C          -1.735000    0.384000   -1.851000 C.ar      1 <1>        -0.115500 
     73 H          -0.735000    0.655000   -2.181000 H         1 <1>         0.163300 
     74 C          -1.912000   -0.634000   -0.912000 C.ar      1 <1>        -0.338700 
     75 H          -1.018000   -1.132000   -0.589000 H         1 <1>         0.251000 
@<TRIPOS>BOND
     1    1    2 2    
     2    1    3 1    
     3    3    4 1    
     4    4    5 1    
     5    4    6 1    
     6    6    7 1    
     7    6    8 1    
     8    6    9 1    
     9    9   10 1    
    10    9   11 1    
    11    9   12 1    
    12   12   13 1    
    13   12   14 1    
    14   12   15 1    
    15   15   16 1    
    16   15   17 1    
    17   15   18 1    
    18   18   19 1    
    19   18   20 1    
    20   18   21 1    
    21    4   22 1    
    22   22   23 2    
    23   22   24 am   
    24   24   25 1    
    25   25   26 1    
    26   25   27 1    
    27   27   28 1    
    28   27   29 1    
    29   27   30 1    
    30   30   31 1    
    31   30   32 1    
    32   32   33 1    
    33   32   34 1    
    34   32   24 1    
    35   30   35 1    
    36   35   36 1    
    37   35   37 1    
    38   35   38 1    
    39   38   39 ar   
    40   39   40 1    
    41   39   41 ar   
    42   41   42 1    
    43   41   43 ar   
    44   43   44 1    
    45   43   45 ar   
    46   45   46 1    
    47   45   47 ar   
    48   47   48 1    
    49   47   38 ar   
    50   25   49 1    
    51   49   50 2    
    52   49   51 1    
    53    1   52 1    
    54    1   53 1    
    55   53   54 1    
    56   53   55 1    
    57   53   56 1    
    58   56   57 1    
    59   56   58 1    
    60   56   59 1    
    61   59   60 1    
    62   59   61 1    
    63   59   62 1    
    64   62   63 1    
    65   62   64 1    
    66   62   65 1    
    67   65   66 ar   
    68   66   67 1    
    69   66   68 ar   
    70   68   69 1    
    71   68   70 ar   
    72   70   71 1    
    73   70   72 ar   
    74   72   73 1    
    75   72   74 ar   
    76   74   75 1    
    77   74   65 ar   
@<TRIPOS>SUBSTRUCTURE
     1 ****        1 TEMP              0 ****  ****    0 ROOT 
@<TRIPOS>SET
UNITY_3DHIT     STATIC     ATOMS    <user>   **** Atoms matching 3D or FLEX Search
0
MATCH_ATOMS     DYNAMIC    ATOMS    <user>   **** 
(1,2,3,4,5,6,7,8,9,10,11,12,13,14,15,16,17,18,19,20,21,22,23,24,25,26,27,28,29,30,31,32)
ATOM$INVISIBLE  STATIC     ATOMS    DISPGROUP SYSTEM 
0
@<TRIPOS>UNITY_ATOM_ATTR
18 1
AtomExpr +1
51 1
AtomExpr -1
52 1
AtomExpr -1
