#	Name:			THIOL_18
#	Creating user name:	jeff
#	Creation time:		Wed Dec 11 13:20:55 2002

#	Modifying user name:	jeff
#	Modification time:	Wed Dec 11 13:20:55 2002

@<TRIPOS>MOLECULE
THIOL_18
   32    33     1     0     3
SMALL
USER_CHARGES
INVALID_CHARGES
From 3DB ct
@<TRIPOS>ATOM
      1 S          -2.033000   -3.225000   -1.350000 S.3       1 <1>        -0.160300 
      2 H          -3.073000   -3.395000   -1.396000 H         1 <1>         0.076300 
      3 C          -1.750000   -1.490000   -0.883000 C.3       1 <1>        -0.432400 
      4 H          -2.491000   -1.258000   -0.102000 H         1 <1>         0.154700 
      5 H          -2.036000   -0.922000   -1.780000 H         1 <1>         0.159400 
      6 C          -0.252000   -0.756000   -0.348000 C.2       1 <1>         0.904600 
      7 O           0.218000   -1.882000   -0.499000 O.2       1 <1>        -0.637100 
      8 N           0.484000    0.384000   -0.258000 N.am      1 <1>        -1.006200 
      9 H           0.042000    1.265000   -0.106000 H         1 <1>         0.481700 
     10 C           1.906000    0.250000   -0.725000 C.3       1 <1>         0.331100 
     11 H           1.941000   -0.191000   -1.735000 H         1 <1>         0.019800 
     12 C           2.476000    1.690000   -0.713000 C.3       1 <1>        -0.096000 
     13 H           2.204000    2.284000    0.171000 H         1 <1>         0.033900 
     14 H           3.574000    1.656000   -0.788000 H         1 <1>         0.095400 
     15 C           1.976000    2.292000   -2.028000 C.ar      1 <1>        -0.268800 
     16 C           0.849000    1.979000   -2.705000 C.ar      1 <1>        -0.101800 
     17 H           0.052000    1.280000   -2.456000 H         1 <1>         0.329800 
     18 N           0.788000    2.633000   -3.831000 N.pl3     1 <1>        -0.622300 
     19 H           0.025000    2.536000   -4.520000 H         1 <1>         0.453700 
     20 C           1.864000    3.418000   -3.997000 C.ar      1 <1>         0.263600 
     21 C           2.677000    3.325000   -2.881000 C.ar      1 <1>         0.073200 
     22 C           3.841000    4.085000   -2.774000 C.ar      1 <1>        -0.166200 
     23 H           4.461000    4.043000   -1.885000 H         1 <1>         0.213900 
     24 C           4.170000    4.903000   -3.866000 C.ar      1 <1>        -0.227000 
     25 H           5.065000    5.515000   -3.820000 H         1 <1>         0.135100 
     26 C           3.367000    4.950000   -5.016000 C.ar      1 <1>        -0.106000 
     27 H           3.661000    5.569000   -5.857000 H         1 <1>         0.120100 
     28 C           2.184000    4.207000   -5.099000 C.ar      1 <1>        -0.397200 
     29 H           1.545000    4.234000   -5.975000 H         1 <1>         0.173800 
     30 C           2.779000   -0.703000    0.083000 C.2       1 <1>         0.675500 
     31 O           3.950000   -0.861000   -0.221000 O.2       1 <1>        -0.924600 
     32 O           2.239000   -1.332000    1.125000 O.3       1 <1>        -0.972100 
@<TRIPOS>BOND
     1    2    1 1    
     2    1    3 1    
     3    3    4 1    
     4    3    5 1    
     5    3    6 1    
     6    6    7 2    
     7    6    8 am   
     8    8    9 1    
     9    8   10 1    
    10   10   11 1    
    11   10   12 1    
    12   12   13 1    
    13   12   14 1    
    14   12   15 1    
    15   15   16 ar   
    16   16   17 1    
    17   16   18 ar   
    18   18   19 1    
    19   18   20 ar   
    20   20   21 ar   
    21   21   15 ar   
    22   21   22 ar   
    23   22   23 1    
    24   22   24 ar   
    25   24   25 1    
    26   24   26 ar   
    27   26   27 1    
    28   26   28 ar   
    29   28   29 1    
    30   28   20 ar   
    31   10   30 1    
    32   30   31 2    
    33   30   32 1    
@<TRIPOS>SUBSTRUCTURE
     1 ****        2 TEMP              0 ****  ****    0 ROOT 
@<TRIPOS>SET
UNITY_3DHIT     STATIC     ATOMS    <user>   **** Atoms matching 3D or FLEX Search
0
MATCH_ATOMS     DYNAMIC    ATOMS    <user>   **** 
(1,2,3,4,5,6,7,8,9,10,11,12,13,14,15,16,17,18,19,20,21,22,23,24,25,26,27,28,29,30,31,32)
ATOM$INVISIBLE  STATIC     ATOMS    DISPGROUP SYSTEM 
0
@<TRIPOS>UNITY_ATOM_ATTR
32 1
AtomExpr -1
