#	Name:			THIOL_20B
#	Creating user name:	jeff
#	Creation time:		Wed Dec 11 13:20:55 2002

#	Modifying user name:	jeff
#	Modification time:	Wed Dec 11 13:20:55 2002

@<TRIPOS>MOLECULE
THIOL_20B
   35    36     1     0     3
SMALL
USER_CHARGES
INVALID_CHARGES
From 3DB ct
@<TRIPOS>ATOM
      1 S          -1.967000   -2.794000   -2.104000 S.3       1 <1>        -0.193300 
      2 H          -2.999000   -2.946000   -2.260000 H         1 <1>         0.090700 
      3 C          -1.756000   -1.529000   -0.807000 C.3       1 <1>        -0.285600 
      4 H          -2.377000   -0.693000   -1.167000 H         1 <1>         0.125400 
      5 C          -2.425000   -2.079000    0.478000 C.3       1 <1>        -0.165400 
      6 H          -3.452000   -2.416000    0.274000 H         1 <1>         0.046800 
      7 H          -2.463000   -1.295000    1.248000 H         1 <1>         0.096100 
      8 H          -1.845000   -2.928000    0.868000 H         1 <1>         0.062100 
      9 C          -0.252000   -0.758000   -0.336000 C.2       1 <1>         1.021900 
     10 O           0.217000   -1.881000   -0.514000 O.2       1 <1>        -0.650900 
     11 N           0.483000    0.383000   -0.262000 N.am      1 <1>        -1.175800 
     12 H           0.043000    1.261000   -0.087000 H         1 <1>         0.556900 
     13 C           1.905000    0.250000   -0.729000 C.3       1 <1>         0.333300 
     14 H           1.937000   -0.172000   -1.748000 H         1 <1>         0.031500 
     15 C           2.476000    1.689000   -0.710000 C.3       1 <1>        -0.324300 
     16 H           2.216000    2.263000    0.191000 H         1 <1>         0.100600 
     17 H           3.573000    1.653000   -0.794000 H         1 <1>         0.156300 
     18 C           1.962000    2.336000   -1.994000 C.ar      1 <1>        -0.104400 
     19 C           0.830000    2.050000   -2.673000 C.ar      1 <1>        -0.097000 
     20 H           0.048000    1.330000   -2.445000 H         1 <1>         0.309400 
     21 N           0.742000    2.771000   -3.757000 N.pl3     1 <1>        -0.601900 
     22 H          -0.036000    2.714000   -4.435000 H         1 <1>         0.454200 
     23 C           1.804000    3.580000   -3.892000 C.ar      1 <1>         0.221400 
     24 C           2.648000    3.411000   -2.808000 C.ar      1 <1>        -0.013900 
     25 C           3.824000    4.151000   -2.694000 C.ar      1 <1>        -0.112200 
     26 H           4.486000    4.026000   -1.844000 H         1 <1>         0.175800 
     27 C           4.115000    5.056000   -3.726000 C.ar      1 <1>        -0.252900 
     28 H           5.017000    5.658000   -3.671000 H         1 <1>         0.141800 
     29 C           3.264000    5.203000   -4.835000 C.ar      1 <1>        -0.104100 
     30 H           3.523000    5.901000   -5.627000 H         1 <1>         0.120900 
     31 C           2.083000    4.460000   -4.937000 C.ar      1 <1>        -0.355200 
     32 H           1.414000    4.555000   -5.788000 H         1 <1>         0.165300 
     33 C           2.775000   -0.710000    0.080000 C.2       1 <1>         0.741400 
     34 O           3.946000   -0.864000   -0.225000 O.2       1 <1>        -0.944300 
     35 O           2.245000   -1.321000    1.138000 O.3       1 <1>        -0.992800 
@<TRIPOS>BOND
     1    2    1 1    
     2    1    3 1    
     3    3    4 1    
     4    3    5 1    
     5    5    6 1    
     6    5    7 1    
     7    5    8 1    
     8    3    9 1    
     9    9   10 2    
    10    9   11 am   
    11   11   12 1    
    12   11   13 1    
    13   13   14 1    
    14   13   15 1    
    15   15   16 1    
    16   15   17 1    
    17   15   18 1    
    18   18   19 ar   
    19   19   20 1    
    20   19   21 ar   
    21   21   22 1    
    22   21   23 ar   
    23   23   24 ar   
    24   24   18 ar   
    25   24   25 ar   
    26   25   26 1    
    27   25   27 ar   
    28   27   28 1    
    29   27   29 ar   
    30   29   30 1    
    31   29   31 ar   
    32   31   32 1    
    33   31   23 ar   
    34   13   33 1    
    35   33   34 2    
    36   33   35 1    
@<TRIPOS>SUBSTRUCTURE
     1 ****        2 TEMP              0 ****  ****    0 ROOT 
@<TRIPOS>SET
UNITY_3DHIT     STATIC     ATOMS    <user>   **** Atoms matching 3D or FLEX Search
0
MATCH_ATOMS     DYNAMIC    ATOMS    <user>   **** 
(1,2,3,4,5,6,7,8,9,10,11,12,13,14,15,16,17,18,19,20,21,22,23,24,25,26,27,28,29,30,31,32)
ATOM$INVISIBLE  STATIC     ATOMS    DISPGROUP SYSTEM 
0
@<TRIPOS>UNITY_ATOM_ATTR
35 1
AtomExpr -1
