#	Name:			THIOL_4
#	Creating user name:	jeff
#	Creation time:		Wed Dec 11 13:20:55 2002

#	Modifying user name:	jeff
#	Modification time:	Wed Dec 11 13:20:55 2002

@<TRIPOS>MOLECULE
THIOL_4
   29    28     1     0     3
SMALL
USER_CHARGES
INVALID_CHARGES
From 3DB ct
@<TRIPOS>ATOM
      1 S          -2.263000   -2.056000   -2.217000 S.3       1 <1>        -0.167600 
      2 H          -3.317000   -2.064000   -2.249000 H         1 <1>         0.048300 
      3 C          -1.734000   -1.614000   -0.518000 C.3       1 <1>        -0.038700 
      4 C          -1.692000   -3.084000    0.065000 C.3       1 <1>        -0.454800 
      5 H          -2.706000   -3.501000    0.148000 H         1 <1>         0.106400 
      6 H          -1.209000   -3.092000    1.055000 H         1 <1>         0.173500 
      7 H          -1.112000   -3.769000   -0.573000 H         1 <1>         0.114300 
      8 C          -2.686000   -0.867000    0.456000 C.3       1 <1>        -0.468300 
      9 H          -3.661000   -1.358000    0.522000 H         1 <1>         0.108200 
     10 H          -2.853000    0.157000    0.121000 H         1 <1>         0.141700 
     11 H          -2.231000   -0.834000    1.464000 H         1 <1>         0.163500 
     12 C          -0.263000   -0.761000   -0.316000 C.2       1 <1>         0.940600 
     13 O           0.255000   -1.847000   -0.518000 O.2       1 <1>        -0.661600 
     14 N           0.488000    0.371000   -0.263000 N.am      1 <1>        -0.828600 
     15 H           0.065000    1.246000   -0.063000 H         1 <1>         0.479900 
     16 C           1.911000    0.254000   -0.732000 C.3       1 <1>        -0.056400 
     17 H           1.943000   -0.123000   -1.769000 H         1 <1>         0.078000 
     18 C           2.481000    1.692000   -0.691000 C.3       1 <1>         0.062200 
     19 H           2.316000    2.108000    0.320000 H         1 <1>         0.014800 
     20 H           3.572000    1.681000   -0.847000 H         1 <1>         0.031700 
     21 C           1.826000    2.629000   -1.752000 C.3       1 <1>        -0.214100 
     22 H           2.244000    2.389000   -2.740000 H         1 <1>         0.007100 
     23 H           0.735000    2.497000   -1.806000 H         1 <1>        -0.007200 
     24 C           2.083000    4.089000   -1.491000 C.2       1 <1>         0.873000 
     25 O           2.822000    4.462000   -0.592000 O.2       1 <1>        -1.031400 
     26 O           1.444000    4.932000   -2.310000 O.3       1 <1>        -1.062900 
     27 C           2.799000   -0.668000    0.124000 C.2       1 <1>         0.789300 
     28 O           3.957000   -0.867000   -0.210000 O.2       1 <1>        -0.953200 
     29 O           2.234000   -1.355000    1.114000 O.3       1 <1>        -1.031600 
@<TRIPOS>BOND
     1    2    1 1    
     2    1    3 1    
     3    3    4 1    
     4    4    5 1    
     5    4    6 1    
     6    4    7 1    
     7    3    8 1    
     8    8    9 1    
     9    8   10 1    
    10    8   11 1    
    11    3   12 1    
    12   12   13 2    
    13   12   14 am   
    14   14   15 1    
    15   14   16 1    
    16   16   17 1    
    17   16   18 1    
    18   18   19 1    
    19   18   20 1    
    20   18   21 1    
    21   21   22 1    
    22   21   23 1    
    23   21   24 1    
    24   24   25 2    
    25   24   26 1    
    26   16   27 1    
    27   27   28 2    
    28   27   29 1    
@<TRIPOS>SUBSTRUCTURE
     1 ****        2 TEMP              0 ****  ****    0 ROOT 
@<TRIPOS>SET
UNITY_3DHIT     STATIC     ATOMS    <user>   **** Atoms matching 3D or FLEX Search
0
MATCH_ATOMS     DYNAMIC    ATOMS    <user>   **** 
(1,2,3,4,5,6,7,8,9,10,11,12,13,14,15,16,17,18,19,20,21,22,23,24,25,26,27,28,29,30,31,32)
ATOM$INVISIBLE  STATIC     ATOMS    DISPGROUP SYSTEM 
0
@<TRIPOS>UNITY_ATOM_ATTR
26 1
AtomExpr -1
29 1
AtomExpr -1
