#	Name:			THIOL_7A
#	Creating user name:	jeff
#	Creation time:		Wed Dec 11 13:20:55 2002

#	Modifying user name:	jeff
#	Modification time:	Wed Dec 11 13:20:55 2002

@<TRIPOS>MOLECULE
THIOL_7A
   22    21     1     0     3
SMALL
USER_CHARGES
INVALID_CHARGES
From 3DB ct
@<TRIPOS>ATOM
      1 S          -3.289000   -2.050000   -0.943000 S.3       1 <1>        -0.162700 
      2 H          -3.875000   -1.197000   -1.151000 H         1 <1>         0.096000 
      3 C          -1.527000   -1.587000   -1.056000 C.3       1 <1>        -0.304200 
      4 H          -1.501000   -1.217000   -2.096000 H         1 <1>         0.138800 
      5 C          -1.376000   -3.225000   -1.140000 C.3       1 <1>        -0.231700 
      6 H          -1.302000   -3.592000   -0.095000 H         1 <1>         0.082900 
      7 H          -0.452000   -3.527000   -1.656000 H         1 <1>         0.092100 
      8 H          -2.059000   -3.934000   -1.658000 H         1 <1>         0.077300 
      9 C          -0.239000   -0.743000   -0.353000 C.2       1 <1>         0.782300 
     10 O           0.266000   -1.852000   -0.455000 O.2       1 <1>        -0.700900 
     11 N           0.486000    0.394000   -0.266000 N.am      1 <1>        -0.521100 
     12 H           0.026000    1.281000   -0.184000 H         1 <1>         0.450800 
     13 C           1.904000    0.254000   -0.738000 C.3       1 <1>        -0.180500 
     14 H           1.918000   -0.093000   -1.786000 H         1 <1>         0.122000 
     15 C           2.487000    1.686000   -0.695000 C.3       1 <1>        -0.075300 
     16 H           2.337000    2.141000    0.297000 H         1 <1>         0.059500 
     17 H           3.571000    1.645000   -0.888000 H         1 <1>         0.177300 
     18 S           1.814000    2.762000   -2.010000 S.3       1 <1>        -0.388500 
     19 H           0.875000    2.888000   -1.668000 H         1 <1>         0.188200 
     20 C           2.775000   -0.705000    0.080000 C.2       1 <1>         0.756700 
     21 O           3.951000   -0.862000   -0.211000 O.2       1 <1>        -0.911900 
     22 O           2.235000   -1.325000    1.127000 O.3       1 <1>        -0.969200 
@<TRIPOS>BOND
     1    2    1 1    
     2    1    3 1    
     3    3    4 1    
     4    3    5 1    
     5    5    6 1    
     6    5    7 1    
     7    5    8 1    
     8    3    9 1    
     9    9   10 2    
    10    9   11 am   
    11   11   12 1    
    12   11   13 1    
    13   13   14 1    
    14   13   15 1    
    15   15   16 1    
    16   15   17 1    
    17   15   18 1    
    18   18   19 1    
    19   13   20 1    
    20   20   21 2    
    21   20   22 1    
@<TRIPOS>SUBSTRUCTURE
     1 ****        2 TEMP              0 ****  ****    0 ROOT 
@<TRIPOS>SET
UNITY_3DHIT     STATIC     ATOMS    <user>   **** Atoms matching 3D or FLEX Search
0
MATCH_ATOMS     DYNAMIC    ATOMS    <user>   **** 
(1,2,3,4,5,6,7,8,9,10,11,12,13,14,15,16,17,18,19,20,21,22,23,24,25,26,27,28,29,30,31,32)
ATOM$INVISIBLE  STATIC     ATOMS    DISPGROUP SYSTEM 
0
@<TRIPOS>UNITY_ATOM_ATTR
22 1
AtomExpr -1
