#	Name:			THIOL_22
#	Creating user name:	jeff
#	Creation time:		Wed Dec 11 13:20:55 2002

#	Modifying user name:	jeff
#	Modification time:	Wed Dec 11 13:20:55 2002

@<TRIPOS>MOLECULE
THIOL_22
   38    39     1     0     3
SMALL
USER_CHARGES
INVALID_CHARGES
From 3DB ct
@<TRIPOS>ATOM
      1 S          -3.343000   -2.154000   -1.534000 S.3       1 <1>        -0.144000 
      2 H          -4.225000   -1.754000   -1.115000 H         1 <1>         0.078400 
      3 C          -1.904000   -1.375000   -0.718000 C.3       1 <1>        -0.201500 
      4 C          -2.488000   -1.169000    0.716000 C.3       1 <1>        -0.379100 
      5 H          -2.151000   -2.002000    1.351000 H         1 <1>         0.115800 
      6 H          -3.589000   -1.121000    0.781000 H         1 <1>         0.108300 
      7 H          -2.133000   -0.229000    1.168000 H         1 <1>         0.146300 
      8 C          -2.249000   -0.073000   -1.573000 C.3       1 <1>        -0.351000 
      9 H          -1.749000    0.853000   -1.280000 H         1 <1>         0.119900 
     10 H          -3.298000    0.283000   -1.547000 H         1 <1>         0.115600 
     11 H          -1.952000   -0.233000   -2.625000 H         1 <1>         0.100400 
     12 C          -0.261000   -0.757000   -0.346000 C.2       1 <1>         1.055300 
     13 O           0.201000   -1.886000   -0.511000 O.2       1 <1>        -0.679500 
     14 N           0.482000    0.378000   -0.267000 N.am      1 <1>        -0.930700 
     15 H           0.047000    1.260000   -0.102000 H         1 <1>         0.495300 
     16 C           1.898000    0.255000   -0.726000 C.3       1 <1>         0.086900 
     17 H           1.893000   -0.170000   -1.747000 H         1 <1>         0.045300 
     18 C           2.497000    1.689000   -0.703000 C.3       1 <1>        -0.210100 
     19 H           3.544000    1.651000   -0.368000 H         1 <1>         0.117500 
     20 H           2.541000    1.936000   -1.776000 H         1 <1>         0.064200 
     21 C           1.982000    3.002000   -0.156000 C.ar      1 <1>        -0.089600 
     22 C           1.160000    3.340000    0.856000 C.ar      1 <1>         0.001300 
     23 H           0.681000    2.669000    1.569000 H         1 <1>         0.308800 
     24 N           0.998000    4.641000    0.872000 N.pl3     1 <1>        -0.676800 
     25 H           0.401000    5.143000    1.548000 H         1 <1>         0.464300 
     26 C           1.708000    5.250000   -0.098000 C.ar      1 <1>         0.278200 
     27 C           2.432000    4.298000   -0.785000 C.ar      1 <1>        -0.084400 
     28 C           3.342000    4.633000   -1.788000 C.ar      1 <1>        -0.061900 
     29 H           3.949000    3.881000   -2.282000 H         1 <1>         0.154700 
     30 C           3.447000    5.989000   -2.121000 C.ar      1 <1>        -0.281600 
     31 H           4.148000    6.294000   -2.892000 H         1 <1>         0.141300 
     32 C           2.660000    6.953000   -1.472000 C.ar      1 <1>        -0.091000 
     33 H           2.738000    7.993000   -1.776000 H         1 <1>         0.117900 
     34 C           1.778000    6.601000   -0.440000 C.ar      1 <1>        -0.375900 
     35 H           1.174000    7.344000    0.069000 H         1 <1>         0.169700 
     36 C           2.778000   -0.699000    0.084000 C.2       1 <1>         0.782000 
     37 O           3.948000   -0.861000   -0.220000 O.2       1 <1>        -0.922100 
     38 O           2.236000   -1.336000    1.120000 O.3       1 <1>        -1.010400 
@<TRIPOS>BOND
     1    2    1 1    
     2    1    3 1    
     3    3    4 1    
     4    4    5 1    
     5    4    6 1    
     6    4    7 1    
     7    3    8 1    
     8    8    9 1    
     9    8   10 1    
    10    8   11 1    
    11    3   12 1    
    12   12   13 2    
    13   12   14 am   
    14   14   15 1    
    15   14   16 1    
    16   16   17 1    
    17   16   18 1    
    18   18   19 1    
    19   18   20 1    
    20   18   21 1    
    21   21   22 ar   
    22   22   23 1    
    23   22   24 ar   
    24   24   25 1    
    25   24   26 ar   
    26   26   27 ar   
    27   27   21 ar   
    28   27   28 ar   
    29   28   29 1    
    30   28   30 ar   
    31   30   31 1    
    32   30   32 ar   
    33   32   33 1    
    34   32   34 ar   
    35   34   35 1    
    36   34   26 ar   
    37   16   36 1    
    38   36   37 2    
    39   36   38 1    
@<TRIPOS>SUBSTRUCTURE
     1 ****        2 TEMP              0 ****  ****    0 ROOT 
@<TRIPOS>SET
UNITY_3DHIT     STATIC     ATOMS    <user>   **** Atoms matching 3D or FLEX Search
0
MATCH_ATOMS     DYNAMIC    ATOMS    <user>   **** 
(1,2,3,4,5,6,7,8,9,10,11,12,13,14,15,16,17,18,19,20,21,22,23,24,25,26,27,28,29,30,31,32)
ATOM$INVISIBLE  STATIC     ATOMS    DISPGROUP SYSTEM 
0
@<TRIPOS>UNITY_ATOM_ATTR
38 1
AtomExpr -1
