#	Name:			THIOL_28
#	Creating user name:	jeff
#	Creation time:		Wed Dec 11 13:20:55 2002

#	Modifying user name:	jeff
#	Modification time:	Wed Dec 11 13:20:55 2002

@<TRIPOS>MOLECULE
THIOL_28
   35    36     1     0     3
SMALL
USER_CHARGES
INVALID_CHARGES
From 3DB ct
@<TRIPOS>ATOM
      1 S          -1.656000   -3.096000   -1.345000 S.3       1 <1>        -0.202200 
      2 H          -2.401000   -3.765000   -1.677000 H         1 <1>         0.082400 
      3 C          -2.469000   -1.637000   -0.621000 C.3       1 <1>        -0.012400 
      4 H          -3.458000   -1.844000   -0.178000 H         1 <1>         0.015000 
      5 H          -2.620000   -1.012000   -1.514000 H         1 <1>         0.089400 
      6 C          -1.589000   -0.820000    0.360000 C.3       1 <1>        -0.256400 
      7 H          -1.509000   -1.371000    1.313000 H         1 <1>         0.141800 
      8 H          -2.019000    0.171000    0.575000 H         1 <1>         0.073300 
      9 C          -0.205000   -0.736000   -0.218000 C.2       1 <1>         0.659200 
     10 O           0.231000   -1.847000   -0.514000 O.2       1 <1>        -0.647800 
     11 N           0.498000    0.423000   -0.315000 N.am      1 <1>        -0.737600 
     12 H           0.094000    1.290000   -0.031000 H         1 <1>         0.464700 
     13 C           1.915000    0.284000   -0.687000 C.3       1 <1>         0.174400 
     14 H           2.359000   -0.258000   -0.045000 H         1 <1>         0.020200 
     15 C           2.498000    1.720000   -0.705000 C.3       1 <1>        -0.154900 
     16 H           3.551000    1.868000   -0.369000 H         1 <1>         0.033400 
     17 H           2.537000    1.909000   -1.788000 H         1 <1>         0.096800 
     18 C           1.669000    2.899000   -0.124000 C.ar      1 <1>        -0.170000 
     19 C           0.936000    3.035000    1.011000 C.ar      1 <1>        -0.131900 
     20 H           0.909000    2.369000    1.875000 H         1 <1>         0.277800 
     21 N           0.096000    4.036000    0.895000 N.pl3     1 <1>        -0.576500 
     22 H          -0.655000    4.255000    1.571000 H         1 <1>         0.438200 
     23 C           0.298000    4.704000   -0.252000 C.ar      1 <1>         0.202100 
     24 C           1.423000    4.184000   -0.858000 C.ar      1 <1>         0.025000 
     25 C           2.117000    4.855000   -1.851000 C.ar      1 <1>        -0.025600 
     26 H           2.993000    4.417000   -2.316000 H         1 <1>         0.219400 
     27 C           1.631000    6.135000   -2.136000 C.ar      1 <1>        -0.297500 
     28 H           2.266000    6.813000   -2.695000 H         1 <1>         0.148800 
     29 C           0.364000    6.553000   -1.691000 C.ar      1 <1>        -0.056000 
     30 H          -0.023000    7.513000   -2.013000 H         1 <1>         0.109800 
     31 C          -0.400000    5.770000   -0.816000 C.ar      1 <1>        -0.403800 
     32 H          -1.444000    5.981000   -0.587000 H         1 <1>         0.166200 
     33 C           2.022000   -0.293000   -1.958000 C.2       1 <1>         0.711200 
     34 O           3.089000   -0.847000   -2.303000 O.2       1 <1>        -0.929100 
     35 O           0.974000   -0.249000   -2.808000 O.3       1 <1>        -0.969200 
@<TRIPOS>BOND
     1    2    1 1    
     2    1    3 1    
     3    3    4 1    
     4    3    5 1    
     5    3    6 1    
     6    6    7 1    
     7    6    8 1    
     8    6    9 1    
     9    9   10 2    
    10    9   11 am   
    11   11   12 1    
    12   11   13 1    
    13   13   14 1    
    14   13   15 1    
    15   15   16 1    
    16   15   17 1    
    17   15   18 1    
    18   18   19 ar   
    19   19   20 1    
    20   19   21 ar   
    21   21   22 1    
    22   21   23 ar   
    23   23   24 ar   
    24   24   18 ar   
    25   24   25 ar   
    26   25   26 1    
    27   25   27 ar   
    28   27   28 1    
    29   27   29 ar   
    30   29   30 1    
    31   29   31 ar   
    32   31   32 1    
    33   31   23 ar   
    34   13   33 1    
    35   33   34 2    
    36   33   35 1    
@<TRIPOS>SUBSTRUCTURE
     1 ****        2 TEMP              0 ****  ****    0 ROOT 
@<TRIPOS>SET
UNITY_3DHIT     STATIC     ATOMS    <user>   **** Atoms matching 3D or FLEX Search
0
MATCH_ATOMS     DYNAMIC    ATOMS    <user>   **** 
(1,2,3,4,5,6,7,8,9,10,11,12,13,14,15,16,17,18,19,20,21,22,23,24,25,26,27,28,29,30,31,32)
ATOM$INVISIBLE  STATIC     ATOMS    DISPGROUP SYSTEM 
0
@<TRIPOS>UNITY_ATOM_ATTR
35 1
AtomExpr -1
