#	Name:			THIOL_7B
#	Creating user name:	jeff
#	Creation time:		Wed Dec 11 13:20:55 2002

#	Modifying user name:	jeff
#	Modification time:	Wed Dec 11 13:20:55 2002

@<TRIPOS>MOLECULE
THIOL_7B
   22    21     1     0     3
SMALL
USER_CHARGES
INVALID_CHARGES
From 3DB ct
@<TRIPOS>ATOM
      1 S          -3.304000   -1.681000   -1.436000 S.3       1 <1>        -0.139100 
      2 H          -4.105000   -1.647000   -0.750000 H         1 <1>         0.061600 
      3 C          -1.741000   -1.635000   -0.505000 C.3       1 <1>        -0.060700 
      4 H          -2.144000   -0.628000   -0.341000 H         1 <1>         0.067400 
      5 C          -1.868000   -2.217000    0.936000 C.3       1 <1>        -0.347300 
      6 H          -1.292000   -1.635000    1.680000 H         1 <1>         0.096000 
      7 H          -1.456000   -3.232000    0.938000 H         1 <1>         0.093900 
      8 H          -2.899000   -2.233000    1.304000 H         1 <1>         0.083800 
      9 C          -0.252000   -0.760000   -0.302000 C.2       1 <1>         0.967000 
     10 O           0.225000   -1.860000   -0.539000 O.2       1 <1>        -0.714100 
     11 N           0.481000    0.376000   -0.285000 N.am      1 <1>        -0.903300 
     12 H           0.044000    1.255000   -0.085000 H         1 <1>         0.414600 
     13 C           1.905000    0.251000   -0.738000 C.3       1 <1>         0.196600 
     14 H           2.539000   -0.426000   -0.132000 H         1 <1>         0.024400 
     15 C           2.483000    1.684000   -0.701000 C.3       1 <1>        -0.292700 
     16 H           2.450000    2.089000    0.323000 H         1 <1>         0.150200 
     17 H           3.534000    1.672000   -1.043000 H         1 <1>         0.122600 
     18 S           1.536000    2.779000   -1.826000 S.3       1 <1>        -0.304200 
     19 H           1.185000    2.086000   -2.470000 H         1 <1>         0.190800 
     20 C           1.941000   -0.285000   -2.171000 C.2       1 <1>         0.779600 
     21 O           1.604000   -1.436000   -2.399000 O.2       1 <1>        -0.968400 
     22 O           2.420000    0.497000   -3.135000 O.3       1 <1>        -0.940500 
@<TRIPOS>BOND
     1    2    1 1    
     2    1    3 1    
     3    3    4 1    
     4    3    5 1    
     5    5    6 1    
     6    5    7 1    
     7    5    8 1    
     8    3    9 1    
     9    9   10 2    
    10    9   11 am   
    11   11   12 1    
    12   11   13 1    
    13   13   14 1    
    14   13   15 1    
    15   15   16 1    
    16   15   17 1    
    17   15   18 1    
    18   18   19 1    
    19   13   20 1    
    20   20   21 2    
    21   20   22 1    
@<TRIPOS>SUBSTRUCTURE
     1 ****        2 TEMP              0 ****  ****    0 ROOT 
@<TRIPOS>SET
UNITY_3DHIT     STATIC     ATOMS    <user>   **** Atoms matching 3D or FLEX Search
0
MATCH_ATOMS     DYNAMIC    ATOMS    <user>   **** 
(1,2,3,4,5,6,7,8,9,10,11,12,13,14,15,16,17,18,19,20,21,22,23,24,25,26,27,28,29,30,31,32)
ATOM$INVISIBLE  STATIC     ATOMS    DISPGROUP SYSTEM 
0
@<TRIPOS>UNITY_ATOM_ATTR
22 1
AtomExpr -1
