#	Name:			THIOL_27
#	Creating user name:	jeff
#	Creation time:		Wed Dec 11 13:20:55 2002

#	Modifying user name:	jeff
#	Modification time:	Wed Dec 11 13:20:55 2002

@<TRIPOS>MOLECULE
THIOL_27
   35    36     1     0     3
SMALL
USER_CHARGES
INVALID_CHARGES
From 3DB ct
@<TRIPOS>ATOM
      1 S          -1.512000   -2.748000   -2.254000 S.3       1 <1>        -0.267900 
      2 H          -2.293000   -3.404000   -2.522000 H         1 <1>         0.180800 
      3 C          -2.242000   -1.205000   -1.623000 C.3       1 <1>        -0.144100 
      4 H          -3.337000   -1.301000   -1.633000 H         1 <1>         0.147400 
      5 H          -1.967000   -0.467000   -2.389000 H         1 <1>         0.060100 
      6 C          -1.723000   -0.675000   -0.238000 C.3       1 <1>        -0.347300 
      7 H          -2.112000   -1.300000    0.578000 H         1 <1>         0.122200 
      8 H          -2.099000    0.350000   -0.092000 H         1 <1>         0.104300 
      9 C          -0.218000   -0.711000   -0.259000 C.2       1 <1>         0.845700 
     10 O           0.202000   -1.841000   -0.503000 O.2       1 <1>        -0.714100 
     11 N           0.544000    0.415000   -0.266000 N.am      1 <1>        -0.832500 
     12 H           0.148000    1.299000   -0.029000 H         1 <1>         0.471400 
     13 C           1.924000    0.246000   -0.736000 C.3       1 <1>         0.092200 
     14 H           1.969000   -0.241000   -1.728000 H         1 <1>         0.068100 
     15 C           2.480000    1.690000   -0.729000 C.3       1 <1>        -0.115800 
     16 H           2.212000    2.319000    0.135000 H         1 <1>         0.069000 
     17 H           3.580000    1.668000   -0.813000 H         1 <1>         0.122500 
     18 C           1.952000    2.213000   -2.078000 C.ar      1 <1>        -0.195200 
     19 C           0.866000    1.778000   -2.761000 C.ar      1 <1>        -0.009300 
     20 H           0.108000    1.044000   -2.496000 H         1 <1>         0.301800 
     21 N           0.785000    2.337000   -3.935000 N.pl3     1 <1>        -0.668000 
     22 H           0.053000    2.129000   -4.634000 H         1 <1>         0.454400 
     23 C           1.800000    3.191000   -4.132000 C.ar      1 <1>         0.321300 
     24 C           2.558000    3.271000   -2.976000 C.ar      1 <1>        -0.096100 
     25 C           3.597000    4.197000   -2.881000 C.ar      1 <1>        -0.045100 
     26 H           4.163000    4.310000   -1.964000 H         1 <1>         0.157000 
     27 C           3.870000    4.975000   -4.016000 C.ar      1 <1>        -0.294500 
     28 H           4.648000    5.729000   -3.971000 H         1 <1>         0.149200 
     29 C           3.160000    4.803000   -5.216000 C.ar      1 <1>        -0.071700 
     30 H           3.428000    5.380000   -6.096000 H         1 <1>         0.118900 
     31 C           2.099000    3.895000   -5.295000 C.ar      1 <1>        -0.408500 
     32 H           1.538000    3.738000   -6.211000 H         1 <1>         0.179000 
     33 C           2.777000   -0.700000    0.087000 C.2       1 <1>         0.739400 
     34 O           3.946000   -0.865000   -0.216000 O.2       1 <1>        -0.933000 
     35 O           2.243000   -1.329000    1.133000 O.3       1 <1>        -0.983900 
@<TRIPOS>BOND
     1    2    1 1    
     2    1    3 1    
     3    3    4 1    
     4    3    5 1    
     5    3    6 1    
     6    6    7 1    
     7    6    8 1    
     8    6    9 1    
     9    9   10 2    
    10    9   11 am   
    11   11   12 1    
    12   11   13 1    
    13   13   14 1    
    14   13   15 1    
    15   15   16 1    
    16   15   17 1    
    17   15   18 1    
    18   18   19 ar   
    19   19   20 1    
    20   19   21 ar   
    21   21   22 1    
    22   21   23 ar   
    23   23   24 ar   
    24   24   18 ar   
    25   24   25 ar   
    26   25   26 1    
    27   25   27 ar   
    28   27   28 1    
    29   27   29 ar   
    30   29   30 1    
    31   29   31 ar   
    32   31   32 1    
    33   31   23 ar   
    34   13   33 1    
    35   33   34 2    
    36   33   35 1    
@<TRIPOS>SUBSTRUCTURE
     1 ****        2 TEMP              0 ****  ****    0 ROOT 
@<TRIPOS>SET
UNITY_3DHIT     STATIC     ATOMS    <user>   **** Atoms matching 3D or FLEX Search
0
MATCH_ATOMS     DYNAMIC    ATOMS    <user>   **** 
(1,2,3,4,5,6,7,8,9,10,11,12,13,14,15,16,17,18,19,20,21,22,23,24,25,26,27,28,29,30,31,32)
ATOM$INVISIBLE  STATIC     ATOMS    DISPGROUP SYSTEM 
0
@<TRIPOS>UNITY_ATOM_ATTR
35 1
AtomExpr -1
