#	Name:			THIOL_12
#	Creating user name:	jeff
#	Creation time:		Wed Dec 11 13:20:55 2002

#	Modifying user name:	jeff
#	Modification time:	Wed Dec 11 13:20:55 2002

@<TRIPOS>MOLECULE
THIOL_12
   25    25     1     0     3
SMALL
USER_CHARGES
INVALID_CHARGES
From 3DB ct
@<TRIPOS>ATOM
      1 S          -2.251000   -2.665000   -2.055000 S.3       1 <1>        -0.125100 
      2 H          -3.304000   -2.712000   -2.110000 H         1 <1>         0.081900 
      3 C          -1.791000   -1.514000   -0.724000 C.3       1 <1>        -0.473400 
      4 H          -2.127000   -2.027000    0.192000 H         1 <1>         0.151500 
      5 H          -2.473000   -0.664000   -0.871000 H         1 <1>         0.175900 
      6 C          -0.278000   -0.750000   -0.328000 C.2       1 <1>         0.934400 
      7 O           0.242000   -1.848000   -0.514000 O.2       1 <1>        -0.707100 
      8 N           0.486000    0.356000   -0.274000 N.am      1 <1>        -0.844900 
      9 H           0.054000    1.267000   -0.119000 H         1 <1>         0.446200 
     10 C           1.905000    0.245000   -0.739000 C.3       1 <1>         0.199800 
     11 H           1.919000   -0.136000   -1.774000 H         1 <1>         0.017700 
     12 C           2.483000    1.682000   -0.698000 C.3       1 <1>        -0.036500 
     13 H           2.415000    2.088000    0.324000 H         1 <1>         0.067400 
     14 H           3.542000    1.674000   -0.999000 H         1 <1>         0.078100 
     15 C           1.727000    2.542000   -1.681000 C.ar      1 <1>        -0.188700 
     16 N           1.707000    2.318000   -2.977000 N.pl3     1 <1>        -0.229000 
     17 H           2.206000    1.555000   -3.459000 H         1 <1>         0.396300 
     18 C           0.960000    3.199000   -3.560000 C.ar      1 <1>         0.046700 
     19 H           0.754000    3.250000   -4.628000 H         1 <1>         0.206700 
     20 N           0.504000    3.988000   -2.697000 N.ar      1 <1>        -0.572100 
     21 C           0.976000    3.622000   -1.387000 C.ar      1 <1>        -0.035300 
     22 H           0.774000    4.089000   -0.424000 H         1 <1>         0.163700 
     23 C           2.773000   -0.708000    0.081000 C.2       1 <1>         0.696100 
     24 O           3.944000   -0.866000   -0.221000 O.2       1 <1>        -0.910900 
     25 O           2.245000   -1.319000    1.139000 O.3       1 <1>        -0.961300 
@<TRIPOS>BOND
     1    2    1 1    
     2    1    3 1    
     3    3    4 1    
     4    3    5 1    
     5    3    6 1    
     6    6    7 2    
     7    6    8 am   
     8    8    9 1    
     9    8   10 1    
    10   10   11 1    
    11   10   12 1    
    12   12   13 1    
    13   12   14 1    
    14   12   15 1    
    15   15   16 ar   
    16   16   17 1    
    17   16   18 ar   
    18   18   19 1    
    19   18   20 ar   
    20   20   21 ar   
    21   21   22 1    
    22   21   15 ar   
    23   10   23 1    
    24   23   24 2    
    25   23   25 1    
@<TRIPOS>SUBSTRUCTURE
     1 ****        2 TEMP              0 ****  ****    0 ROOT 
@<TRIPOS>SET
UNITY_3DHIT     STATIC     ATOMS    <user>   **** Atoms matching 3D or FLEX Search
0
MATCH_ATOMS     DYNAMIC    ATOMS    <user>   **** 
(1,2,3,4,5,6,7,8,9,10,11,12,13,14,15,16,17,18,19,20,21,22,23,24,25,26,27,28,29,30,31,32)
ATOM$INVISIBLE  STATIC     ATOMS    DISPGROUP SYSTEM 
0
@<TRIPOS>UNITY_ATOM_ATTR
25 1
AtomExpr -1
