#	Name:			THIOL_10
#	Creating user name:	jeff
#	Creation time:		Wed Dec 11 13:20:55 2002

#	Modifying user name:	jeff
#	Modification time:	Wed Dec 11 13:20:55 2002

@<TRIPOS>MOLECULE
THIOL_10
   22    21     1     0     3
SMALL
USER_CHARGES
INVALID_CHARGES
From 3DB ct
@<TRIPOS>ATOM
      1 S           1.623000    2.812000   -1.842000 S.3       1 <1>        -0.352500 
      2 H           1.862000    2.361000   -2.712000 H         1 <1>         0.185600 
      3 C           2.491000    1.686000   -0.697000 C.3       1 <1>        -0.222500 
      4 H           2.437000    2.089000    0.328000 H         1 <1>         0.170600 
      5 H           3.555000    1.673000   -0.990000 H         1 <1>         0.151600 
      6 C           1.919000    0.250000   -0.750000 C.3       1 <1>        -0.055200 
      7 H           1.917000   -0.102000   -1.795000 H         1 <1>         0.142500 
      8 N           0.542000    0.402000   -0.275000 N.am      1 <1>        -0.852100 
      9 H           0.149000    1.293000   -0.035000 H         1 <1>         0.472600 
     10 C          -0.224000   -0.711000   -0.237000 C.2       1 <1>         0.844300 
     11 O           0.199000   -1.824000   -0.518000 O.2       1 <1>        -0.735800 
     12 C          -1.716000   -0.693000    0.023000 C.3       1 <1>        -0.161500 
     13 H          -1.932000   -1.433000    0.809000 H         1 <1>         0.061100 
     14 H          -2.047000    0.295000    0.386000 H         1 <1>         0.050000 
     15 C          -2.469000   -1.091000   -1.294000 C.3       1 <1>         0.038400 
     16 H          -3.019000   -0.220000   -1.686000 H         1 <1>         0.017200 
     17 H          -1.770000   -1.422000   -2.079000 H         1 <1>         0.110800 
     18 S          -3.665000   -2.455000   -1.117000 S.3       1 <1>        -0.278500 
     19 H          -4.640000   -2.056000   -1.169000 H         1 <1>         0.108200 
     20 C           2.773000   -0.709000    0.079000 C.2       1 <1>         0.766700 
     21 O           3.947000   -0.865000   -0.222000 O.2       1 <1>        -0.928600 
     22 O           2.245000   -1.319000    1.138000 O.3       1 <1>        -0.954800 
@<TRIPOS>BOND
     1    2    1 1    
     2    1    3 1    
     3    3    4 1    
     4    3    5 1    
     5    3    6 1    
     6    6    7 1    
     7    6    8 1    
     8    8    9 1    
     9    8   10 am   
    10   10   11 2    
    11   10   12 1    
    12   12   13 1    
    13   12   14 1    
    14   12   15 1    
    15   15   16 1    
    16   15   17 1    
    17   15   18 1    
    18   18   19 1    
    19    6   20 1    
    20   20   21 2    
    21   20   22 1    
@<TRIPOS>SUBSTRUCTURE
     1 ****        2 TEMP              0 ****  ****    0 ROOT 
@<TRIPOS>SET
UNITY_3DHIT     STATIC     ATOMS    <user>   **** Atoms matching 3D or FLEX Search
0
MATCH_ATOMS     DYNAMIC    ATOMS    <user>   **** 
(1,2,3,4,5,6,7,8,9,10,11,12,13,14,15,16,17,18,19,20,21,22,23,24,25,26,27,28,29,30,31,32)
ATOM$INVISIBLE  STATIC     ATOMS    DISPGROUP SYSTEM 
0
@<TRIPOS>UNITY_ATOM_ATTR
22 1
AtomExpr -1
