#	Name:			THIOL_20A
#	Creating user name:	jeff
#	Creation time:		Wed Dec 11 13:20:55 2002

#	Modifying user name:	jeff
#	Modification time:	Wed Dec 11 13:20:55 2002

@<TRIPOS>MOLECULE
THIOL_20A
   35    36     1     0     3
SMALL
USER_CHARGES
INVALID_CHARGES
From 3DB ct
@<TRIPOS>ATOM
      1 S          -1.896000   -3.037000   -1.822000 S.3       1 <1>        -0.140200 
      2 H          -2.919000   -3.258000   -1.955000 H         1 <1>         0.079200 
      3 C          -1.755000   -1.480000   -0.881000 C.3       1 <1>        -0.415200 
      4 H          -2.383000   -1.606000    0.015000 H         1 <1>         0.180100 
      5 C          -2.424000   -0.413000   -1.788000 C.3       1 <1>        -0.153300 
      6 H          -3.443000   -0.715000   -2.085000 H         1 <1>         0.060000 
      7 H          -1.818000   -0.268000   -2.696000 H         1 <1>         0.060100 
      8 H          -2.483000    0.542000   -1.243000 H         1 <1>         0.058500 
      9 C          -0.253000   -0.752000   -0.357000 C.2       1 <1>         1.115800 
     10 O           0.217000   -1.880000   -0.493000 O.2       1 <1>        -0.704300 
     11 N           0.484000    0.387000   -0.269000 N.am      1 <1>        -1.014700 
     12 H           0.042000    1.270000   -0.129000 H         1 <1>         0.473100 
     13 C           1.901000    0.255000   -0.743000 C.3       1 <1>         0.179600 
     14 H           1.904000   -0.077000   -1.793000 H         1 <1>         0.041600 
     15 C           2.495000    1.681000   -0.683000 C.3       1 <1>        -0.163000 
     16 H           2.484000    1.935000    0.390000 H         1 <1>         0.112500 
     17 H           3.553000    1.627000   -0.985000 H         1 <1>         0.104500 
     18 C           1.969000    2.894000   -1.400000 C.ar      1 <1>        -0.199900 
     19 C           1.267000    3.024000   -2.537000 C.ar      1 <1>        -0.042900 
     20 H           0.914000    2.200000   -3.158000 H         1 <1>         0.297200 
     21 N           1.090000    4.300000   -2.790000 N.pl3     1 <1>        -0.594400 
     22 H           0.593000    4.663000   -3.617000 H         1 <1>         0.446700 
     23 C           1.655000    5.086000   -1.849000 C.ar      1 <1>         0.213300 
     24 C           2.233000    4.286000   -0.884000 C.ar      1 <1>        -0.017300 
     25 C           2.872000    4.813000    0.238000 C.ar      1 <1>        -0.100300 
     26 H           3.319000    4.173000    0.991000 H         1 <1>         0.158400 
     27 C           2.910000    6.209000    0.348000 C.ar      1 <1>        -0.245700 
     28 H           3.381000    6.663000    1.215000 H         1 <1>         0.136500 
     29 C           2.350000    7.029000   -0.646000 C.ar      1 <1>        -0.105400 
     30 H           2.414000    8.109000   -0.539000 H         1 <1>         0.118200 
     31 C           1.713000    6.479000   -1.768000 C.ar      1 <1>        -0.355000 
     32 H           1.286000    7.108000   -2.543000 H         1 <1>         0.168500 
     33 C           2.775000   -0.703000    0.082000 C.2       1 <1>         0.733300 
     34 O           3.947000   -0.862000   -0.217000 O.2       1 <1>        -0.933200 
     35 O           2.235000   -1.328000    1.126000 O.3       1 <1>        -0.974300 
@<TRIPOS>BOND
     1    2    1 1    
     2    1    3 1    
     3    3    4 1    
     4    3    5 1    
     5    5    6 1    
     6    5    7 1    
     7    5    8 1    
     8    3    9 1    
     9    9   10 2    
    10    9   11 am   
    11   11   12 1    
    12   11   13 1    
    13   13   14 1    
    14   13   15 1    
    15   15   16 1    
    16   15   17 1    
    17   15   18 1    
    18   18   19 ar   
    19   19   20 1    
    20   19   21 ar   
    21   21   22 1    
    22   21   23 ar   
    23   23   24 ar   
    24   24   18 ar   
    25   24   25 ar   
    26   25   26 1    
    27   25   27 ar   
    28   27   28 1    
    29   27   29 ar   
    30   29   30 1    
    31   29   31 ar   
    32   31   32 1    
    33   31   23 ar   
    34   13   33 1    
    35   33   34 2    
    36   33   35 1    
@<TRIPOS>SUBSTRUCTURE
     1 ****        2 TEMP              0 ****  ****    0 ROOT 
@<TRIPOS>SET
UNITY_3DHIT     STATIC     ATOMS    <user>   **** Atoms matching 3D or FLEX Search
0
MATCH_ATOMS     DYNAMIC    ATOMS    <user>   **** 
(1,2,3,4,5,6,7,8,9,10,11,12,13,14,15,16,17,18,19,20,21,22,23,24,25,26,27,28,29,30,31,32)
ATOM$INVISIBLE  STATIC     ATOMS    DISPGROUP SYSTEM 
0
@<TRIPOS>UNITY_ATOM_ATTR
35 1
AtomExpr -1
