#	Name:			THIOL_30B
#	Creating user name:	jeff
#	Creation time:		Wed Dec 11 13:20:55 2002

#	Modifying user name:	jeff
#	Modification time:	Wed Dec 11 13:20:55 2002

@<TRIPOS>MOLECULE
THIOL_30B
   38    39     1     0     3
SMALL
USER_CHARGES
INVALID_CHARGES
From 3DB ct
@<TRIPOS>ATOM
      1 S          -1.773000   -2.697000   -1.991000 S.3       1 <1>        -0.171800 
      2 H          -2.545000   -3.313000   -2.362000 H         1 <1>         0.103900 
      3 C          -2.526000   -1.273000   -1.134000 C.3       1 <1>        -0.461800 
      4 H          -3.557000   -1.526000   -0.841000 H         1 <1>         0.128200 
      5 H          -2.570000   -0.467000   -1.883000 H         1 <1>         0.173500 
      6 C          -1.698000   -0.760000    0.098000 C.3       1 <1>         0.179900 
      7 H          -2.054000    0.245000    0.382000 H         1 <1>         0.031800 
      8 C          -1.910000   -1.698000    1.319000 C.3       1 <1>        -0.367500 
      9 H          -1.292000   -1.362000    2.167000 H         1 <1>         0.082600 
     10 H          -1.631000   -2.734000    1.072000 H         1 <1>         0.155800 
     11 H          -2.965000   -1.689000    1.633000 H         1 <1>         0.105400 
     12 C          -0.218000   -0.720000   -0.232000 C.2       1 <1>         0.775700 
     13 O           0.205000   -1.839000   -0.520000 O.2       1 <1>        -0.687100 
     14 N           0.515000    0.423000   -0.291000 N.am      1 <1>        -0.952500 
     15 H           0.120000    1.296000   -0.015000 H         1 <1>         0.502200 
     16 C           1.918000    0.278000   -0.684000 C.3       1 <1>         0.277400 
     17 H           1.905000   -0.033000   -1.581000 H         1 <1>         0.038600 
     18 C           2.502000    1.707000   -0.741000 C.3       1 <1>        -0.246500 
     19 H           2.891000    2.370000    0.077000 H         1 <1>         0.136700 
     20 H           3.372000    1.578000   -1.408000 H         1 <1>         0.090700 
     21 C           1.544000    2.554000   -1.541000 C.ar      1 <1>        -0.203100 
     22 C           1.208000    2.406000   -2.833000 C.ar      1 <1>        -0.017200 
     23 H           1.619000    1.654000   -3.507000 H         1 <1>         0.278300 
     24 N           0.300000    3.293000   -3.150000 N.pl3     1 <1>        -0.618600 
     25 H          -0.129000    3.374000   -4.084000 H         1 <1>         0.454400 
     26 C          -0.023000    4.072000   -2.099000 C.ar      1 <1>         0.226300 
     27 C           0.739000    3.711000   -1.005000 C.ar      1 <1>         0.007100 
     28 C           0.637000    4.367000    0.221000 C.ar      1 <1>        -0.122600 
     29 H           1.249000    4.085000    1.069000 H         1 <1>         0.175900 
     30 C          -0.300000    5.405000    0.306000 C.ar      1 <1>        -0.237300 
     31 H          -0.413000    5.945000    1.241000 H         1 <1>         0.135700 
     32 C          -1.096000    5.756000   -0.797000 C.ar      1 <1>        -0.114800 
     33 H          -1.821000    6.557000   -0.698000 H         1 <1>         0.122100 
     34 C          -0.970000    5.093000   -2.024000 C.ar      1 <1>        -0.361700 
     35 H          -1.581000    5.357000   -2.880000 H         1 <1>         0.171000 
     36 C           2.773000   -0.709000    0.085000 C.2       1 <1>         0.689700 
     37 O           3.941000   -0.876000   -0.223000 O.2       1 <1>        -0.935400 
     38 O           2.261000   -1.355000    1.128000 O.3       1 <1>        -0.967000 
@<TRIPOS>BOND
     1    2    1 1    
     2    1    3 1    
     3    3    4 1    
     4    3    5 1    
     5    3    6 1    
     6    6    7 1    
     7    6    8 1    
     8    8    9 1    
     9    8   10 1    
    10    8   11 1    
    11    6   12 1    
    12   12   13 2    
    13   12   14 am   
    14   14   15 1    
    15   14   16 1    
    16   16   17 1    
    17   16   18 1    
    18   18   19 1    
    19   18   20 1    
    20   18   21 1    
    21   21   22 ar   
    22   22   23 1    
    23   22   24 ar   
    24   24   25 1    
    25   24   26 ar   
    26   26   27 ar   
    27   27   21 ar   
    28   27   28 ar   
    29   28   29 1    
    30   28   30 ar   
    31   30   31 1    
    32   30   32 ar   
    33   32   33 1    
    34   32   34 ar   
    35   34   35 1    
    36   34   26 ar   
    37   16   36 1    
    38   36   37 2    
    39   36   38 1    
@<TRIPOS>SUBSTRUCTURE
     1 ****        2 TEMP              0 ****  ****    0 ROOT 
@<TRIPOS>SET
UNITY_3DHIT     STATIC     ATOMS    <user>   **** Atoms matching 3D or FLEX Search
0
MATCH_ATOMS     DYNAMIC    ATOMS    <user>   **** 
(1,2,3,4,5,6,7,8,9,10,11,12,13,14,15,16,17,18,19,20,21,22,23,24,25,26,27,28,29,30,31,32)
ATOM$INVISIBLE  STATIC     ATOMS    DISPGROUP SYSTEM 
0
@<TRIPOS>UNITY_ATOM_ATTR
38 1
AtomExpr -1
