#	Name:			THIOL_5
#	Creating user name:	jeff
#	Creation time:		Wed Dec 11 13:20:55 2002

#	Modifying user name:	jeff
#	Modification time:	Wed Dec 11 13:20:55 2002

@<TRIPOS>MOLECULE
THIOL_5
   19    18     1     0     3
SMALL
USER_CHARGES
INVALID_CHARGES
From 3DB ct
@<TRIPOS>ATOM
      1 S           1.515000    3.107000   -1.290000 S.3       1 <1>        -0.329000 
      2 H           1.768000    3.073000   -2.262000 H         1 <1>         0.145200 
      3 C           2.493000    1.686000   -0.683000 C.3       1 <1>        -0.316600 
      4 H           2.613000    1.899000    0.392000 H         1 <1>         0.188700 
      5 H           3.498000    1.718000   -1.136000 H         1 <1>         0.177100 
      6 C           1.905000    0.254000   -0.741000 C.3       1 <1>         0.013900 
      7 H           1.909000   -0.064000   -1.797000 H         1 <1>         0.138900 
      8 N           0.495000    0.374000   -0.258000 N.am      1 <1>        -0.844700 
      9 H           0.071000    1.265000   -0.135000 H         1 <1>         0.469600 
     10 C          -0.268000   -0.745000   -0.364000 C.2       1 <1>         0.914900 
     11 O           0.227000   -1.855000   -0.481000 O.2       1 <1>        -0.672100 
     12 C          -1.766000   -1.309000   -0.921000 C.3       1 <1>        -0.357000 
     13 H          -2.377000   -0.499000   -0.488000 H         1 <1>         0.127800 
     14 H          -1.807000   -1.171000   -2.012000 H         1 <1>         0.095500 
     15 S          -2.919000   -2.665000   -0.535000 S.3       1 <1>        -0.121200 
     16 H          -3.906000   -2.306000   -0.637000 H         1 <1>         0.075600 
     17 C           2.778000   -0.696000    0.089000 C.2       1 <1>         0.764900 
     18 O           3.947000   -0.865000   -0.220000 O.2       1 <1>        -0.937200 
     19 O           2.237000   -1.335000    1.124000 O.3       1 <1>        -0.956300 
@<TRIPOS>BOND
     1    2    1 1    
     2    1    3 1    
     3    3    4 1    
     4    3    5 1    
     5    3    6 1    
     6    6    7 1    
     7    6    8 1    
     8    8    9 1    
     9    8   10 am   
    10   10   11 2    
    11   10   12 1    
    12   12   13 1    
    13   12   14 1    
    14   12   15 1    
    15   15   16 1    
    16    6   17 1    
    17   17   18 2    
    18   17   19 1    
@<TRIPOS>SUBSTRUCTURE
     1 ****        2 TEMP              0 ****  ****    0 ROOT 
@<TRIPOS>SET
UNITY_3DHIT     STATIC     ATOMS    <user>   **** Atoms matching 3D or FLEX Search
0
MATCH_ATOMS     DYNAMIC    ATOMS    <user>   **** 
(1,2,3,4,5,6,7,8,9,10,11,12,13,14,15,16,17,18,19,20,21,22,23,24,25,26,27,28,29,30,31,32)
ATOM$INVISIBLE  STATIC     ATOMS    DISPGROUP SYSTEM 
0
@<TRIPOS>UNITY_ATOM_ATTR
19 1
AtomExpr -1
