#	Name:			THIOL_30A
#	Creating user name:	jeff
#	Creation time:		Wed Dec 11 13:20:55 2002

#	Modifying user name:	jeff
#	Modification time:	Wed Dec 11 13:20:55 2002

@<TRIPOS>MOLECULE
THIOL_30A
   38    39     1     0     3
SMALL
USER_CHARGES
INVALID_CHARGES
From 3DB ct
@<TRIPOS>ATOM
      1 S          -1.762000   -2.629000   -2.083000 S.3       1 <1>        -0.218900 
      2 H          -2.529000   -3.233000   -2.482000 H         1 <1>         0.091900 
      3 C          -2.525000   -1.248000   -1.172000 C.3       1 <1>        -0.241900 
      4 H          -3.552000   -1.529000   -0.885000 H         1 <1>         0.081600 
      5 H          -2.581000   -0.416000   -1.888000 H         1 <1>         0.163700 
      6 C          -1.709000   -0.781000    0.082000 C.3       1 <1>         0.158300 
      7 H          -1.822000   -1.563000    0.853000 H         1 <1>         0.036800 
      8 C          -2.308000    0.521000    0.683000 C.3       1 <1>        -0.259300 
      9 H          -3.358000    0.354000    0.974000 H         1 <1>         0.017900 
     10 H          -2.284000    1.341000   -0.051000 H         1 <1>         0.110900 
     11 H          -1.746000    0.825000    1.582000 H         1 <1>         0.087200 
     12 C          -0.221000   -0.720000   -0.238000 C.2       1 <1>         0.666500 
     13 O           0.205000   -1.840000   -0.516000 O.2       1 <1>        -0.698000 
     14 N           0.513000    0.422000   -0.291000 N.am      1 <1>        -0.894100 
     15 H           0.115000    1.296000   -0.024000 H         1 <1>         0.473300 
     16 C           1.916000    0.279000   -0.684000 C.3       1 <1>         0.308500 
     17 H           1.903000   -0.032000   -1.581000 H         1 <1>         0.015000 
     18 C           2.506000    1.706000   -0.741000 C.3       1 <1>        -0.102200 
     19 H           3.221000    2.175000   -0.017000 H         1 <1>         0.085100 
     20 H           3.154000    1.568000   -1.620000 H         1 <1>         0.035100 
     21 C           1.553000    2.783000   -1.207000 C.ar      1 <1>        -0.258000 
     22 C           1.132000    3.041000   -2.458000 C.ar      1 <1>        -0.012600 
     23 H           1.453000    2.496000   -3.347000 H         1 <1>         0.275600 
     24 N           0.274000    4.031000   -2.431000 N.pl3     1 <1>        -0.605300 
     25 H          -0.198000    4.415000   -3.264000 H         1 <1>         0.444700 
     26 C           0.072000    4.484000   -1.178000 C.ar      1 <1>         0.253900 
     27 C           0.861000    3.768000   -0.299000 C.ar      1 <1>         0.049700 
     28 C           0.869000    4.028000    1.071000 C.ar      1 <1>        -0.165000 
     29 H           1.503000    3.467000    1.748000 H         1 <1>         0.203500 
     30 C           0.022000    5.046000    1.527000 C.ar      1 <1>        -0.274800 
     31 H          -0.005000    5.284000    2.585000 H         1 <1>         0.153400 
     32 C          -0.794000    5.763000    0.638000 C.ar      1 <1>        -0.099500 
     33 H          -1.452000    6.536000    1.021000 H         1 <1>         0.125700 
     34 C          -0.779000    5.496000   -0.736000 C.ar      1 <1>        -0.395700 
     35 H          -1.408000    6.047000   -1.425000 H         1 <1>         0.179700 
     36 C           2.773000   -0.708000    0.084000 C.2       1 <1>         0.684500 
     37 O           3.942000   -0.875000   -0.223000 O.2       1 <1>        -0.929400 
     38 O           2.259000   -1.353000    1.128000 O.3       1 <1>        -0.969900 
@<TRIPOS>BOND
     1    2    1 1    
     2    1    3 1    
     3    3    4 1    
     4    3    5 1    
     5    3    6 1    
     6    6    7 1    
     7    6    8 1    
     8    8    9 1    
     9    8   10 1    
    10    8   11 1    
    11    6   12 1    
    12   12   13 2    
    13   12   14 am   
    14   14   15 1    
    15   14   16 1    
    16   16   17 1    
    17   16   18 1    
    18   18   19 1    
    19   18   20 1    
    20   18   21 1    
    21   21   22 ar   
    22   22   23 1    
    23   22   24 ar   
    24   24   25 1    
    25   24   26 ar   
    26   26   27 ar   
    27   27   21 ar   
    28   27   28 ar   
    29   28   29 1    
    30   28   30 ar   
    31   30   31 1    
    32   30   32 ar   
    33   32   33 1    
    34   32   34 ar   
    35   34   35 1    
    36   34   26 ar   
    37   16   36 1    
    38   36   37 2    
    39   36   38 1    
@<TRIPOS>SUBSTRUCTURE
     1 ****        2 TEMP              0 ****  ****    0 ROOT 
@<TRIPOS>SET
UNITY_3DHIT     STATIC     ATOMS    <user>   **** Atoms matching 3D or FLEX Search
0
MATCH_ATOMS     DYNAMIC    ATOMS    <user>   **** 
(1,2,3,4,5,6,7,8,9,10,11,12,13,14,15,16,17,18,19,20,21,22,23,24,25,26,27,28,29,30,31,32)
ATOM$INVISIBLE  STATIC     ATOMS    DISPGROUP SYSTEM 
0
@<TRIPOS>UNITY_ATOM_ATTR
38 1
AtomExpr -1
