#	Name:			THIOL_9
#	Creating user name:	jeff
#	Creation time:		Wed Dec 11 13:20:55 2002

#	Modifying user name:	jeff
#	Modification time:	Wed Dec 11 13:20:55 2002

@<TRIPOS>MOLECULE
THIOL_9
   25    24     1     0     3
SMALL
USER_CHARGES
INVALID_CHARGES
From 3DB ct
@<TRIPOS>ATOM
      1 S           1.859000    2.692000   -2.106000 S.3       1 <1>        -0.348500 
      2 H           0.895000    2.761000   -1.830000 H         1 <1>         0.154700 
      3 C           2.494000    1.687000   -0.706000 C.3       1 <1>        -0.165800 
      4 H           2.384000    2.203000    0.262000 H         1 <1>         0.126600 
      5 H           3.570000    1.595000   -0.937000 H         1 <1>         0.169700 
      6 C           1.904000    0.253000   -0.736000 C.3       1 <1>        -0.147600 
      7 H           1.899000   -0.084000   -1.787000 H         1 <1>         0.142700 
      8 N           0.494000    0.386000   -0.266000 N.am      1 <1>        -0.718100 
      9 H           0.044000    1.281000   -0.236000 H         1 <1>         0.477100 
     10 C          -0.241000   -0.741000   -0.393000 C.2       1 <1>         0.930500 
     11 O           0.251000   -1.859000   -0.435000 O.2       1 <1>        -0.705000 
     12 C          -1.475000   -1.475000   -1.303000 C.3       1 <1>        -0.140500 
     13 S          -3.032000   -2.247000   -0.737000 S.3       1 <1>        -0.122000 
     14 H          -3.842000   -1.702000   -1.137000 H         1 <1>         0.078700 
     15 C          -1.096000   -2.893000   -1.978000 C.3       1 <1>        -0.357800 
     16 H          -1.009000   -3.719000   -1.238000 H         1 <1>         0.099000 
     17 H          -0.110000   -2.843000   -2.472000 H         1 <1>         0.130900 
     18 H          -1.788000   -3.237000   -2.769000 H         1 <1>         0.099400 
     19 C          -1.655000   -0.599000   -2.576000 C.3       1 <1>        -0.336600 
     20 H          -1.862000    0.447000   -2.315000 H         1 <1>         0.075000 
     21 H          -2.466000   -0.985000   -3.218000 H         1 <1>         0.112400 
     22 H          -0.715000   -0.631000   -3.154000 H         1 <1>         0.123500 
     23 C           2.775000   -0.701000    0.085000 C.2       1 <1>         0.797500 
     24 O           3.943000   -0.864000   -0.221000 O.2       1 <1>        -0.943100 
     25 O           2.240000   -1.328000    1.131000 O.3       1 <1>        -0.954800 
@<TRIPOS>BOND
     1    2    1 1    
     2    1    3 1    
     3    3    4 1    
     4    3    5 1    
     5    3    6 1    
     6    6    7 1    
     7    6    8 1    
     8    8    9 1    
     9    8   10 am   
    10   10   11 2    
    11   10   12 1    
    12   12   13 1    
    13   13   14 1    
    14   12   15 1    
    15   15   16 1    
    16   15   17 1    
    17   15   18 1    
    18   12   19 1    
    19   19   20 1    
    20   19   21 1    
    21   19   22 1    
    22    6   23 1    
    23   23   24 2    
    24   23   25 1    
@<TRIPOS>SUBSTRUCTURE
     1 ****        2 TEMP              0 ****  ****    0 ROOT 
@<TRIPOS>SET
UNITY_3DHIT     STATIC     ATOMS    <user>   **** Atoms matching 3D or FLEX Search
0
MATCH_ATOMS     DYNAMIC    ATOMS    <user>   **** 
(1,2,3,4,5,6,7,8,9,10,11,12,13,14,15,16,17,18,19,20,21,22,23,24,25,26,27,28,29,30,31,32)
ATOM$INVISIBLE  STATIC     ATOMS    DISPGROUP SYSTEM 
0
@<TRIPOS>UNITY_ATOM_ATTR
25 1
AtomExpr -1
