#	Name:			THIOL_14
#	Creating user name:	jeff
#	Creation time:		Wed Dec 11 13:20:55 2002

#	Modifying user name:	jeff
#	Modification time:	Wed Dec 11 13:20:55 2002

@<TRIPOS>MOLECULE
THIOL_14
   28    28     1     0     3
SMALL
USER_CHARGES
INVALID_CHARGES
From 3DB ct
@<TRIPOS>ATOM
      1 S          -2.064000   -2.865000   -1.757000 S.3       1 <1>        -0.188800 
      2 H          -3.007000   -3.334000   -1.822000 H         1 <1>         0.092400 
      3 C          -2.319000   -1.082000   -1.511000 C.3       1 <1>        -0.145000 
      4 H          -3.402000   -0.888000   -1.581000 H         1 <1>         0.029900 
      5 H          -1.812000   -0.561000   -2.343000 H         1 <1>         0.170600 
      6 C          -1.750000   -0.619000   -0.133000 C.3       1 <1>        -0.151200 
      7 H          -2.132000   -1.246000    0.682000 H         1 <1>         0.093900 
      8 H          -2.074000    0.418000    0.043000 H         1 <1>         0.074900 
      9 C          -0.249000   -0.702000   -0.248000 C.2       1 <1>         0.698800 
     10 O           0.220000   -1.808000   -0.512000 O.2       1 <1>        -0.672400 
     11 N           0.542000    0.386000   -0.271000 N.am      1 <1>        -0.788200 
     12 H           0.153000    1.304000   -0.053000 H         1 <1>         0.432900 
     13 C           1.918000    0.247000   -0.745000 C.3       1 <1>         0.197200 
     14 H           1.918000   -0.195000   -1.753000 H         1 <1>         0.044300 
     15 C           2.485000    1.686000   -0.711000 C.3       1 <1>        -0.200300 
     16 H           2.400000    2.148000    0.286000 H         1 <1>         0.109800 
     17 H           3.546000    1.688000   -1.010000 H         1 <1>         0.116800 
     18 C           1.698000    2.429000   -1.774000 C.ar      1 <1>        -0.075700 
     19 N           1.655000    2.076000   -3.043000 N.pl3     1 <1>        -0.304900 
     20 H           2.167000    1.288000   -3.468000 H         1 <1>         0.425400 
     21 C           0.855000    2.859000   -3.693000 C.ar      1 <1>         0.041900 
     22 H           0.612000    2.782000   -4.753000 H         1 <1>         0.210700 
     23 N           0.397000    3.722000   -2.907000 N.ar      1 <1>        -0.555200 
     24 C           0.920000    3.513000   -1.582000 C.ar      1 <1>        -0.076500 
     25 H           0.722000    4.078000   -0.673000 H         1 <1>         0.170600 
     26 C           2.767000   -0.684000    0.084000 C.2       1 <1>         0.684000 
     27 O           3.930000   -0.882000   -0.216000 O.2       1 <1>        -0.911100 
     28 O           2.271000   -1.335000    1.133000 O.3       1 <1>        -0.946800 
@<TRIPOS>BOND
     1    2    1 1    
     2    1    3 1    
     3    3    4 1    
     4    3    5 1    
     5    3    6 1    
     6    6    7 1    
     7    6    8 1    
     8    6    9 1    
     9    9   10 2    
    10    9   11 am   
    11   11   12 1    
    12   11   13 1    
    13   13   14 1    
    14   13   15 1    
    15   15   16 1    
    16   15   17 1    
    17   15   18 1    
    18   18   19 ar   
    19   19   20 1    
    20   19   21 ar   
    21   21   22 1    
    22   21   23 ar   
    23   23   24 ar   
    24   24   25 1    
    25   24   18 ar   
    26   13   26 1    
    27   26   27 2    
    28   26   28 1    
@<TRIPOS>SUBSTRUCTURE
     1 ****        2 TEMP              0 ****  ****    0 ROOT 
@<TRIPOS>SET
UNITY_3DHIT     STATIC     ATOMS    <user>   **** Atoms matching 3D or FLEX Search
0
MATCH_ATOMS     DYNAMIC    ATOMS    <user>   **** 
(1,2,3,4,5,6,7,8,9,10,11,12,13,14,15,16,17,18,19,20,21,22,23,24,25,26,27,28,29,30,31,32)
ATOM$INVISIBLE  STATIC     ATOMS    DISPGROUP SYSTEM 
0
@<TRIPOS>UNITY_ATOM_ATTR
28 1
AtomExpr -1
