#	Name:			1-11
#	Creating user name:	jeff
#	Creation time:		Thu Dec 19 21:51:05 2002

#	Modifying user name:	jeff
#	Modification time:	Thu Dec 19 21:51:05 2002

@<TRIPOS>MOLECULE
1-11
   47    50     1     0     1
SMALL
USER_CHARGES
****
From 3DB ct
@<TRIPOS>ATOM
      1 C           5.046200   59.814800   70.085200 C.2       1 <1>        -0.149800 
      2 C           3.955600   60.066600   70.922600 C.2       1 <1>         0.130600 
      3 C           3.253000   61.304700   70.867100 C.2       1 <1>        -0.152800 
      4 C           3.695000   62.274700   69.936000 C.2       1 <1>        -0.127900 
      5 C           4.805000   62.018200   69.082300 C.2       1 <1>        -0.179100 
      6 C           5.497200   60.784900   69.144300 C.2       1 <1>        -0.037300 
      7 C           5.004000   63.251200   68.218300 C.2       1 <1>         0.740600 
      8 N           4.018100   64.170200   68.602200 N.am      1 <1>        -0.691600 
      9 C           3.191900   63.669600   69.614200 C.2       1 <1>         0.739600 
     10 C           3.809600   65.519600   68.023000 C.3       1 <1>         0.371200 
     11 C           5.011300   66.460900   68.193300 C.3       1 <1>        -0.261900 
     12 C           4.743100   67.835600   67.580200 C.3       1 <1>        -0.174600 
     13 N           4.401900   67.723900   66.150800 N.4       1 <1>         0.181300 
     14 C           3.194400   66.895500   65.980500 C.3       1 <1>        -0.199800 
     15 C           3.399900   65.486200   66.544900 C.3       1 <1>        -0.291800 
     16 C           4.202300   69.076800   65.586300 C.3       1 <1>        -0.616000 
     17 C           4.133600   69.090600   64.071900 C.2       1 <1>         0.211800 
     18 C           2.976400   69.532700   63.413800 C.2       1 <1>        -0.206400 
     19 C           2.919600   69.555800   62.018800 C.2       1 <1>        -0.128900 
     20 C           4.017600   69.140400   61.267400 C.2       1 <1>        -0.086200 
     21 C           5.174300   68.701600   61.909000 C.2       1 <1>        -0.080700 
     22 C           5.233300   68.677400   63.303600 C.2       1 <1>        -0.316900 
     23 O           5.828800   63.465800   67.350200 O.2       1 <1>        -0.543100 
     24 H           2.387100   61.509400   71.527400 H         1 <1>         0.268500 
     25 H           6.362100   60.584800   68.480900 H         1 <1>         0.201800 
     26 H           2.975000   65.936200   68.601400 H         1 <1>         0.090800 
     27 H           5.242000   66.580700   69.258800 H         1 <1>         0.161700 
     28 H           5.901300   66.021700   67.723600 H         1 <1>         0.135300 
     29 H           3.942000   68.339600   68.136700 H         1 <1>         0.196100 
     30 H           5.651400   68.439300   67.697700 H         1 <1>         0.176700 
     31 H           2.328200   67.362400   66.468000 H         1 <1>         0.209900 
     32 H           2.950600   66.789500   64.917300 H         1 <1>         0.180300 
     33 H           4.166800   64.966600   65.955800 H         1 <1>         0.141400 
     34 H           2.467400   64.924300   66.421400 H         1 <1>         0.173000 
     35 H           3.308600   69.548600   66.016400 H         1 <1>         0.277300 
     36 H           5.048500   69.721900   65.859900 H         1 <1>         0.257100 
     37 H           2.108800   69.861800   63.984700 H         1 <1>         0.174800 
     38 H           2.016200   69.899400   61.517400 H         1 <1>         0.189300 
     39 H           3.971800   69.159000   60.179900 H         1 <1>         0.185600 
     40 H           6.032500   68.377100   61.323000 H         1 <1>         0.178700 
     41 H           6.142000   68.331100   63.795000 H         1 <1>         0.196500 
     42 O           2.260500   64.284700   70.101700 O.2       1 <1>        -0.516000 
     43 N           3.516100   59.029900   71.888100 N.2       1 <1>         0.726400 
     44 O           2.560400   59.285200   72.602200 O.2       1 <1>        -0.477400 
     45 O           4.129400   57.976200   71.921800 O.3       1 <1>        -0.484900 
     46 H           5.579000   58.845000   70.142500 H         1 <1>         0.246500 
     47 H           5.086400   67.329000   65.720200 H         1 <1>         0.402300 
@<TRIPOS>BOND
     1    1    2 2    
     2    1    6 1    
     3    1   46 1    
     4    2    3 1    
     5    2   43 1    
     6    3    4 2    
     7    3   24 1    
     8    4    5 1    
     9    4    9 1    
    10    5    6 2    
    11    5    7 1    
    12    6   25 1    
    13    7    8 am   
    14    7   23 2    
    15    8    9 am   
    16    8   10 1    
    17    9   42 2    
    18   10   11 1    
    19   10   15 1    
    20   10   26 1    
    21   11   12 1    
    22   11   27 1    
    23   11   28 1    
    24   12   13 1    
    25   12   29 1    
    26   12   30 1    
    27   13   14 1    
    28   13   16 1    
    29   13   47 1    
    30   14   15 1    
    31   14   31 1    
    32   14   32 1    
    33   15   33 1    
    34   15   34 1    
    35   16   17 1    
    36   16   35 1    
    37   16   36 1    
    38   17   18 1    
    39   17   22 2    
    40   18   19 2    
    41   18   37 1    
    42   19   20 1    
    43   19   38 1    
    44   20   21 2    
    45   20   39 1    
    46   21   22 1    
    47   21   40 1    
    48   22   41 1    
    49   43   44 2    
    50   43   45 1    
@<TRIPOS>SUBSTRUCTURE
     1 ****        1 TEMP              0 ****  ****    0 ROOT 
@<TRIPOS>SET
UNITY_3DHIT     STATIC     ATOMS    <user>   **** Atoms matching 3D or FLEX Search
0
@<TRIPOS>UNITY_ATOM_ATTR
13 1
AtomExpr +1
43 1
AtomExpr +1
45 1
AtomExpr -1
@<TRIPOS>UNITY_BOND_ATTR
1 1
S N
6 1
S I
10 1
S I
39 1
S N
40 1
S N
44 1
S N
