#	Name:			1-12
#	Creating user name:	jeff
#	Creation time:		Thu Dec 19 21:51:05 2002

#	Modifying user name:	jeff
#	Modification time:	Thu Dec 19 21:51:06 2002

@<TRIPOS>MOLECULE
1-12
   50    53     1     0     1
SMALL
USER_CHARGES
****
From 3DB ct
@<TRIPOS>ATOM
      1 C           1.184000   59.883200   71.529200 C.2       1 <1>        -0.156500 
      2 C           0.189000   60.891800   71.661000 C.2       1 <1>         0.122600 
      3 C           0.316100   62.107200   70.971000 C.2       1 <1>        -0.119200 
      4 C           1.422000   62.300600   70.156100 C.2       1 <1>        -0.181500 
      5 C           2.381100   61.305700   70.040500 C.2       1 <1>        -0.219700 
      6 C           2.295600   60.095700   70.707500 C.2       1 <1>         0.000700 
      7 C           3.417400   61.770300   69.124000 C.2       1 <1>         0.719500 
      8 N           3.102800   63.100200   68.779500 N.am      1 <1>        -0.441200 
      9 C           1.841400   63.473400   69.293100 C.2       1 <1>         0.739900 
     10 C           4.189600   64.039800   68.501500 C.3       1 <1>        -0.235100 
     11 C           3.842400   65.477000   68.022400 C.3       1 <1>         0.167300 
     12 C           5.011300   66.460900   68.193300 C.3       1 <1>        -0.387300 
     13 C           4.743100   67.835600   67.580200 C.3       1 <1>        -0.040300 
     14 N           4.401900   67.723900   66.150800 N.4       1 <1>         0.095200 
     15 C           3.194400   66.895500   65.980500 C.3       1 <1>        -0.110400 
     16 C           3.399900   65.486200   66.544900 C.3       1 <1>        -0.207200 
     17 C           4.202300   69.076800   65.586300 C.3       1 <1>        -0.533100 
     18 C           4.133600   69.090600   64.071900 C.2       1 <1>         0.110700 
     19 C           2.976400   69.532700   63.413800 C.2       1 <1>        -0.159800 
     20 C           2.919600   69.555800   62.018800 C.2       1 <1>        -0.149300 
     21 C           4.017600   69.140400   61.267400 C.2       1 <1>        -0.047200 
     22 C           5.174300   68.701600   61.909000 C.2       1 <1>        -0.129400 
     23 C           5.233300   68.677400   63.303600 C.2       1 <1>        -0.254200 
     24 O           4.430400   61.137300   68.864900 O.2       1 <1>        -0.501800 
     25 H          -0.416500   62.904000   71.055500 H         1 <1>         0.250100 
     26 H           3.080900   59.361400   70.570100 H         1 <1>         0.194700 
     27 O           1.253100   64.517200   69.102800 O.2       1 <1>        -0.560100 
     28 H           4.830500   64.120800   69.401700 H         1 <1>         0.139000 
     29 H           4.837900   63.570900   67.738600 H         1 <1>         0.169500 
     30 H           3.035600   65.910300   68.634800 H         1 <1>         0.117900 
     31 H           5.258300   66.587900   69.262100 H         1 <1>         0.182100 
     32 H           5.901300   66.021700   67.723600 H         1 <1>         0.144300 
     33 H           3.942000   68.339600   68.136700 H         1 <1>         0.171900 
     34 H           5.651400   68.439300   67.697700 H         1 <1>         0.151700 
     35 H           2.328200   67.362400   66.468000 H         1 <1>         0.187500 
     36 H           2.950600   66.789500   64.917300 H         1 <1>         0.149300 
     37 H           4.166800   64.966600   65.955800 H         1 <1>         0.104200 
     38 H           2.467400   64.924300   66.421400 H         1 <1>         0.133200 
     39 H           3.308600   69.548600   66.016400 H         1 <1>         0.268900 
     40 H           5.048500   69.721900   65.859900 H         1 <1>         0.236100 
     41 H           2.108800   69.861800   63.984700 H         1 <1>         0.167600 
     42 H           2.016200   69.899400   61.517400 H         1 <1>         0.189200 
     43 H           3.971800   69.159000   60.179900 H         1 <1>         0.177500 
     44 H           6.032500   68.377100   61.323000 H         1 <1>         0.185400 
     45 H           6.142000   68.331100   63.795000 H         1 <1>         0.189500 
     46 N          -0.981700   60.657200   72.537700 N.2       1 <1>         0.721600 
     47 O          -1.065100   59.584600   73.113000 O.2       1 <1>        -0.482300 
     48 O          -1.804900   61.552100   72.639800 O.3       1 <1>        -0.486000 
     49 H           1.078700   58.926800   72.078400 H         1 <1>         0.242700 
     50 H           5.086400   67.329000   65.720200 H         1 <1>         0.394200 
@<TRIPOS>BOND
     1    1    2 2    
     2    1    6 1    
     3    1   49 1    
     4    2    3 1    
     5    2   46 1    
     6    3    4 2    
     7    3   25 1    
     8    4    5 1    
     9    4    9 1    
    10    5    6 2    
    11    5    7 1    
    12    6   26 1    
    13    7    8 am   
    14    7   24 2    
    15    8    9 am   
    16    8   10 1    
    17    9   27 2    
    18   10   11 1    
    19   10   28 1    
    20   10   29 1    
    21   11   12 1    
    22   11   16 1    
    23   11   30 1    
    24   12   13 1    
    25   12   31 1    
    26   12   32 1    
    27   13   14 1    
    28   13   33 1    
    29   13   34 1    
    30   14   15 1    
    31   14   17 1    
    32   14   50 1    
    33   15   16 1    
    34   15   35 1    
    35   15   36 1    
    36   16   37 1    
    37   16   38 1    
    38   17   18 1    
    39   17   39 1    
    40   17   40 1    
    41   18   19 1    
    42   18   23 2    
    43   19   20 2    
    44   19   41 1    
    45   20   21 1    
    46   20   42 1    
    47   21   22 2    
    48   21   43 1    
    49   22   23 1    
    50   22   44 1    
    51   23   45 1    
    52   46   47 2    
    53   46   48 1    
@<TRIPOS>SUBSTRUCTURE
     1 ****        1 TEMP              0 ****  ****    0 ROOT 
@<TRIPOS>SET
UNITY_3DHIT     STATIC     ATOMS    <user>   **** Atoms matching 3D or FLEX Search
0
@<TRIPOS>UNITY_ATOM_ATTR
14 1
AtomExpr +1
46 1
AtomExpr +1
48 1
AtomExpr -1
@<TRIPOS>UNITY_BOND_ATTR
1 1
S I
6 1
S I
10 1
S I
42 1
S N
43 1
S I
47 1
S I
