#	Name:			1-14
#	Creating user name:	jeff
#	Creation time:		Thu Dec 19 21:51:38 2002

#	Modifying user name:	jeff
#	Modification time:	Thu Dec 19 21:51:39 2002

@<TRIPOS>MOLECULE
1-14
   57    60     1     0     1
SMALL
USER_CHARGES
****
From 3DB ct
@<TRIPOS>ATOM
      1 C           4.901200   63.657000   67.124500 C.3       1 <1>        -0.390700 
      2 C           4.385500   65.095300   67.167900 C.3       1 <1>         0.249500 
      3 C           5.277000   66.262800   67.639800 C.3       1 <1>        -0.373700 
      4 C           4.585700   67.625300   67.481800 C.3       1 <1>        -0.043600 
      5 N           4.192500   67.807300   66.080500 N.4       1 <1>         0.026600 
      6 C           3.199600   66.822100   65.639200 C.3       1 <1>        -0.267400 
      7 C           3.822900   65.410200   65.756800 C.3       1 <1>        -0.215200 
      8 C           4.330200   69.150900   65.515100 C.3       1 <1>        -0.398700 
      9 C           4.261200   69.199200   64.002100 C.2       1 <1>        -0.018900 
     10 C           3.058300   69.612200   63.410300 C.2       1 <1>        -0.123400 
     11 C           2.913700   69.607300   62.021400 C.2       1 <1>        -0.366900 
     12 C           3.968500   69.192800   61.210100 C.2       1 <1>         0.599700 
     13 C           5.169800   68.782800   61.785500 C.2       1 <1>        -0.415200 
     14 C           5.316600   68.786600   63.173700 C.2       1 <1>        -0.130900 
     15 H           5.538300   63.391100   67.987300 H         1 <1>         0.150800 
     16 H           5.511800   63.470100   66.224000 H         1 <1>         0.134500 
     17 H           3.531000   65.041100   67.868900 H         1 <1>         0.069600 
     18 H           5.582400   66.119700   68.690600 H         1 <1>         0.168300 
     19 H           6.206800   66.271700   67.039800 H         1 <1>         0.119800 
     20 H           3.714500   67.700400   68.159000 H         1 <1>         0.173600 
     21 H           5.282900   68.421400   67.792300 H         1 <1>         0.153900 
     22 H           2.272700   66.889500   66.238400 H         1 <1>         0.236400 
     23 H           2.902800   66.996500   64.592800 H         1 <1>         0.193600 
     24 H           4.650400   65.344100   65.024700 H         1 <1>         0.097200 
     25 H           3.077700   64.657900   65.449200 H         1 <1>         0.188200 
     26 H           3.573700   69.840000   65.931700 H         1 <1>         0.248200 
     27 H           5.314300   69.545100   65.823400 H         1 <1>         0.200600 
     28 H           2.206200   69.931000   64.044400 H         1 <1>         0.192400 
     29 H           1.955500   69.924800   61.567900 H         1 <1>         0.212900 
     30 H           6.007200   68.444900   61.145300 H         1 <1>         0.244700 
     31 H           6.268100   68.442500   63.627900 H         1 <1>         0.187500 
     32 C           3.650500   62.752200   67.118800 C.3       1 <1>         0.066700 
     33 N           3.040300   62.682300   68.452200 N.am      1 <1>        -0.575600 
     34 C           3.435100   61.524900   69.075000 C.2       1 <1>         0.750700 
     35 O           4.412600   60.810700   68.875300 O.2       1 <1>        -0.498600 
     36 C           2.336000   61.261000   69.991000 C.2       1 <1>        -0.176500 
     37 C           2.181600   60.057400   70.705200 C.2       1 <1>        -0.049400 
     38 C           1.093700   59.881400   71.562700 C.2       1 <1>        -0.127500 
     39 C           0.145100   60.903000   71.721100 C.2       1 <1>         0.092100 
     40 C           0.302700   62.103900   71.018200 C.2       1 <1>        -0.104600 
     41 C           1.393200   62.291300   70.161800 C.2       1 <1>        -0.218800 
     42 H           2.890400   63.029800   66.377700 H         1 <1>         0.071100 
     43 H           3.924900   61.731600   66.803600 H         1 <1>         0.131300 
     44 H           2.920400   59.242700   70.579800 H         1 <1>         0.203300 
     45 H          -0.438000   62.916400   71.149300 H         1 <1>         0.242000 
     46 H           4.917000   67.435200   65.697600 H         1 <1>         0.429700 
     47 C           1.861000   63.293100   69.050800 C.2       1 <1>         0.801900 
     48 O           1.388700   64.315900   68.616000 O.2       1 <1>        -0.586200 
     49 N          -1.010200   60.723700   72.631100 N.2       1 <1>         0.749200 
     50 O          -1.095900   59.673700   73.241200 O.2       1 <1>        -0.487700 
     51 O          -1.812000   61.639300   72.721000 O.3       1 <1>        -0.501600 
     52 H           0.984900   58.924900   72.115100 H         1 <1>         0.240800 
     53 C           2.780900   69.652700   59.134600 C.3       1 <1>         0.052200 
     54 O           3.910100   69.153800   59.843600 O.3       1 <1>        -0.424900 
     55 H           2.604000   70.718900   59.343900 H         1 <1>         0.064100 
     56 H           3.011900   69.536500   58.066400 H         1 <1>         0.124200 
     57 H           1.868000   69.082600   59.363900 H         1 <1>         0.050600 
@<TRIPOS>BOND
     1    1    2 1    
     2    1   15 1    
     3    1   16 1    
     4    1   32 1    
     5    2    3 1    
     6    2    7 1    
     7    2   17 1    
     8    3    4 1    
     9    3   18 1    
    10    3   19 1    
    11    4    5 1    
    12    4   20 1    
    13    4   21 1    
    14    5    6 1    
    15    5    8 1    
    16    5   46 1    
    17    6    7 1    
    18    6   22 1    
    19    6   23 1    
    20    7   24 1    
    21    7   25 1    
    22    8    9 1    
    23    8   26 1    
    24    8   27 1    
    25    9   10 1    
    26    9   14 2    
    27   10   11 2    
    28   10   28 1    
    29   11   12 1    
    30   11   29 1    
    31   12   13 2    
    32   12   54 1    
    33   13   14 1    
    34   13   30 1    
    35   14   31 1    
    36   32   33 1    
    37   32   42 1    
    38   32   43 1    
    39   33   34 am   
    40   33   47 am   
    41   34   35 2    
    42   34   36 1    
    43   36   37 2    
    44   36   41 1    
    45   37   38 1    
    46   37   44 1    
    47   38   39 2    
    48   38   52 1    
    49   39   40 1    
    50   39   49 1    
    51   40   41 2    
    52   40   45 1    
    53   41   47 1    
    54   47   48 2    
    55   49   50 2    
    56   49   51 1    
    57   54   53 1    
    58   53   55 1    
    59   53   56 1    
    60   53   57 1    
@<TRIPOS>SUBSTRUCTURE
     1 ****        1 TEMP              0 ****  ****    0 ROOT 
@<TRIPOS>SET
UNITY_3DHIT     STATIC     ATOMS    <user>   **** Atoms matching 3D or FLEX Search
0
@<TRIPOS>UNITY_ATOM_ATTR
5 1
AtomExpr +1
49 1
AtomExpr +1
51 1
AtomExpr -1
@<TRIPOS>UNITY_BOND_ATTR
26 1
S N
27 1
S N
31 1
S N
43 1
S I
47 1
S I
51 1
S I
