#	Name:			1-16
#	Creating user name:	jeff
#	Creation time:		Thu Dec 19 21:51:40 2002

#	Modifying user name:	jeff
#	Modification time:	Thu Dec 19 21:51:40 2002

@<TRIPOS>MOLECULE
1-16
   43    45     1     0     1
SMALL
USER_CHARGES
****
From 3DB ct
@<TRIPOS>ATOM
      1 C           4.901200   63.657000   67.124500 C.3       1 <1>        -0.380600 
      2 C           4.385500   65.095300   67.167900 C.3       1 <1>         0.244600 
      3 C           5.277000   66.262800   67.639800 C.3       1 <1>        -0.374800 
      4 C           4.585700   67.625300   67.481800 C.3       1 <1>        -0.021800 
      5 N           4.192500   67.807300   66.080500 N.4       1 <1>         0.017800 
      6 C           3.199600   66.822100   65.639200 C.3       1 <1>        -0.246000 
      7 C           3.822900   65.410200   65.756800 C.3       1 <1>        -0.198400 
      8 C           4.330200   69.150900   65.515100 C.3       1 <1>        -0.431600 
      9 H           5.538300   63.391100   67.987300 H         1 <1>         0.149500 
     10 H           5.511800   63.470100   66.224000 H         1 <1>         0.137900 
     11 H           3.531000   65.041100   67.868900 H         1 <1>         0.066000 
     12 H           5.582400   66.119700   68.690600 H         1 <1>         0.172500 
     13 H           6.206800   66.271700   67.039800 H         1 <1>         0.124000 
     14 H           3.714500   67.700400   68.159000 H         1 <1>         0.169400 
     15 H           5.282900   68.421400   67.792300 H         1 <1>         0.146600 
     16 H           2.272700   66.889500   66.238400 H         1 <1>         0.232000 
     17 H           2.902800   66.996500   64.592800 H         1 <1>         0.190100 
     18 H           4.650400   65.344100   65.024700 H         1 <1>         0.096600 
     19 H           3.077700   64.657900   65.449200 H         1 <1>         0.180800 
     20 H           3.573700   69.840000   65.931700 H         1 <1>         0.247100 
     21 H           5.314300   69.545100   65.823400 H         1 <1>         0.217000 
     22 C           3.650500   62.752200   67.118800 C.3       1 <1>         0.027500 
     23 N           3.040300   62.682300   68.452200 N.am      1 <1>        -0.583900 
     24 C           3.435100   61.524900   69.075000 C.2       1 <1>         0.749800 
     25 O           4.412600   60.810700   68.875300 O.2       1 <1>        -0.498600 
     26 C           2.336000   61.261000   69.991000 C.2       1 <1>        -0.159800 
     27 C           2.181600   60.057400   70.705200 C.2       1 <1>        -0.054900 
     28 C           1.093700   59.881400   71.562700 C.2       1 <1>        -0.128300 
     29 C           0.145100   60.903000   71.721100 C.2       1 <1>         0.095000 
     30 C           0.302700   62.103900   71.018200 C.2       1 <1>        -0.101700 
     31 C           1.393200   62.291300   70.161800 C.2       1 <1>        -0.237300 
     32 H           2.890400   63.029800   66.377700 H         1 <1>         0.090000 
     33 H           3.924900   61.731600   66.803600 H         1 <1>         0.146300 
     34 H           2.920400   59.242700   70.579800 H         1 <1>         0.204300 
     35 H          -0.438000   62.916400   71.149300 H         1 <1>         0.242600 
     36 H           4.917000   67.435200   65.697600 H         1 <1>         0.431700 
     37 C           1.861000   63.293100   69.050800 C.2       1 <1>         0.816200 
     38 O           1.388700   64.315900   68.616000 O.2       1 <1>        -0.587600 
     39 N          -1.010200   60.723700   72.631100 N.2       1 <1>         0.741400 
     40 O          -1.095900   59.673700   73.241200 O.2       1 <1>        -0.486200 
     41 O          -1.812000   61.639300   72.721000 O.3       1 <1>        -0.498100 
     42 H           0.984900   58.924900   72.115100 H         1 <1>         0.244300 
     43 H           4.266300   69.120900   64.567800 H         1 <1>         0.230600 
@<TRIPOS>BOND
     1    1    2 1    
     2    1    9 1    
     3    1   10 1    
     4    1   22 1    
     5    2    3 1    
     6    2    7 1    
     7    2   11 1    
     8    3    4 1    
     9    3   12 1    
    10    3   13 1    
    11    4    5 1    
    12    4   14 1    
    13    4   15 1    
    14    5    6 1    
    15    5    8 1    
    16    5   36 1    
    17    6    7 1    
    18    6   16 1    
    19    6   17 1    
    20    7   18 1    
    21    7   19 1    
    22    8   20 1    
    23    8   21 1    
    24    8   43 1    
    25   22   23 1    
    26   22   32 1    
    27   22   33 1    
    28   23   24 am   
    29   23   37 am   
    30   24   25 2    
    31   24   26 1    
    32   26   27 2    
    33   26   31 1    
    34   27   28 1    
    35   27   34 1    
    36   28   29 2    
    37   28   42 1    
    38   29   30 1    
    39   29   39 1    
    40   30   31 2    
    41   30   35 1    
    42   31   37 1    
    43   37   38 2    
    44   39   40 2    
    45   39   41 1    
@<TRIPOS>SUBSTRUCTURE
     1 ****        1 TEMP              0 ****  ****    0 ROOT 
@<TRIPOS>SET
UNITY_3DHIT     STATIC     ATOMS    <user>   **** Atoms matching 3D or FLEX Search
0
@<TRIPOS>UNITY_ATOM_ATTR
5 1
AtomExpr +1
39 1
AtomExpr +1
41 1
AtomExpr -1
@<TRIPOS>UNITY_BOND_ATTR
32 1
S I
36 1
S I
40 1
S I
