#	Name:			1-17
#	Creating user name:	jeff
#	Creation time:		Thu Dec 19 21:51:07 2002

#	Modifying user name:	jeff
#	Modification time:	Thu Dec 19 21:51:08 2002

@<TRIPOS>MOLECULE
1-17
   53    56     1     0     1
SMALL
USER_CHARGES
****
From 3DB ct
@<TRIPOS>ATOM
      1 C           4.901200   63.657000   67.124500 C.3       1 <1>        -0.367800 
      2 C           4.385500   65.095300   67.167900 C.3       1 <1>         0.258400 
      3 C           5.277000   66.262800   67.639800 C.3       1 <1>        -0.399300 
      4 C           4.585700   67.625300   67.481800 C.3       1 <1>        -0.012400 
      5 N           4.192500   67.807300   66.080500 N.4       1 <1>         0.107200 
      6 C           3.199600   66.822100   65.639200 C.3       1 <1>        -0.275700 
      7 C           3.822900   65.410200   65.756800 C.3       1 <1>        -0.213400 
      8 C           4.330200   69.150900   65.515100 C.3       1 <1>        -0.589400 
      9 C           4.261200   69.199200   64.002100 C.2       1 <1>         0.208300 
     10 C           3.058300   69.612200   63.410300 C.2       1 <1>        -0.200200 
     11 C           2.913700   69.607300   62.021400 C.2       1 <1>        -0.132800 
     12 C           3.968500   69.192800   61.210100 C.2       1 <1>        -0.077400 
     13 C           5.169800   68.782800   61.785500 C.2       1 <1>        -0.092000 
     14 C           5.316600   68.786600   63.173700 C.2       1 <1>        -0.324300 
     15 H           5.538300   63.391100   67.987300 H         1 <1>         0.146000 
     16 H           5.511800   63.470100   66.224000 H         1 <1>         0.121800 
     17 H           3.531000   65.041100   67.868900 H         1 <1>         0.069000 
     18 H           5.582400   66.119700   68.690600 H         1 <1>         0.172000 
     19 H           6.206800   66.271700   67.039800 H         1 <1>         0.121200 
     20 H           3.714500   67.700400   68.159000 H         1 <1>         0.163300 
     21 H           5.282900   68.421400   67.792300 H         1 <1>         0.143000 
     22 H           2.272700   66.889500   66.238400 H         1 <1>         0.232500 
     23 H           2.902800   66.996500   64.592800 H         1 <1>         0.189800 
     24 H           4.650400   65.344100   65.024700 H         1 <1>         0.093800 
     25 H           3.077700   64.657900   65.449200 H         1 <1>         0.191200 
     26 H           3.573700   69.840000   65.931700 H         1 <1>         0.279100 
     27 H           5.314300   69.545100   65.823400 H         1 <1>         0.242000 
     28 H           2.206200   69.931000   64.044400 H         1 <1>         0.178000 
     29 H           1.955500   69.924800   61.567900 H         1 <1>         0.186900 
     30 H           3.851200   69.184900   60.109400 H         1 <1>         0.180900 
     31 H           6.007200   68.444900   61.145300 H         1 <1>         0.178200 
     32 H           6.268100   68.442500   63.627900 H         1 <1>         0.200200 
     33 C           3.650500   62.752200   67.118800 C.3       1 <1>         0.059700 
     34 N           3.040300   62.682300   68.452200 N.am      1 <1>        -0.612900 
     35 C           3.435100   61.524900   69.075000 C.2       1 <1>         0.802000 
     36 O           4.412600   60.810700   68.875300 O.2       1 <1>        -0.542000 
     37 C           2.336000   61.261000   69.991000 C.2       1 <1>        -0.385300 
     38 C           2.181600   60.057400   70.705200 C.2       1 <1>         0.091600 
     39 C           1.093700   59.881400   71.562700 C.2       1 <1>        -0.474400 
     40 C           0.145100   60.903000   71.721100 C.2       1 <1>         0.765300 
     41 C           0.302700   62.103900   71.018200 C.2       1 <1>        -0.396100 
     42 C           1.393200   62.291300   70.161800 C.2       1 <1>        -0.151200 
     43 H           2.890400   63.029800   66.377700 H         1 <1>         0.067900 
     44 H           3.924900   61.731600   66.803600 H         1 <1>         0.130900 
     45 H           2.920400   59.242700   70.579800 H         1 <1>         0.177700 
     46 H          -0.438000   62.916400   71.149300 H         1 <1>         0.218800 
     47 H           4.917000   67.435200   65.697600 H         1 <1>         0.415400 
     48 C           1.861000   63.293100   69.050800 C.2       1 <1>         0.864100 
     49 O           1.388700   64.315900   68.616000 O.2       1 <1>        -0.628900 
     50 N          -0.930500   60.724500   72.587800 N.pl3     1 <1>        -1.248100 
     51 H          -1.100000   59.832800   73.028400 H         1 <1>         0.531300 
     52 H          -1.687600   61.384000   72.634100 H         1 <1>         0.538700 
     53 H           0.985900   58.925700   72.117800 H         1 <1>         0.219500 
@<TRIPOS>BOND
     1    1    2 1    
     2    1   15 1    
     3    1   16 1    
     4    1   33 1    
     5    2    3 1    
     6    2    7 1    
     7    2   17 1    
     8    3    4 1    
     9    3   18 1    
    10    3   19 1    
    11    4    5 1    
    12    4   20 1    
    13    4   21 1    
    14    5    6 1    
    15    5    8 1    
    16    5   47 1    
    17    6    7 1    
    18    6   22 1    
    19    6   23 1    
    20    7   24 1    
    21    7   25 1    
    22    8    9 1    
    23    8   26 1    
    24    8   27 1    
    25    9   10 1    
    26    9   14 2    
    27   10   11 2    
    28   10   28 1    
    29   11   12 1    
    30   11   29 1    
    31   12   13 2    
    32   12   30 1    
    33   13   14 1    
    34   13   31 1    
    35   14   32 1    
    36   33   34 1    
    37   33   43 1    
    38   33   44 1    
    39   34   35 am   
    40   34   48 am   
    41   35   36 2    
    42   35   37 1    
    43   37   38 2    
    44   37   42 1    
    45   38   39 1    
    46   38   45 1    
    47   39   40 2    
    48   39   53 1    
    49   40   41 1    
    50   40   50 1    
    51   41   42 2    
    52   41   46 1    
    53   42   48 1    
    54   48   49 2    
    55   50   51 1    
    56   50   52 1    
@<TRIPOS>SUBSTRUCTURE
     1 ****        1 TEMP              0 ****  ****    0 ROOT 
@<TRIPOS>SET
UNITY_3DHIT     STATIC     ATOMS    <user>   **** Atoms matching 3D or FLEX Search
0
@<TRIPOS>UNITY_ATOM_ATTR
5 1
AtomExpr +1
@<TRIPOS>UNITY_BOND_ATTR
26 1
S N
27 1
S N
31 1
S N
43 1
S I
47 1
S I
51 1
S I
