#	Name:			1-20
#	Creating user name:	jeff
#	Creation time:		Thu Dec 19 21:51:10 2002

#	Modifying user name:	jeff
#	Modification time:	Thu Dec 19 21:51:11 2002

@<TRIPOS>MOLECULE
1-20
   55    58     1     0     1
SMALL
USER_CHARGES
****
From 3DB ct
@<TRIPOS>ATOM
      1 C           4.901200   63.657000   67.124500 C.3       1 <1>        -0.351100 
      2 C           4.385500   65.095300   67.167900 C.3       1 <1>         0.259900 
      3 C           5.277000   66.262800   67.639800 C.3       1 <1>        -0.369200 
      4 C           4.585700   67.625300   67.481800 C.3       1 <1>        -0.057700 
      5 N           4.192500   67.807300   66.080500 N.4       1 <1>         0.147300 
      6 C           3.199600   66.822100   65.639200 C.3       1 <1>        -0.256900 
      7 C           3.822900   65.410200   65.756800 C.3       1 <1>        -0.212300 
      8 C           4.330200   69.150900   65.515100 C.3       1 <1>        -0.571700 
      9 C           4.261200   69.199200   64.002100 C.2       1 <1>         0.200700 
     10 C           3.058300   69.612200   63.410300 C.2       1 <1>        -0.212200 
     11 C           2.913700   69.607300   62.021400 C.2       1 <1>        -0.119600 
     12 C           3.968500   69.192800   61.210100 C.2       1 <1>        -0.086100 
     13 C           5.169800   68.782800   61.785500 C.2       1 <1>        -0.088800 
     14 C           5.316600   68.786600   63.173700 C.2       1 <1>        -0.323500 
     15 H           5.538300   63.391100   67.987300 H         1 <1>         0.138400 
     16 H           5.511800   63.470100   66.224000 H         1 <1>         0.123000 
     17 H           3.531000   65.041100   67.868900 H         1 <1>         0.060400 
     18 H           5.582400   66.119700   68.690600 H         1 <1>         0.170500 
     19 H           6.206800   66.271700   67.039800 H         1 <1>         0.113200 
     20 H           3.714500   67.700400   68.159000 H         1 <1>         0.168200 
     21 H           5.282900   68.421400   67.792300 H         1 <1>         0.148900 
     22 H           2.272700   66.889500   66.238400 H         1 <1>         0.224300 
     23 H           2.902800   66.996500   64.592800 H         1 <1>         0.181300 
     24 H           4.650400   65.344100   65.024700 H         1 <1>         0.089000 
     25 H           3.077700   64.657900   65.449200 H         1 <1>         0.186100 
     26 H           3.573700   69.840000   65.931700 H         1 <1>         0.273300 
     27 H           5.314300   69.545100   65.823400 H         1 <1>         0.237900 
     28 H           2.206200   69.931000   64.044400 H         1 <1>         0.178500 
     29 H           1.955500   69.924800   61.567900 H         1 <1>         0.184700 
     30 H           3.851200   69.184900   60.109400 H         1 <1>         0.182500 
     31 H           6.007200   68.444900   61.145300 H         1 <1>         0.180000 
     32 H           6.268100   68.442500   63.627900 H         1 <1>         0.201600 
     33 C           3.650500   62.752200   67.118800 C.3       1 <1>         0.019200 
     34 N           3.040300   62.682300   68.452200 N.am      1 <1>        -0.587100 
     35 C           3.435100   61.524900   69.075000 C.2       1 <1>         0.795300 
     36 O           4.412600   60.810700   68.875300 O.2       1 <1>        -0.529500 
     37 C           2.336000   61.261000   69.991000 C.2       1 <1>        -0.360300 
     38 C           2.181600   60.057400   70.705200 C.2       1 <1>         0.107500 
     39 C           1.093700   59.881400   71.562700 C.2       1 <1>        -0.368700 
     40 C           0.145100   60.903000   71.721100 C.2       1 <1>         0.504600 
     41 C           0.302700   62.103900   71.018200 C.2       1 <1>        -0.244700 
     42 C           1.393200   62.291300   70.161800 C.2       1 <1>        -0.202400 
     43 H           2.890400   63.029800   66.377700 H         1 <1>         0.084300 
     44 H           3.924900   61.731600   66.803600 H         1 <1>         0.140800 
     45 H           2.920400   59.242700   70.579800 H         1 <1>         0.172500 
     46 H           0.979400   58.930100   72.117600 H         1 <1>         0.224100 
     47 H          -0.438000   62.916400   71.149300 H         1 <1>         0.186400 
     48 H           4.917000   67.435200   65.697600 H         1 <1>         0.402500 
     49 C           1.861000   63.293100   69.050800 C.2       1 <1>         0.842400 
     50 O           1.388700   64.315900   68.616000 O.2       1 <1>        -0.615000 
     51 C          -1.924700   61.595700   72.799100 C.3       1 <1>         0.082000 
     52 O          -0.889000   60.646200   72.574700 O.3       1 <1>        -0.431500 
     53 H          -1.537300   62.526400   73.240200 H         1 <1>         0.041300 
     54 H          -2.469700   61.832600   71.872900 H         1 <1>         0.052800 
     55 H          -2.620300   61.128000   73.510600 H         1 <1>         0.105300 
@<TRIPOS>BOND
     1    1    2 1    
     2    1   15 1    
     3    1   16 1    
     4    1   33 1    
     5    2    3 1    
     6    2    7 1    
     7    2   17 1    
     8    3    4 1    
     9    3   18 1    
    10    3   19 1    
    11    4    5 1    
    12    4   20 1    
    13    4   21 1    
    14    5    6 1    
    15    5    8 1    
    16    5   48 1    
    17    6    7 1    
    18    6   22 1    
    19    6   23 1    
    20    7   24 1    
    21    7   25 1    
    22    8    9 1    
    23    8   26 1    
    24    8   27 1    
    25    9   10 1    
    26    9   14 2    
    27   10   11 2    
    28   10   28 1    
    29   11   12 1    
    30   11   29 1    
    31   12   13 2    
    32   12   30 1    
    33   13   14 1    
    34   13   31 1    
    35   14   32 1    
    36   33   34 1    
    37   33   43 1    
    38   33   44 1    
    39   34   35 am   
    40   34   49 am   
    41   35   36 2    
    42   35   37 1    
    43   37   38 2    
    44   37   42 1    
    45   38   39 1    
    46   38   45 1    
    47   39   40 2    
    48   39   46 1    
    49   40   41 1    
    50   40   52 1    
    51   41   42 2    
    52   41   47 1    
    53   42   49 1    
    54   49   50 2    
    55   52   51 1    
    56   51   53 1    
    57   51   54 1    
    58   51   55 1    
@<TRIPOS>SUBSTRUCTURE
     1 ****        1 TEMP              0 ****  ****    0 ROOT 
@<TRIPOS>SET
UNITY_3DHIT     STATIC     ATOMS    <user>   **** Atoms matching 3D or FLEX Search
0
@<TRIPOS>UNITY_ATOM_ATTR
5 1
AtomExpr +1
@<TRIPOS>UNITY_BOND_ATTR
26 1
S N
27 1
S I
31 1
S I
43 1
S N
47 1
S I
51 1
S I
