#	Name:			1-22
#	Creating user name:	jeff
#	Creation time:		Thu Dec 19 21:51:12 2002

#	Modifying user name:	jeff
#	Modification time:	Thu Dec 19 21:51:13 2002

@<TRIPOS>MOLECULE
1-22
   63    67     1     0     1
SMALL
USER_CHARGES
****
From 3DB ct
@<TRIPOS>ATOM
      1 C           4.901200   63.657000   67.124500 C.3       1 <1>        -0.387600 
      2 C           4.385500   65.095300   67.167900 C.3       1 <1>         0.267500 
      3 C           5.277000   66.262800   67.639800 C.3       1 <1>        -0.392100 
      4 C           4.585700   67.625300   67.481800 C.3       1 <1>        -0.016100 
      5 N           4.192500   67.807300   66.080500 N.4       1 <1>         0.124400 
      6 C           3.199600   66.822100   65.639200 C.3       1 <1>        -0.247100 
      7 C           3.822900   65.410200   65.756800 C.3       1 <1>        -0.277600 
      8 C           4.330200   69.150900   65.515100 C.3       1 <1>        -0.606500 
      9 C           4.261200   69.199200   64.002100 C.2       1 <1>         0.227900 
     10 C           3.058300   69.612200   63.410300 C.2       1 <1>        -0.214100 
     11 C           2.913700   69.607300   62.021400 C.2       1 <1>        -0.128200 
     12 C           3.968500   69.192800   61.210100 C.2       1 <1>        -0.082100 
     13 C           5.169800   68.782800   61.785500 C.2       1 <1>        -0.091600 
     14 C           5.316600   68.786600   63.173700 C.2       1 <1>        -0.330400 
     15 H           5.538300   63.391100   67.987300 H         1 <1>         0.151100 
     16 H           5.511800   63.470100   66.224000 H         1 <1>         0.128900 
     17 H           3.531000   65.041100   67.868900 H         1 <1>         0.073900 
     18 H           5.582400   66.119700   68.690600 H         1 <1>         0.170900 
     19 H           6.206800   66.271700   67.039800 H         1 <1>         0.118600 
     20 H           3.714500   67.700400   68.159000 H         1 <1>         0.165000 
     21 H           5.282900   68.421400   67.792300 H         1 <1>         0.142500 
     22 H           2.272700   66.889500   66.238400 H         1 <1>         0.229300 
     23 H           2.902800   66.996500   64.592800 H         1 <1>         0.184500 
     24 H           4.650400   65.344100   65.024700 H         1 <1>         0.108900 
     25 H           3.077700   64.657900   65.449200 H         1 <1>         0.204000 
     26 H           3.573700   69.840000   65.931700 H         1 <1>         0.281400 
     27 H           5.314300   69.545100   65.823400 H         1 <1>         0.245000 
     28 H           2.206200   69.931000   64.044400 H         1 <1>         0.180000 
     29 H           1.955500   69.924800   61.567900 H         1 <1>         0.188100 
     30 H           3.851200   69.184900   60.109400 H         1 <1>         0.182600 
     31 H           6.007200   68.444900   61.145300 H         1 <1>         0.179900 
     32 H           6.268100   68.442500   63.627900 H         1 <1>         0.201200 
     33 C           3.650500   62.752200   67.118800 C.3       1 <1>         0.060400 
     34 N           3.040300   62.682300   68.452200 N.am      1 <1>        -0.596100 
     35 C           3.435100   61.524900   69.075000 C.2       1 <1>         0.754400 
     36 O           4.412600   60.810700   68.875300 O.2       1 <1>        -0.518800 
     37 C           2.336000   61.261000   69.991000 C.2       1 <1>        -0.182500 
     38 C           2.181600   60.057400   70.705200 C.2       1 <1>        -0.081200 
     39 C           1.093700   59.881400   71.562700 C.2       1 <1>        -0.118000 
     40 C           0.145100   60.903000   71.721100 C.2       1 <1>        -0.014200 
     41 C           0.302700   62.103900   71.018200 C.2       1 <1>        -0.112600 
     42 C           1.393200   62.291300   70.161800 C.2       1 <1>        -0.237800 
     43 H           2.890400   63.029800   66.377700 H         1 <1>         0.077400 
     44 H           3.924900   61.731600   66.803600 H         1 <1>         0.130900 
     45 H           2.920400   59.242700   70.579800 H         1 <1>         0.191100 
     46 H          -0.438000   62.916400   71.149300 H         1 <1>         0.225900 
     47 H           4.917000   67.435200   65.697600 H         1 <1>         0.411400 
     48 C           1.861000   63.293100   69.050800 C.2       1 <1>         0.818300 
     49 O           1.388700   64.315900   68.616000 O.2       1 <1>        -0.603100 
     50 C          -1.055300   60.770500   72.631200 C.2       1 <1>         0.530800 
     51 O          -1.830700   61.717100   72.730100 O.2       1 <1>        -0.513000 
     52 H           0.993400   59.067200   72.041800 H         1 <1>         0.183500 
     53 C          -1.447500   59.504200   73.381300 C.2       1 <1>        -0.061300 
     54 C          -2.155000   59.749500   74.586500 C.2       1 <1>        -0.198200 
     55 H          -2.391000   60.778800   74.916900 H         1 <1>         0.199900 
     56 C          -2.564300   58.699400   75.408500 C.2       1 <1>        -0.104800 
     57 H          -3.110800   58.917700   76.347000 H         1 <1>         0.153100 
     58 C          -2.288500   57.371500   75.052100 C.2       1 <1>        -0.104400 
     59 H          -2.615500   56.536700   75.700700 H         1 <1>         0.155000 
     60 C          -1.609000   57.120100   73.858000 C.2       1 <1>        -0.136000 
     61 H          -1.401800   56.074700   73.556200 H         1 <1>         0.154500 
     62 C          -1.187500   58.171400   73.028000 C.2       1 <1>        -0.182900 
     63 H          -0.709900   57.904500   72.070000 H         1 <1>         0.157500 
@<TRIPOS>BOND
     1    1    2 1    
     2    1   15 1    
     3    1   16 1    
     4    1   33 1    
     5    2    3 1    
     6    2    7 1    
     7    2   17 1    
     8    3    4 1    
     9    3   18 1    
    10    3   19 1    
    11    4    5 1    
    12    4   20 1    
    13    4   21 1    
    14    5    6 1    
    15    5    8 1    
    16    5   47 1    
    17    6    7 1    
    18    6   22 1    
    19    6   23 1    
    20    7   24 1    
    21    7   25 1    
    22    8    9 1    
    23    8   26 1    
    24    8   27 1    
    25    9   10 1    
    26    9   14 2    
    27   10   11 2    
    28   10   28 1    
    29   11   12 1    
    30   11   29 1    
    31   12   13 2    
    32   12   30 1    
    33   13   14 1    
    34   13   31 1    
    35   14   32 1    
    36   33   34 1    
    37   33   43 1    
    38   33   44 1    
    39   34   35 am   
    40   34   48 am   
    41   35   36 2    
    42   35   37 1    
    43   37   38 2    
    44   37   42 1    
    45   38   39 1    
    46   38   45 1    
    47   39   40 2    
    48   39   52 1    
    49   40   41 1    
    50   40   50 1    
    51   41   42 2    
    52   41   46 1    
    53   42   48 1    
    54   48   49 2    
    55   50   51 2    
    56   50   53 1    
    57   53   54 1    
    58   53   62 2    
    59   54   55 1    
    60   54   56 2    
    61   56   57 1    
    62   56   58 1    
    63   58   59 1    
    64   58   60 2    
    65   60   61 1    
    66   60   62 1    
    67   62   63 1    
@<TRIPOS>SUBSTRUCTURE
     1 ****        1 TEMP              0 ****  ****    0 ROOT 
@<TRIPOS>SET
UNITY_3DHIT     STATIC     ATOMS    <user>   **** Atoms matching 3D or FLEX Search
0
@<TRIPOS>UNITY_ATOM_ATTR
5 1
AtomExpr +1
@<TRIPOS>UNITY_BOND_ATTR
26 1
S N
27 1
S I
31 1
S I
43 1
S N
47 1
S I
51 1
S I
58 1
S N
60 1
S N
64 1
S N
