#	Name:			1-23
#	Creating user name:	jeff
#	Creation time:		Thu Dec 19 21:51:13 2002

#	Modifying user name:	jeff
#	Modification time:	Thu Dec 19 21:51:14 2002

@<TRIPOS>MOLECULE
1-23
   53    56     1     0     1
SMALL
USER_CHARGES
****
From 3DB ct
@<TRIPOS>ATOM
      1 C           4.901200   63.657000   67.124500 C.3       1 <1>        -0.364400 
      2 C           4.385500   65.095300   67.167900 C.3       1 <1>         0.240100 
      3 C           5.277000   66.262800   67.639800 C.3       1 <1>        -0.400600 
      4 C           4.585700   67.625300   67.481800 C.3       1 <1>        -0.031000 
      5 N           4.192500   67.807300   66.080500 N.4       1 <1>         0.141600 
      6 C           3.199600   66.822100   65.639200 C.3       1 <1>        -0.264800 
      7 C           3.822900   65.410200   65.756800 C.3       1 <1>        -0.259000 
      8 C           4.330200   69.150900   65.515100 C.3       1 <1>        -0.633500 
      9 C           4.261200   69.199200   64.002100 C.2       1 <1>         0.236500 
     10 C           3.058300   69.612200   63.410300 C.2       1 <1>        -0.212000 
     11 C           2.913700   69.607300   62.021400 C.2       1 <1>        -0.128800 
     12 C           3.968500   69.192800   61.210100 C.2       1 <1>        -0.080300 
     13 C           5.169800   68.782800   61.785500 C.2       1 <1>        -0.089600 
     14 C           5.316600   68.786600   63.173700 C.2       1 <1>        -0.334300 
     15 H           5.538300   63.391100   67.987300 H         1 <1>         0.138500 
     16 H           5.511800   63.470100   66.224000 H         1 <1>         0.133000 
     17 H           3.531000   65.041100   67.868900 H         1 <1>         0.077800 
     18 H           5.582400   66.119700   68.690600 H         1 <1>         0.179700 
     19 H           6.206800   66.271700   67.039800 H         1 <1>         0.123300 
     20 H           3.714500   67.700400   68.159000 H         1 <1>         0.166600 
     21 H           5.282900   68.421400   67.792300 H         1 <1>         0.148800 
     22 H           2.272700   66.889500   66.238400 H         1 <1>         0.231400 
     23 H           2.902800   66.996500   64.592800 H         1 <1>         0.188200 
     24 H           4.650400   65.344100   65.024700 H         1 <1>         0.106800 
     25 H           3.077700   64.657900   65.449200 H         1 <1>         0.201000 
     26 H           3.573700   69.840000   65.931700 H         1 <1>         0.286000 
     27 H           5.314300   69.545100   65.823400 H         1 <1>         0.251900 
     28 H           2.206200   69.931000   64.044400 H         1 <1>         0.179400 
     29 H           1.955500   69.924800   61.567900 H         1 <1>         0.187700 
     30 H           3.851200   69.184900   60.109400 H         1 <1>         0.182600 
     31 H           6.007200   68.444900   61.145300 H         1 <1>         0.181100 
     32 H           6.268100   68.442500   63.627900 H         1 <1>         0.201500 
     33 C           3.650500   62.752200   67.118800 C.3       1 <1>         0.069500 
     34 N           3.040300   62.682300   68.452200 N.am      1 <1>        -0.595300 
     35 C           3.435100   61.524900   69.075000 C.2       1 <1>         0.798700 
     36 O           4.412600   60.810700   68.875300 O.2       1 <1>        -0.472300 
     37 C           2.336000   61.261000   69.991000 C.2       1 <1>        -0.257900 
     38 C           2.181600   60.057400   70.705200 C.2       1 <1>         0.104200 
     39 C           1.093700   59.881400   71.562700 C.2       1 <1>        -0.157500 
     40 C           0.145100   60.903000   71.721100 C.2       1 <1>        -0.083300 
     41 C           0.302700   62.103900   71.018200 C.2       1 <1>        -0.004300 
     42 C           1.393200   62.291300   70.161800 C.2       1 <1>        -0.232800 
     43 H           2.890400   63.029800   66.377700 H         1 <1>         0.073900 
     44 H           3.924900   61.731600   66.803600 H         1 <1>         0.125700 
     45 H           0.979400   58.930100   72.117600 H         1 <1>         0.248200 
     46 H          -0.717000   60.761100   72.400200 H         1 <1>         0.180000 
     47 H          -0.438000   62.916400   71.149300 H         1 <1>         0.179100 
     48 H           4.917000   67.435200   65.697600 H         1 <1>         0.415500 
     49 C           1.861000   63.293100   69.050800 C.2       1 <1>         0.824800 
     50 O           1.388700   64.315900   68.616000 O.2       1 <1>        -0.600800 
     51 N           3.067500   58.877800   70.599700 N.2       1 <1>         0.770900 
     52 O           2.991500   58.207700   69.588800 O.2       1 <1>        -0.466700 
     53 O           3.783400   58.633900   71.551200 O.3       1 <1>        -0.482400 
@<TRIPOS>BOND
     1    1    2 1    
     2    1   15 1    
     3    1   16 1    
     4    1   33 1    
     5    2    3 1    
     6    2    7 1    
     7    2   17 1    
     8    3    4 1    
     9    3   18 1    
    10    3   19 1    
    11    4    5 1    
    12    4   20 1    
    13    4   21 1    
    14    5    6 1    
    15    5    8 1    
    16    5   48 1    
    17    6    7 1    
    18    6   22 1    
    19    6   23 1    
    20    7   24 1    
    21    7   25 1    
    22    8    9 1    
    23    8   26 1    
    24    8   27 1    
    25    9   10 1    
    26    9   14 2    
    27   10   11 2    
    28   10   28 1    
    29   11   12 1    
    30   11   29 1    
    31   12   13 2    
    32   12   30 1    
    33   13   14 1    
    34   13   31 1    
    35   14   32 1    
    36   33   34 1    
    37   33   43 1    
    38   33   44 1    
    39   34   35 am   
    40   34   49 am   
    41   35   36 2    
    42   35   37 1    
    43   37   38 2    
    44   37   42 1    
    45   38   39 1    
    46   38   51 1    
    47   39   40 2    
    48   39   45 1    
    49   40   41 1    
    50   40   46 1    
    51   41   42 2    
    52   41   47 1    
    53   42   49 1    
    54   49   50 2    
    55   51   52 2    
    56   51   53 1    
@<TRIPOS>SUBSTRUCTURE
     1 ****        1 TEMP              0 ****  ****    0 ROOT 
@<TRIPOS>SET
UNITY_3DHIT     STATIC     ATOMS    <user>   **** Atoms matching 3D or FLEX Search
0
@<TRIPOS>UNITY_ATOM_ATTR
5 1
AtomExpr +1
51 1
AtomExpr +1
53 1
AtomExpr -1
@<TRIPOS>UNITY_BOND_ATTR
26 1
S N
27 1
S N
31 1
S N
43 1
S N
47 1
S N
51 1
S I
