#	Name:			1-25
#	Creating user name:	jeff
#	Creation time:		Thu Dec 19 21:51:15 2002

#	Modifying user name:	jeff
#	Modification time:	Thu Dec 19 21:51:16 2002

@<TRIPOS>MOLECULE
1-25
   65    69     1     0     1
SMALL
USER_CHARGES
****
From 3DB ct
@<TRIPOS>ATOM
      1 C           4.901200   63.657000   67.124500 C.3       1 <1>        -0.411400 
      2 C           4.385500   65.095300   67.167900 C.3       1 <1>         0.242900 
      3 C           5.277000   66.262800   67.639800 C.3       1 <1>        -0.356500 
      4 C           4.585700   67.625300   67.481800 C.3       1 <1>        -0.099300 
      5 N           4.192500   67.807300   66.080500 N.4       1 <1>         0.142000 
      6 C           3.199600   66.822100   65.639200 C.3       1 <1>        -0.237900 
      7 C           3.822900   65.410200   65.756800 C.3       1 <1>        -0.232000 
      8 C           4.330200   69.150900   65.515100 C.3       1 <1>        -0.525100 
      9 C           4.261200   69.199200   64.002100 C.2       1 <1>         0.173400 
     10 C           3.058300   69.612200   63.410300 C.2       1 <1>        -0.199000 
     11 C           2.913700   69.607300   62.021400 C.2       1 <1>        -0.126000 
     12 C           3.968500   69.192800   61.210100 C.2       1 <1>        -0.079900 
     13 C           5.169800   68.782800   61.785500 C.2       1 <1>        -0.096400 
     14 C           5.316600   68.786600   63.173700 C.2       1 <1>        -0.315200 
     15 H           5.538300   63.391100   67.987300 H         1 <1>         0.148100 
     16 H           5.511800   63.470100   66.224000 H         1 <1>         0.141700 
     17 H           3.531000   65.041100   67.868900 H         1 <1>         0.086700 
     18 H           5.582400   66.119700   68.690600 H         1 <1>         0.173900 
     19 H           6.206800   66.271700   67.039800 H         1 <1>         0.115800 
     20 H           3.714500   67.700400   68.159000 H         1 <1>         0.178000 
     21 H           5.282900   68.421400   67.792300 H         1 <1>         0.161500 
     22 H           2.272700   66.889500   66.238400 H         1 <1>         0.218700 
     23 H           2.902800   66.996500   64.592800 H         1 <1>         0.178100 
     24 H           4.650400   65.344100   65.024700 H         1 <1>         0.096100 
     25 H           3.077700   64.657900   65.449200 H         1 <1>         0.180900 
     26 H           3.573700   69.840000   65.931700 H         1 <1>         0.262000 
     27 H           5.314300   69.545100   65.823400 H         1 <1>         0.230100 
     28 H           2.206200   69.931000   64.044400 H         1 <1>         0.177600 
     29 H           1.955500   69.924800   61.567900 H         1 <1>         0.186200 
     30 H           3.851200   69.184900   60.109400 H         1 <1>         0.182600 
     31 H           6.007200   68.444900   61.145300 H         1 <1>         0.181900 
     32 H           6.268100   68.442500   63.627900 H         1 <1>         0.196600 
     33 C           3.650500   62.752200   67.118800 C.3       1 <1>         0.063900 
     34 N           3.040300   62.682300   68.452200 N.am      1 <1>        -0.594300 
     35 C           3.435100   61.524900   69.075000 C.2       1 <1>         0.835500 
     36 O           4.412600   60.810700   68.875300 O.2       1 <1>        -0.539400 
     37 C           2.336000   61.261000   69.991000 C.2       1 <1>        -0.512200 
     38 C           2.181600   60.057400   70.705200 C.2       1 <1>         0.664900 
     39 C           1.093700   59.881400   71.562700 C.2       1 <1>        -0.385500 
     40 C           0.145100   60.903000   71.721100 C.2       1 <1>        -0.006500 
     41 C           0.302700   62.103900   71.018200 C.2       1 <1>        -0.142200 
     42 C           1.393200   62.291300   70.161800 C.2       1 <1>        -0.149100 
     43 H           2.890400   63.029800   66.377700 H         1 <1>         0.083600 
     44 H           3.924900   61.731600   66.803600 H         1 <1>         0.125000 
     45 H           0.979400   58.930100   72.117600 H         1 <1>         0.238400 
     46 H          -0.717000   60.761100   72.400200 H         1 <1>         0.162600 
     47 H          -0.438000   62.916400   71.149300 H         1 <1>         0.183800 
     48 H           4.917000   67.435200   65.697600 H         1 <1>         0.406600 
     49 C           1.861000   63.293100   69.050800 C.2       1 <1>         0.806300 
     50 O           1.388700   64.315900   68.616000 O.2       1 <1>        -0.602600 
     51 N           3.110500   58.985700   70.602900 N.pl3     1 <1>        -0.925000 
     52 H           3.194700   58.492500   69.724000 H         1 <1>         0.461600 
     53 C           4.112500   58.499600   71.407300 C.2       1 <1>         0.915700 
     54 O           4.775400   57.542400   71.018500 O.2       1 <1>        -0.597100 
     55 C           4.373800   59.124100   72.747200 C.2       1 <1>        -0.262000 
     56 C           4.241400   60.499200   73.006200 C.2       1 <1>        -0.062100 
     57 H           3.945800   61.200800   72.208500 H         1 <1>         0.137900 
     58 C           4.513200   61.004400   74.284700 C.2       1 <1>        -0.205400 
     59 H           4.396500   62.086300   74.485500 H         1 <1>         0.160200 
     60 C           4.936000   60.151900   75.311800 C.2       1 <1>        -0.053700 
     61 H           5.147300   60.546700   76.324500 H         1 <1>         0.143800 
     62 C           5.101000   58.784500   75.046700 C.2       1 <1>        -0.154400 
     63 H           5.445700   58.103500   75.849600 H         1 <1>         0.159800 
     64 C           4.831500   58.273900   73.775600 C.2       1 <1>        -0.094900 
     65 H           4.962200   57.189700   73.587500 H         1 <1>         0.183100 
@<TRIPOS>BOND
     1    1    2 1    
     2    1   15 1    
     3    1   16 1    
     4    1   33 1    
     5    2    3 1    
     6    2    7 1    
     7    2   17 1    
     8    3    4 1    
     9    3   18 1    
    10    3   19 1    
    11    4    5 1    
    12    4   20 1    
    13    4   21 1    
    14    5    6 1    
    15    5    8 1    
    16    5   48 1    
    17    6    7 1    
    18    6   22 1    
    19    6   23 1    
    20    7   24 1    
    21    7   25 1    
    22    8    9 1    
    23    8   26 1    
    24    8   27 1    
    25    9   10 1    
    26    9   14 2    
    27   10   11 2    
    28   10   28 1    
    29   11   12 1    
    30   11   29 1    
    31   12   13 2    
    32   12   30 1    
    33   13   14 1    
    34   13   31 1    
    35   14   32 1    
    36   33   34 1    
    37   33   43 1    
    38   33   44 1    
    39   34   35 am   
    40   34   49 am   
    41   35   36 2    
    42   35   37 1    
    43   37   38 2    
    44   37   42 1    
    45   38   39 1    
    46   38   51 1    
    47   39   40 2    
    48   39   45 1    
    49   40   41 1    
    50   40   46 1    
    51   41   42 2    
    52   41   47 1    
    53   42   49 1    
    54   49   50 2    
    55   51   52 1    
    56   51   53 1    
    57   53   54 2    
    58   53   55 1    
    59   55   56 1    
    60   55   64 2    
    61   56   57 1    
    62   56   58 2    
    63   58   59 1    
    64   58   60 1    
    65   60   61 1    
    66   60   62 2    
    67   62   63 1    
    68   62   64 1    
    69   64   65 1    
@<TRIPOS>SUBSTRUCTURE
     1 ****        1 TEMP              0 ****  ****    0 ROOT 
@<TRIPOS>SET
UNITY_3DHIT     STATIC     ATOMS    <user>   **** Atoms matching 3D or FLEX Search
0
@<TRIPOS>UNITY_ATOM_ATTR
5 1
AtomExpr +1
@<TRIPOS>UNITY_BOND_ATTR
26 1
S N
27 1
S N
31 1
S N
43 1
S N
47 1
S N
51 1
S I
60 1
S N
62 1
S N
66 1
S N
