#	Name:			1-31b
#	Creating user name:	jeff
#	Creation time:		Thu Dec 19 21:51:18 2002

#	Modifying user name:	jeff
#	Modification time:	Thu Dec 19 21:51:19 2002

@<TRIPOS>MOLECULE
1-31b
   55    58     1     0     1
SMALL
USER_CHARGES
****
From 3DB ct
@<TRIPOS>ATOM
      1 C           4.901200   63.657000   67.124500 C.3       1 <1>        -0.387900 
      2 C           4.385500   65.095300   67.167900 C.3       1 <1>         0.273200 
      3 C           5.277000   66.262800   67.639800 C.3       1 <1>        -0.359500 
      4 C           4.585700   67.625300   67.481800 C.3       1 <1>        -0.076700 
      5 N           4.192500   67.807300   66.080500 N.4       1 <1>         0.175000 
      6 C           3.199600   66.822100   65.639200 C.3       1 <1>        -0.245900 
      7 C           3.822900   65.410200   65.756800 C.3       1 <1>        -0.212900 
      8 C           4.330200   69.150900   65.515100 C.3       1 <1>        -0.630400 
      9 C           4.261200   69.199200   64.002100 C.2       1 <1>         0.216600 
     10 C           3.058300   69.612200   63.410300 C.2       1 <1>        -0.199600 
     11 C           2.913700   69.607300   62.021400 C.2       1 <1>        -0.127000 
     12 C           3.968500   69.192800   61.210100 C.2       1 <1>        -0.087800 
     13 C           5.169800   68.782800   61.785500 C.2       1 <1>        -0.077000 
     14 C           5.316600   68.786600   63.173700 C.2       1 <1>        -0.331500 
     15 H           5.538300   63.391100   67.987300 H         1 <1>         0.151100 
     16 H           5.511800   63.470100   66.224000 H         1 <1>         0.122600 
     17 H           3.531000   65.041100   67.868900 H         1 <1>         0.050700 
     18 H           5.582400   66.119700   68.690600 H         1 <1>         0.181800 
     19 H           6.206800   66.271700   67.039800 H         1 <1>         0.113300 
     20 H           3.714500   67.700400   68.159000 H         1 <1>         0.169800 
     21 H           5.282900   68.421400   67.792300 H         1 <1>         0.151400 
     22 H           2.272700   66.889500   66.238400 H         1 <1>         0.209400 
     23 H           2.902800   66.996500   64.592800 H         1 <1>         0.173300 
     24 H           4.650400   65.344100   65.024700 H         1 <1>         0.094000 
     25 H           3.077700   64.657900   65.449200 H         1 <1>         0.162900 
     26 H           3.573700   69.840000   65.931700 H         1 <1>         0.283400 
     27 H           5.314300   69.545100   65.823400 H         1 <1>         0.255300 
     28 H           2.206200   69.931000   64.044400 H         1 <1>         0.171200 
     29 H           1.955500   69.924800   61.567900 H         1 <1>         0.185700 
     30 H           3.851200   69.184900   60.109400 H         1 <1>         0.183100 
     31 H           6.007200   68.444900   61.145300 H         1 <1>         0.176800 
     32 H           6.268100   68.442500   63.627900 H         1 <1>         0.204200 
     33 C           3.650500   62.752200   67.118800 C.3       1 <1>         0.078200 
     34 N           3.107600   62.681000   68.372400 N.am      1 <1>        -0.564200 
     35 C           3.435100   61.524900   69.075000 C.2       1 <1>         0.862100 
     36 O           4.412600   60.810700   68.875300 O.2       1 <1>        -0.623200 
     37 C           2.455800   61.189000   70.244400 C.3       1 <1>        -0.557200 
     38 C           0.624200   62.290200   71.662400 C.2       1 <1>        -0.240200 
     39 C           1.269400   62.159300   70.425400 C.2       1 <1>         0.184400 
     40 H           2.890400   63.029800   66.377700 H         1 <1>         0.051800 
     41 H           3.924900   61.731600   66.803600 H         1 <1>         0.102600 
     42 H           0.964500   61.683000   72.526700 H         1 <1>         0.203900 
     43 H           4.917000   67.435200   65.697600 H         1 <1>         0.401700 
     44 C           0.837500   62.922800   69.350500 C.2       1 <1>        -0.104600 
     45 C           1.600900   62.707900   68.066800 C.3       1 <1>         0.040800 
     46 C          -0.234500   63.811500   69.500200 C.2       1 <1>        -0.184300 
     47 C          -0.878100   63.937800   70.731600 C.2       1 <1>        -0.148300 
     48 C          -0.444600   63.171900   71.820300 C.2       1 <1>        -0.116000 
     49 H          -0.585100   64.413500   68.637600 H         1 <1>         0.162900 
     50 H          -1.730500   64.634800   70.850200 H         1 <1>         0.163900 
     51 H          -0.948700   63.262700   72.802100 H         1 <1>         0.167000 
     52 H           2.084300   60.166100   70.066300 H         1 <1>         0.211200 
     53 H           3.064700   61.170200   71.161900 H         1 <1>         0.181300 
     54 H           1.297100   63.362100   67.101500 H         1 <1>         0.081000 
     55 H           1.318500   61.691400   67.713600 H         1 <1>         0.099100 
@<TRIPOS>BOND
     1    1    2 1    
     2    1   15 1    
     3    1   16 1    
     4    1   33 1    
     5    2    3 1    
     6    2    7 1    
     7    2   17 1    
     8    3    4 1    
     9    3   18 1    
    10    3   19 1    
    11    4    5 1    
    12    4   20 1    
    13    4   21 1    
    14    5    6 1    
    15    5    8 1    
    16    5   43 1    
    17    6    7 1    
    18    6   22 1    
    19    6   23 1    
    20    7   24 1    
    21    7   25 1    
    22    8    9 1    
    23    8   26 1    
    24    8   27 1    
    25    9   10 1    
    26    9   14 2    
    27   10   11 2    
    28   10   28 1    
    29   11   12 1    
    30   11   29 1    
    31   12   13 2    
    32   12   30 1    
    33   13   14 1    
    34   13   31 1    
    35   14   32 1    
    36   33   34 1    
    37   33   40 1    
    38   33   41 1    
    39   34   35 am   
    40   34   45 1    
    41   35   36 2    
    42   35   37 1    
    43   37   39 1    
    44   37   52 1    
    45   37   53 1    
    46   39   38 1    
    47   38   42 1    
    48   38   48 2    
    49   39   44 2    
    50   44   45 1    
    51   44   46 1    
    52   45   54 1    
    53   45   55 1    
    54   46   47 2    
    55   46   49 1    
    56   47   48 1    
    57   47   50 1    
    58   48   51 1    
@<TRIPOS>SUBSTRUCTURE
     1 ****        1 TEMP              0 ****  ****    0 ROOT 
@<TRIPOS>SET
UNITY_3DHIT     STATIC     ATOMS    <user>   **** Atoms matching 3D or FLEX Search
0
@<TRIPOS>UNITY_ATOM_ATTR
5 1
AtomExpr +1
@<TRIPOS>UNITY_BOND_ATTR
26 1
S N
27 1
S I
31 1
S I
48 1
S I
49 1
S I
54 1
S I
