#	Name:			1-31c
#	Creating user name:	jeff
#	Creation time:		Thu Dec 19 21:51:19 2002

#	Modifying user name:	jeff
#	Modification time:	Thu Dec 19 21:51:20 2002

@<TRIPOS>MOLECULE
1-31c
   57    60     1     0     1
SMALL
USER_CHARGES
****
From 3DB ct
@<TRIPOS>ATOM
      1 C           4.901200   63.657000   67.124500 C.3       1 <1>        -0.540900 
      2 C           4.385500   65.095400   67.167900 C.3       1 <1>         0.275100 
      3 C           5.277000   66.262800   67.639800 C.3       1 <1>        -0.324600 
      4 C           4.585700   67.625300   67.481800 C.3       1 <1>        -0.099200 
      5 N           4.192500   67.807300   66.080400 N.4       1 <1>         0.169000 
      6 C           3.199700   66.822100   65.639200 C.3       1 <1>        -0.256200 
      7 C           3.822900   65.410200   65.756700 C.3       1 <1>        -0.249900 
      8 C           4.330200   69.150900   65.515100 C.3       1 <1>        -0.650700 
      9 C           4.261200   69.199100   64.002000 C.2       1 <1>         0.216000 
     10 C           3.058400   69.612100   63.410100 C.2       1 <1>        -0.208900 
     11 C           2.913700   69.607200   62.021300 C.2       1 <1>        -0.115300 
     12 C           3.968600   69.192700   61.210000 C.2       1 <1>        -0.068700 
     13 C           5.169900   68.782700   61.785400 C.2       1 <1>        -0.070200 
     14 C           5.316600   68.786500   63.173700 C.2       1 <1>        -0.346300 
     15 H           5.538300   63.391200   67.987300 H         1 <1>         0.171600 
     16 H           5.511800   63.470100   66.224100 H         1 <1>         0.224000 
     17 H           3.531000   65.041100   67.868900 H         1 <1>         0.030100 
     18 H           5.582300   66.119800   68.690600 H         1 <1>         0.166800 
     19 H           6.206800   66.271700   67.039800 H         1 <1>         0.126900 
     20 H           3.714500   67.700400   68.159000 H         1 <1>         0.177800 
     21 H           5.282900   68.421500   67.792200 H         1 <1>         0.182900 
     22 H           2.272700   66.889400   66.238300 H         1 <1>         0.218500 
     23 H           2.902800   66.996500   64.592800 H         1 <1>         0.204300 
     24 H           4.650500   65.344100   65.024700 H         1 <1>         0.128200 
     25 H           3.077700   64.657900   65.449100 H         1 <1>         0.156500 
     26 H           3.573700   69.840000   65.931600 H         1 <1>         0.294100 
     27 H           5.314300   69.545100   65.823400 H         1 <1>         0.275100 
     28 H           2.206200   69.930900   64.044300 H         1 <1>         0.173800 
     29 H           1.955500   69.924700   61.567800 H         1 <1>         0.191500 
     30 H           3.851300   69.184800   60.109300 H         1 <1>         0.191300 
     31 H           6.007200   68.444900   61.145300 H         1 <1>         0.185200 
     32 H           6.268200   68.442500   63.627800 H         1 <1>         0.203700 
     33 C           3.650500   62.752200   67.118800 C.3       1 <1>        -0.002300 
     34 N           3.107600   62.681000   68.372400 N.4       1 <1>        -0.078600 
     35 C           1.707600   62.246400   68.136500 C.3       1 <1>        -0.338500 
     36 C           1.020400   61.473900   69.276600 C.2       1 <1>        -0.066000 
     37 C          -0.372800   61.263300   69.245800 C.2       1 <1>        -0.155000 
     38 C          -1.019300   60.551600   70.250500 C.2       1 <1>        -0.126900 
     39 C          -0.270200   60.033700   71.316300 C.2       1 <1>        -0.027200 
     40 C           1.103900   60.245400   71.347200 C.2       1 <1>        -0.209800 
     41 C           1.755000   60.964200   70.327000 C.2       1 <1>         0.015500 
     42 H           2.890500   63.029800   66.377700 H         1 <1>         0.122900 
     43 H           3.924900   61.731600   66.803700 H         1 <1>         0.185600 
     44 H          -0.965500   61.670900   68.401000 H         1 <1>         0.203600 
     45 H          -2.114800   60.390600   70.209900 H         1 <1>         0.201600 
     46 H          -0.768200   59.462000   72.124800 H         1 <1>         0.190900 
     47 H           1.698100   59.839300   72.192100 H         1 <1>         0.210000 
     48 H           4.917000   67.435200   65.697500 H         1 <1>         0.410700 
     49 C           3.263600   61.188900   70.390600 C.3       1 <1>        -0.207300 
     50 C           3.834800   61.586300   69.014300 C.3       1 <1>        -0.056800 
     51 H           3.473700   61.976800   71.136400 H         1 <1>         0.098300 
     52 H           4.906200   61.835100   69.101500 H         1 <1>         0.144200 
     53 H           3.766400   60.275300   70.747200 H         1 <1>         0.181000 
     54 H           3.785500   60.710200   68.339500 H         1 <1>         0.205700 
     55 H           1.064500   63.097100   67.864100 H         1 <1>         0.206600 
     56 H           1.713100   61.581700   67.252100 H         1 <1>         0.257000 
     57 H           3.229800   63.505600   68.711700 H         1 <1>         0.447400 
@<TRIPOS>BOND
     1    1    2 1    
     2    1   15 1    
     3    1   16 1    
     4    1   33 1    
     5    2    3 1    
     6    2    7 1    
     7    2   17 1    
     8    3    4 1    
     9    3   18 1    
    10    3   19 1    
    11    4    5 1    
    12    4   20 1    
    13    4   21 1    
    14    5    6 1    
    15    5    8 1    
    16    5   48 1    
    17    6    7 1    
    18    6   22 1    
    19    6   23 1    
    20    7   24 1    
    21    7   25 1    
    22    8    9 1    
    23    8   26 1    
    24    8   27 1    
    25    9   10 1    
    26    9   14 2    
    27   10   11 2    
    28   10   28 1    
    29   11   12 1    
    30   11   29 1    
    31   12   13 2    
    32   12   30 1    
    33   13   14 1    
    34   13   31 1    
    35   14   32 1    
    36   33   34 1    
    37   33   42 1    
    38   33   43 1    
    39   34   35 1    
    40   34   50 1    
    41   34   57 1    
    42   35   36 1    
    43   35   55 1    
    44   35   56 1    
    45   36   37 2    
    46   36   41 1    
    47   37   38 1    
    48   37   44 1    
    49   38   39 2    
    50   38   45 1    
    51   39   40 1    
    52   39   46 1    
    53   40   41 2    
    54   40   47 1    
    55   41   49 1    
    56   49   50 1    
    57   49   51 1    
    58   49   53 1    
    59   50   52 1    
    60   50   54 1    
@<TRIPOS>SUBSTRUCTURE
     1 ****        1 TEMP              0 ****  ****    0 ROOT 
@<TRIPOS>SET
UNITY_3DHIT     STATIC     ATOMS    <user>   **** Atoms matching 3D or FLEX Search
0
@<TRIPOS>UNITY_ATOM_ATTR
5 1
AtomExpr +1
34 1
AtomExpr +1
@<TRIPOS>UNITY_BOND_ATTR
26 1
S N
27 1
S N
31 1
S N
45 1
S I
49 1
S N
53 1
S I
