#	Name:			1-31a
#	Creating user name:	jeff
#	Creation time:		Thu Dec 19 21:51:17 2002

#	Modifying user name:	jeff
#	Modification time:	Thu Dec 19 21:51:18 2002

@<TRIPOS>MOLECULE
1-31a
   55    58     1     0     1
SMALL
USER_CHARGES
****
From 3DB ct
@<TRIPOS>ATOM
      1 C           4.901200   63.657000   67.124500 C.3       1 <1>        -0.297700 
      2 C           4.385500   65.095300   67.167900 C.3       1 <1>         0.195500 
      3 C           5.277000   66.262800   67.639800 C.3       1 <1>        -0.302200 
      4 C           4.585700   67.625300   67.481800 C.3       1 <1>        -0.089200 
      5 N           4.192500   67.807300   66.080500 N.4       1 <1>         0.193700 
      6 C           3.199600   66.822100   65.639200 C.3       1 <1>        -0.218900 
      7 C           3.822900   65.410200   65.756800 C.3       1 <1>        -0.363700 
      8 C           4.330200   69.150900   65.515100 C.3       1 <1>        -0.651900 
      9 C           4.261200   69.199200   64.002100 C.2       1 <1>         0.244800 
     10 C           3.058300   69.612200   63.410300 C.2       1 <1>        -0.226800 
     11 C           2.913700   69.607300   62.021400 C.2       1 <1>        -0.114000 
     12 C           3.968500   69.192800   61.210100 C.2       1 <1>        -0.093400 
     13 C           5.169800   68.782800   61.785500 C.2       1 <1>        -0.078500 
     14 C           5.316600   68.786600   63.173700 C.2       1 <1>        -0.346300 
     15 H           5.538300   63.391100   67.987300 H         1 <1>         0.136300 
     16 H           5.511800   63.470100   66.224000 H         1 <1>         0.112800 
     17 H           3.531000   65.041100   67.868900 H         1 <1>         0.065400 
     18 H           5.582400   66.119700   68.690600 H         1 <1>         0.168900 
     19 H           6.206800   66.271700   67.039800 H         1 <1>         0.099900 
     20 H           3.714500   67.700400   68.159000 H         1 <1>         0.174600 
     21 H           5.282900   68.421400   67.792300 H         1 <1>         0.149700 
     22 H           2.272700   66.889500   66.238400 H         1 <1>         0.207700 
     23 H           2.902800   66.996500   64.592800 H         1 <1>         0.183600 
     24 H           4.650400   65.344100   65.024700 H         1 <1>         0.145200 
     25 H           3.077700   64.657900   65.449200 H         1 <1>         0.198300 
     26 H           3.573700   69.840000   65.931700 H         1 <1>         0.284800 
     27 H           5.314300   69.545100   65.823400 H         1 <1>         0.262000 
     28 H           2.206200   69.931000   64.044400 H         1 <1>         0.180000 
     29 H           1.955500   69.924800   61.567900 H         1 <1>         0.185000 
     30 H           3.851200   69.184900   60.109400 H         1 <1>         0.185400 
     31 H           6.007200   68.444900   61.145300 H         1 <1>         0.180700 
     32 H           6.268100   68.442500   63.627900 H         1 <1>         0.202300 
     33 C           3.650500   62.752200   67.118800 C.3       1 <1>        -0.026200 
     34 N           3.107600   62.681000   68.372400 N.am      1 <1>        -0.538000 
     35 C           3.435100   61.524900   69.075000 C.2       1 <1>         0.798000 
     36 O           4.412600   60.810700   68.875300 O.2       1 <1>        -0.598000 
     37 C           2.535700   61.121800   70.223900 C.2       1 <1>        -0.325100 
     38 C           3.019500   60.251200   71.221900 C.2       1 <1>        -0.018900 
     39 C           2.193000   59.855500   72.271400 C.2       1 <1>        -0.202100 
     40 C           0.872100   60.318400   72.325800 C.2       1 <1>        -0.042300 
     41 C           0.389900   61.167300   71.326900 C.2       1 <1>        -0.302300 
     42 C           1.210300   61.567200   70.266600 C.2       1 <1>         0.214900 
     43 H           2.890400   63.029800   66.377700 H         1 <1>         0.083100 
     44 H           3.924900   61.731600   66.803600 H         1 <1>         0.127500 
     45 H           4.062700   59.882900   71.179400 H         1 <1>         0.168500 
     46 H           2.574300   59.171700   73.055500 H         1 <1>         0.174300 
     47 H           0.209000   60.000800   73.155100 H         1 <1>         0.157300 
     48 H          -0.661700   61.517300   71.373500 H         1 <1>         0.190700 
     49 H           4.917000   67.435200   65.697600 H         1 <1>         0.407100 
     50 C           0.726200   62.474600   69.147000 C.3       1 <1>        -0.314300 
     51 C           1.874000   63.402500   68.741600 C.3       1 <1>         0.148100 
     52 H           0.384600   61.863700   68.294200 H         1 <1>         0.128400 
     53 H           1.559300   64.051000   67.909800 H         1 <1>         0.067600 
     54 H          -0.130300   63.080800   69.482000 H         1 <1>         0.121700 
     55 H           2.109500   64.064900   69.593500 H         1 <1>         0.028100 
@<TRIPOS>BOND
     1    1    2 1    
     2    1   15 1    
     3    1   16 1    
     4    1   33 1    
     5    2    3 1    
     6    2    7 1    
     7    2   17 1    
     8    3    4 1    
     9    3   18 1    
    10    3   19 1    
    11    4    5 1    
    12    4   20 1    
    13    4   21 1    
    14    5    6 1    
    15    5    8 1    
    16    5   49 1    
    17    6    7 1    
    18    6   22 1    
    19    6   23 1    
    20    7   24 1    
    21    7   25 1    
    22    8    9 1    
    23    8   26 1    
    24    8   27 1    
    25    9   10 1    
    26    9   14 2    
    27   10   11 2    
    28   10   28 1    
    29   11   12 1    
    30   11   29 1    
    31   12   13 2    
    32   12   30 1    
    33   13   14 1    
    34   13   31 1    
    35   14   32 1    
    36   33   34 1    
    37   33   43 1    
    38   33   44 1    
    39   34   35 am   
    40   34   51 1    
    41   35   36 2    
    42   35   37 1    
    43   37   38 2    
    44   37   42 1    
    45   38   39 1    
    46   38   45 1    
    47   39   40 2    
    48   39   46 1    
    49   40   41 1    
    50   40   47 1    
    51   41   42 2    
    52   41   48 1    
    53   42   50 1    
    54   50   51 1    
    55   50   52 1    
    56   50   54 1    
    57   51   53 1    
    58   51   55 1    
@<TRIPOS>SUBSTRUCTURE
     1 ****        1 TEMP              0 ****  ****    0 ROOT 
@<TRIPOS>SET
UNITY_3DHIT     STATIC     ATOMS    <user>   **** Atoms matching 3D or FLEX Search
0
@<TRIPOS>UNITY_ATOM_ATTR
5 1
AtomExpr +1
@<TRIPOS>UNITY_BOND_ATTR
26 1
S N
27 1
S I
31 1
S I
43 1
S N
47 1
S I
51 1
S I
