#	Name:			1-37
#	Creating user name:	jeff
#	Creation time:		Thu Dec 19 21:51:23 2002

#	Modifying user name:	jeff
#	Modification time:	Thu Dec 19 21:51:24 2002

@<TRIPOS>MOLECULE
1-37
   53    56     1     0     1
SMALL
USER_CHARGES
****
From 3DB ct
@<TRIPOS>ATOM
      1 C           4.901200   63.657000   67.124500 C.3       1 <1>        -0.397600 
      2 C           4.385500   65.095300   67.167900 C.3       1 <1>         0.301200 
      3 C           5.277000   66.262800   67.639800 C.3       1 <1>        -0.364200 
      4 C           4.585700   67.625300   67.481800 C.3       1 <1>        -0.058800 
      5 N           4.192500   67.807300   66.080500 N.4       1 <1>         0.161000 
      6 C           3.199600   66.822100   65.639200 C.3       1 <1>        -0.237000 
      7 C           3.822900   65.410200   65.756800 C.3       1 <1>        -0.233700 
      8 C           4.330200   69.150900   65.515100 C.3       1 <1>        -0.650500 
      9 C           4.261200   69.199200   64.002100 C.2       1 <1>         0.243200 
     10 C           3.058300   69.612200   63.410300 C.2       1 <1>        -0.213700 
     11 C           2.913700   69.607300   62.021400 C.2       1 <1>        -0.116200 
     12 C           3.968500   69.192800   61.210100 C.2       1 <1>        -0.096400 
     13 C           5.169800   68.782800   61.785500 C.2       1 <1>        -0.071600 
     14 C           5.316600   68.786600   63.173700 C.2       1 <1>        -0.349300 
     15 H           5.538300   63.391100   67.987300 H         1 <1>         0.142000 
     16 H           5.511800   63.470100   66.224000 H         1 <1>         0.128700 
     17 H           3.531000   65.041100   67.868900 H         1 <1>         0.052300 
     18 H           5.582400   66.119700   68.690600 H         1 <1>         0.165100 
     19 H           6.206800   66.271700   67.039800 H         1 <1>         0.113800 
     20 H           3.714500   67.700400   68.159000 H         1 <1>         0.163900 
     21 H           5.282900   68.421400   67.792300 H         1 <1>         0.146900 
     22 H           2.272700   66.889500   66.238400 H         1 <1>         0.219900 
     23 H           2.902800   66.996500   64.592800 H         1 <1>         0.176700 
     24 H           4.650400   65.344100   65.024700 H         1 <1>         0.084300 
     25 H           3.077700   64.657900   65.449200 H         1 <1>         0.201600 
     26 H           3.573700   69.840000   65.931700 H         1 <1>         0.290300 
     27 H           5.314300   69.545100   65.823400 H         1 <1>         0.254900 
     28 H           2.206200   69.931000   64.044400 H         1 <1>         0.176600 
     29 H           1.955500   69.924800   61.567900 H         1 <1>         0.184000 
     30 H           3.851200   69.184900   60.109400 H         1 <1>         0.183400 
     31 H           6.007200   68.444900   61.145300 H         1 <1>         0.175500 
     32 H           6.268100   68.442500   63.627900 H         1 <1>         0.204400 
     33 C           3.650500   62.752200   67.118800 C.3       1 <1>         0.091300 
     34 N           3.107600   62.681000   68.372400 N.am      1 <1>        -0.720700 
     35 C           3.435100   61.524900   69.075000 C.2       1 <1>         0.906000 
     36 O           4.412600   60.810700   68.875300 O.2       1 <1>        -0.569500 
     37 C           2.527100   61.097200   70.205300 C.2       1 <1>        -0.547200 
     38 C           2.705200   59.818000   70.785700 C.2       1 <1>         0.081600 
     39 C           1.877200   59.382100   71.813900 C.2       1 <1>        -0.272700 
     40 C           0.855100   60.218900   72.282400 C.2       1 <1>         0.065200 
     41 C           0.684700   61.480700   71.716600 C.2       1 <1>        -0.482400 
     42 C           1.516400   61.931800   70.680400 C.2       1 <1>         0.658600 
     43 H           2.890400   63.029800   66.377700 H         1 <1>         0.069900 
     44 H           3.924900   61.731600   66.803600 H         1 <1>         0.124900 
     45 H           3.503100   59.142100   70.420600 H         1 <1>         0.170700 
     46 H           2.020600   58.377200   72.259400 H         1 <1>         0.184400 
     47 H           0.189200   59.876500   73.099800 H         1 <1>         0.156900 
     48 H          -0.124000   62.139600   72.095900 H         1 <1>         0.228800 
     49 H           4.917000   67.435200   65.697600 H         1 <1>         0.404800 
     50 N           1.334800   63.111800   69.907400 N.pl3     1 <1>        -1.049800 
     51 C           1.937700   63.415000   68.673900 C.2       1 <1>         1.159800 
     52 H           0.451100   63.617400   70.021600 H         1 <1>         0.533900 
     53 O           1.389600   64.155500   67.862900 O.2       1 <1>        -0.753000 
@<TRIPOS>BOND
     1    1    2 1    
     2    1   15 1    
     3    1   16 1    
     4    1   33 1    
     5    2    3 1    
     6    2    7 1    
     7    2   17 1    
     8    3    4 1    
     9    3   18 1    
    10    3   19 1    
    11    4    5 1    
    12    4   20 1    
    13    4   21 1    
    14    5    6 1    
    15    5    8 1    
    16    5   49 1    
    17    6    7 1    
    18    6   22 1    
    19    6   23 1    
    20    7   24 1    
    21    7   25 1    
    22    8    9 1    
    23    8   26 1    
    24    8   27 1    
    25    9   10 1    
    26    9   14 2    
    27   10   11 2    
    28   10   28 1    
    29   11   12 1    
    30   11   29 1    
    31   12   13 2    
    32   12   30 1    
    33   13   14 1    
    34   13   31 1    
    35   14   32 1    
    36   33   34 1    
    37   33   43 1    
    38   33   44 1    
    39   34   35 am   
    40   34   51 am   
    41   35   36 2    
    42   35   37 1    
    43   37   38 2    
    44   37   42 1    
    45   38   39 1    
    46   38   45 1    
    47   39   40 2    
    48   39   46 1    
    49   40   41 1    
    50   40   47 1    
    51   41   42 2    
    52   41   48 1    
    53   42   50 1    
    54   50   51 1    
    55   50   52 1    
    56   51   53 2    
@<TRIPOS>SUBSTRUCTURE
     1 ****        1 TEMP              0 ****  ****    0 ROOT 
@<TRIPOS>SET
UNITY_3DHIT     STATIC     ATOMS    <user>   **** Atoms matching 3D or FLEX Search
0
@<TRIPOS>UNITY_ATOM_ATTR
5 1
AtomExpr +1
@<TRIPOS>UNITY_BOND_ATTR
26 1
S N
27 1
S N
31 1
S N
43 1
S I
47 1
S N
51 1
S I
