#	Name:			1-3c
#	Creating user name:	jeff
#	Creation time:		Thu Dec 19 21:50:50 2002

#	Modifying user name:	jeff
#	Modification time:	Thu Dec 19 21:50:51 2002

@<TRIPOS>MOLECULE
1-3c
   61    64     1     0     1
SMALL
USER_CHARGES
****
From 3DB ct
@<TRIPOS>ATOM
      1 C           5.174100   63.766600   67.229800 C.3       1 <1>        -0.399400 
      2 C           4.385500   65.095300   67.167900 C.3       1 <1>         0.348200 
      3 C           5.277000   66.262800   67.639800 C.3       1 <1>        -0.390700 
      4 C           4.585700   67.625300   67.481800 C.3       1 <1>        -0.026800 
      5 N           4.192500   67.807300   66.080500 N.4       1 <1>         0.148800 
      6 C           3.199600   66.822100   65.639200 C.3       1 <1>        -0.258000 
      7 C           3.822900   65.410200   65.756800 C.3       1 <1>        -0.122700 
      8 C           4.330200   69.150900   65.515100 C.3       1 <1>        -0.632500 
      9 C           4.261200   69.199200   64.002100 C.2       1 <1>         0.247600 
     10 C           3.058300   69.612200   63.410300 C.2       1 <1>        -0.232500 
     11 C           2.913700   69.607300   62.021400 C.2       1 <1>        -0.102300 
     12 C           3.968500   69.192800   61.210100 C.2       1 <1>        -0.101500 
     13 C           5.169800   68.782800   61.785500 C.2       1 <1>        -0.068300 
     14 C           5.316600   68.786600   63.173700 C.2       1 <1>        -0.349900 
     15 H           5.667900   63.680200   68.215300 H         1 <1>         0.155200 
     16 H           5.989300   63.796500   66.483700 H         1 <1>         0.112600 
     17 H           3.531000   65.041100   67.868900 H         1 <1>         0.014900 
     18 H           5.582400   66.119700   68.690600 H         1 <1>         0.180900 
     19 H           6.206800   66.271700   67.039800 H         1 <1>         0.110000 
     20 H           3.714500   67.700400   68.159000 H         1 <1>         0.152500 
     21 H           5.282900   68.421400   67.792300 H         1 <1>         0.143500 
     22 H           2.272700   66.889500   66.238400 H         1 <1>         0.207700 
     23 H           2.902800   66.996500   64.592800 H         1 <1>         0.174000 
     24 H           4.650400   65.344100   65.024700 H         1 <1>         0.068700 
     25 H           3.077700   64.657900   65.449200 H         1 <1>         0.124100 
     26 H           3.573700   69.840000   65.931700 H         1 <1>         0.284500 
     27 H           5.314300   69.545100   65.823400 H         1 <1>         0.252100 
     28 H           2.206200   69.931000   64.044400 H         1 <1>         0.180700 
     29 H           1.955500   69.924800   61.567900 H         1 <1>         0.181500 
     30 H           3.851200   69.184900   60.109400 H         1 <1>         0.185100 
     31 H           6.007200   68.444900   61.145300 H         1 <1>         0.176600 
     32 H           6.268100   68.442500   63.627900 H         1 <1>         0.204300 
     33 C           4.364000   62.488600   66.983100 C.3       1 <1>         0.094300 
     34 N           3.331000   62.280800   67.985900 N.pl3     1 <1>        -0.803100 
     35 C           3.506500   61.398700   69.054100 C.2       1 <1>         0.934000 
     36 O           4.500000   60.686800   69.164800 O.2       1 <1>        -0.603200 
     37 C           2.336000   61.261000   69.991000 C.2       1 <1>        -0.378000 
     38 C           1.659000   62.355000   70.551200 C.2       1 <1>         0.008700 
     39 C           0.566300   62.139500   71.383400 C.2       1 <1>        -0.410300 
     40 C           0.086900   60.831900   71.636000 C.2       1 <1>         0.637800 
     41 C           0.721600   59.748900   71.023500 C.2       1 <1>        -0.434000 
     42 C           1.831800   59.974300   70.198700 C.2       1 <1>         0.081000 
     43 H           3.898000   62.510300   65.982400 H         1 <1>         0.059800 
     44 H           5.040000   61.617600   66.979500 H         1 <1>         0.132300 
     45 H           1.978000   63.393000   70.338200 H         1 <1>         0.174100 
     46 H           0.041100   62.994900   71.851300 H         1 <1>         0.237900 
     47 H           0.355900   58.716700   71.176200 H         1 <1>         0.239500 
     48 H           2.329900   59.112800   69.710300 H         1 <1>         0.128300 
     49 H           4.917000   67.435200   65.697600 H         1 <1>         0.402700 
     50 C           2.106800   62.986900   67.688800 C.2       1 <1>         0.509900 
     51 C           1.861400   64.263300   68.257100 C.2       1 <1>        -0.347600 
     52 H           2.590500   64.712100   68.963200 H         1 <1>         0.192800 
     53 C           0.694300   64.978500   67.971300 C.2       1 <1>        -0.126700 
     54 H           0.523100   65.965100   68.446900 H         1 <1>         0.176200 
     55 C          -0.264800   64.442800   67.103500 C.2       1 <1>        -0.183600 
     56 H          -1.198100   64.998400   66.890100 H         1 <1>         0.171300 
     57 C          -0.055400   63.177400   66.549200 C.2       1 <1>        -0.116800 
     58 H          -0.825300   62.730400   65.888000 H         1 <1>         0.169700 
     59 C           1.113900   62.457000   66.836300 C.2       1 <1>        -0.326100 
     60 H           1.214000   61.441700   66.401500 H         1 <1>         0.191300 
     61 F          -0.969100   60.644800   72.452200 F         1 <1>        -0.359100 
@<TRIPOS>BOND
     1    1    2 1    
     2    1   15 1    
     3    1   16 1    
     4    1   33 1    
     5    2    3 1    
     6    2    7 1    
     7    2   17 1    
     8    3    4 1    
     9    3   18 1    
    10    3   19 1    
    11    4    5 1    
    12    4   20 1    
    13    4   21 1    
    14    5    6 1    
    15    5    8 1    
    16    5   49 1    
    17    6    7 1    
    18    6   22 1    
    19    6   23 1    
    20    7   24 1    
    21    7   25 1    
    22    8    9 1    
    23    8   26 1    
    24    8   27 1    
    25    9   10 1    
    26    9   14 2    
    27   10   11 2    
    28   10   28 1    
    29   11   12 1    
    30   11   29 1    
    31   12   13 2    
    32   12   30 1    
    33   13   14 1    
    34   13   31 1    
    35   14   32 1    
    36   33   34 1    
    37   33   43 1    
    38   33   44 1    
    39   34   35 1    
    40   34   50 1    
    41   35   36 2    
    42   35   37 1    
    43   37   38 2    
    44   37   42 1    
    45   38   39 1    
    46   38   45 1    
    47   39   40 2    
    48   39   46 1    
    49   40   41 1    
    50   40   61 1    
    51   41   42 2    
    52   41   47 1    
    53   42   48 1    
    54   50   51 1    
    55   50   59 2    
    56   51   52 1    
    57   51   53 2    
    58   53   54 1    
    59   53   55 1    
    60   55   56 1    
    61   55   57 2    
    62   57   58 1    
    63   57   59 1    
    64   59   60 1    
@<TRIPOS>SUBSTRUCTURE
     1 ****        1 TEMP              0 ****  ****    0 ROOT 
@<TRIPOS>SET
UNITY_3DHIT     STATIC     ATOMS    <user>   **** Atoms matching 3D or FLEX Search
0
@<TRIPOS>UNITY_ATOM_ATTR
5 1
AtomExpr +1
@<TRIPOS>UNITY_BOND_ATTR
26 1
S N
27 1
S I
31 1
S I
43 1
S N
47 1
S I
51 1
S I
55 1
S N
57 1
S N
61 1
S N
