#	Name:			1-3f
#	Creating user name:	jeff
#	Creation time:		Thu Dec 19 21:50:53 2002

#	Modifying user name:	jeff
#	Modification time:	Thu Dec 19 21:50:54 2002

@<TRIPOS>MOLECULE
1-3f
   67    70     1     0     1
SMALL
USER_CHARGES
****
From 3DB ct
@<TRIPOS>ATOM
      1 C           5.174100   63.766600   67.229800 C.3       1 <1>        -0.410800 
      2 C           4.385500   65.095300   67.167900 C.3       1 <1>         0.314600 
      3 C           5.277000   66.262800   67.639800 C.3       1 <1>        -0.407100 
      4 C           4.585700   67.625300   67.481800 C.3       1 <1>        -0.024000 
      5 N           4.192500   67.807300   66.080500 N.4       1 <1>         0.137600 
      6 C           3.199600   66.822100   65.639200 C.3       1 <1>        -0.258000 
      7 C           3.822900   65.410200   65.756800 C.3       1 <1>        -0.100200 
      8 C           4.330200   69.150900   65.515100 C.3       1 <1>        -0.632400 
      9 C           4.261200   69.199200   64.002100 C.2       1 <1>         0.256400 
     10 C           3.058300   69.612200   63.410300 C.2       1 <1>        -0.235900 
     11 C           2.913700   69.607300   62.021400 C.2       1 <1>        -0.108600 
     12 C           3.968500   69.192800   61.210100 C.2       1 <1>        -0.101400 
     13 C           5.169800   68.782800   61.785500 C.2       1 <1>        -0.064200 
     14 C           5.316600   68.786600   63.173700 C.2       1 <1>        -0.358400 
     15 H           5.667900   63.680200   68.215300 H         1 <1>         0.162900 
     16 H           5.989300   63.796500   66.483700 H         1 <1>         0.112900 
     17 H           3.531000   65.041100   67.868900 H         1 <1>         0.043100 
     18 H           5.582400   66.119700   68.690600 H         1 <1>         0.184900 
     19 H           6.206800   66.271700   67.039800 H         1 <1>         0.119600 
     20 H           3.714500   67.700400   68.159000 H         1 <1>         0.153700 
     21 H           5.282900   68.421400   67.792300 H         1 <1>         0.145300 
     22 H           2.272700   66.889500   66.238400 H         1 <1>         0.204900 
     23 H           2.902800   66.996500   64.592800 H         1 <1>         0.175800 
     24 H           4.650400   65.344100   65.024700 H         1 <1>         0.071400 
     25 H           3.077700   64.657900   65.449200 H         1 <1>         0.106900 
     26 H           3.573700   69.840000   65.931700 H         1 <1>         0.285400 
     27 H           5.314300   69.545100   65.823400 H         1 <1>         0.251800 
     28 H           2.206200   69.931000   64.044400 H         1 <1>         0.181300 
     29 H           1.955500   69.924800   61.567900 H         1 <1>         0.184200 
     30 H           3.851200   69.184900   60.109400 H         1 <1>         0.185800 
     31 H           6.007200   68.444900   61.145300 H         1 <1>         0.176000 
     32 H           6.268100   68.442500   63.627900 H         1 <1>         0.208700 
     33 C           4.364000   62.488600   66.983100 C.3       1 <1>         0.144800 
     34 N           3.331000   62.280800   67.985900 N.pl3     1 <1>        -0.854400 
     35 C           3.506500   61.398700   69.054100 C.2       1 <1>         0.847100 
     36 O           4.500000   60.686800   69.164800 O.2       1 <1>        -0.605800 
     37 H           3.898000   62.510300   65.982400 H         1 <1>         0.046400 
     38 H           5.040000   61.617600   66.979500 H         1 <1>         0.126000 
     39 H           4.917000   67.435200   65.697600 H         1 <1>         0.402000 
     40 C           2.051800   62.822700   67.574600 C.2       1 <1>         0.465300 
     41 C           1.428500   63.867200   68.294300 C.2       1 <1>        -0.353900 
     42 H           1.883200   64.256500   69.228200 H         1 <1>         0.178900 
     43 C           0.209600   64.417200   67.877900 C.2       1 <1>        -0.117100 
     44 H          -0.266900   65.218700   68.477400 H         1 <1>         0.171900 
     45 C          -0.415200   63.949500   66.717600 C.2       1 <1>        -0.188300 
     46 H          -1.385600   64.372000   66.392900 H         1 <1>         0.171700 
     47 C           0.180600   62.914600   65.991000 C.2       1 <1>        -0.135000 
     48 H          -0.315700   62.518600   65.081900 H         1 <1>         0.168600 
     49 C           1.398400   62.363100   66.411900 C.2       1 <1>        -0.227900 
     50 H           1.819600   61.523700   65.820600 H         1 <1>         0.173200 
     51 C           2.336000   61.261000   69.991000 C.3       1 <1>        -0.136700 
     52 C           2.806400   60.998800   71.448500 C.3       1 <1>        -0.126500 
     53 C           1.603000   60.803600   72.394500 C.3       1 <1>         0.005400 
     54 C           0.695000   59.656100   71.907600 C.3       1 <1>        -0.144000 
     55 C           0.235000   59.881300   70.453100 C.3       1 <1>        -0.063900 
     56 C           1.435300   60.092700   69.506500 C.3       1 <1>        -0.071900 
     57 H           3.433400   60.089400   71.479200 H         1 <1>         0.089700 
     58 H           1.950700   60.604300   73.423800 H         1 <1>         0.027000 
     59 H          -0.178000   59.542900   72.575000 H         1 <1>         0.044800 
     60 H          -0.418500   60.771700   70.411500 H         1 <1>         0.054000 
     61 H           1.077800   60.271400   68.478600 H         1 <1>        -0.013800 
     62 H           1.721800   62.172400   70.046400 H         1 <1>         0.128300 
     63 H           3.442300   61.831800   71.795200 H         1 <1>         0.022900 
     64 H           1.016500   61.738900   72.439300 H         1 <1>         0.026200 
     65 H           1.253100   58.703400   71.967200 H         1 <1>         0.075300 
     66 H          -0.379100   59.029700   70.110100 H         1 <1>         0.041800 
     67 H           2.040100   59.168200   69.472700 H         1 <1>         0.087200 
@<TRIPOS>BOND
     1    1    2 1    
     2    1   15 1    
     3    1   16 1    
     4    1   33 1    
     5    2    3 1    
     6    2    7 1    
     7    2   17 1    
     8    3    4 1    
     9    3   18 1    
    10    3   19 1    
    11    4    5 1    
    12    4   20 1    
    13    4   21 1    
    14    5    6 1    
    15    5    8 1    
    16    5   39 1    
    17    6    7 1    
    18    6   22 1    
    19    6   23 1    
    20    7   24 1    
    21    7   25 1    
    22    8    9 1    
    23    8   26 1    
    24    8   27 1    
    25    9   10 1    
    26    9   14 2    
    27   10   11 2    
    28   10   28 1    
    29   11   12 1    
    30   11   29 1    
    31   12   13 2    
    32   12   30 1    
    33   13   14 1    
    34   13   31 1    
    35   14   32 1    
    36   33   34 1    
    37   33   37 1    
    38   33   38 1    
    39   34   35 1    
    40   34   40 1    
    41   35   36 2    
    42   35   51 1    
    43   40   41 1    
    44   40   49 2    
    45   41   42 1    
    46   41   43 2    
    47   43   44 1    
    48   43   45 1    
    49   45   46 1    
    50   45   47 2    
    51   47   48 1    
    52   47   49 1    
    53   49   50 1    
    54   51   52 1    
    55   51   56 1    
    56   51   62 1    
    57   52   53 1    
    58   52   57 1    
    59   52   63 1    
    60   53   54 1    
    61   53   58 1    
    62   53   64 1    
    63   54   55 1    
    64   54   59 1    
    65   54   65 1    
    66   55   56 1    
    67   55   60 1    
    68   55   66 1    
    69   56   61 1    
    70   56   67 1    
@<TRIPOS>SUBSTRUCTURE
     1 ****        1 TEMP              0 ****  ****    0 ROOT 
@<TRIPOS>SET
UNITY_3DHIT     STATIC     ATOMS    <user>   **** Atoms matching 3D or FLEX Search
0
@<TRIPOS>UNITY_ATOM_ATTR
5 1
AtomExpr +1
@<TRIPOS>UNITY_BOND_ATTR
26 1
S N
27 1
S I
31 1
S I
44 1
S N
46 1
S N
50 1
S N
