#	Name:			1-3h
#	Creating user name:	jeff
#	Creation time:		Thu Dec 19 21:50:55 2002

#	Modifying user name:	jeff
#	Modification time:	Thu Dec 19 21:50:56 2002

@<TRIPOS>MOLECULE
1-3h
   57    59     1     0     1
SMALL
USER_CHARGES
****
From 3DB ct
@<TRIPOS>ATOM
      1 C           5.174100   63.766600   67.229800 C.3       1 <1>        -0.512300 
      2 C           4.385500   65.095300   67.167900 C.3       1 <1>         0.327500 
      3 C           5.277000   66.262800   67.639800 C.3       1 <1>        -0.383600 
      4 C           4.585700   67.625300   67.481800 C.3       1 <1>        -0.064900 
      5 N           4.192500   67.807300   66.080500 N.4       1 <1>         0.159000 
      6 C           3.199600   66.822100   65.639200 C.3       1 <1>        -0.288900 
      7 C           3.822900   65.410200   65.756800 C.3       1 <1>        -0.106300 
      8 C           4.330200   69.150900   65.515100 C.3       1 <1>        -0.619900 
      9 C           4.261200   69.199200   64.002100 C.2       1 <1>         0.242700 
     10 C           3.058300   69.612200   63.410300 C.2       1 <1>        -0.227600 
     11 C           2.913700   69.607300   62.021400 C.2       1 <1>        -0.114800 
     12 C           3.968500   69.192800   61.210100 C.2       1 <1>        -0.094400 
     13 C           5.169800   68.782800   61.785500 C.2       1 <1>        -0.070600 
     14 C           5.316600   68.786600   63.173700 C.2       1 <1>        -0.347600 
     15 H           5.667900   63.680200   68.215300 H         1 <1>         0.180800 
     16 H           5.989300   63.796500   66.483700 H         1 <1>         0.137500 
     17 H           3.531000   65.041100   67.868900 H         1 <1>         0.047900 
     18 H           5.582400   66.119700   68.690600 H         1 <1>         0.180900 
     19 H           6.206800   66.271700   67.039800 H         1 <1>         0.119200 
     20 H           3.714500   67.700400   68.159000 H         1 <1>         0.161900 
     21 H           5.282900   68.421400   67.792300 H         1 <1>         0.153400 
     22 H           2.272700   66.889500   66.238400 H         1 <1>         0.217500 
     23 H           2.902800   66.996500   64.592800 H         1 <1>         0.179900 
     24 H           4.650400   65.344100   65.024700 H         1 <1>         0.070900 
     25 H           3.077700   64.657900   65.449200 H         1 <1>         0.128700 
     26 H           3.573700   69.840000   65.931700 H         1 <1>         0.281000 
     27 H           5.314300   69.545100   65.823400 H         1 <1>         0.249100 
     28 H           2.206200   69.931000   64.044400 H         1 <1>         0.179700 
     29 H           1.955500   69.924800   61.567900 H         1 <1>         0.184700 
     30 H           3.851200   69.184900   60.109400 H         1 <1>         0.184600 
     31 H           6.007200   68.444900   61.145300 H         1 <1>         0.177400 
     32 H           6.268100   68.442500   63.627900 H         1 <1>         0.204600 
     33 C           4.364000   62.488600   66.983100 C.3       1 <1>         0.211300 
     34 N           3.331000   62.280800   67.985900 N.pl3     1 <1>        -0.864400 
     35 C           3.506500   61.398700   69.054100 C.2       1 <1>         0.874100 
     36 O           4.500000   60.686800   69.164800 O.2       1 <1>        -0.602700 
     37 C           2.405600   61.267500   70.149200 C.3       1 <1>        -0.097000 
     38 H           3.898000   62.510300   65.982400 H         1 <1>         0.035300 
     39 H           5.040000   61.617600   66.979500 H         1 <1>         0.116900 
     40 H           4.917000   67.435200   65.697600 H         1 <1>         0.403000 
     41 C           2.104200   62.981400   67.687000 C.2       1 <1>         0.471800 
     42 C           1.852800   64.256700   68.254300 C.2       1 <1>        -0.396400 
     43 H           2.577500   64.708200   68.963100 H         1 <1>         0.193300 
     44 C           0.684000   64.968000   67.964500 C.2       1 <1>        -0.069900 
     45 H           0.508300   65.954200   68.439300 H         1 <1>         0.165800 
     46 C          -0.270500   64.428900   67.094000 C.2       1 <1>        -0.219600 
     47 H          -1.204900   64.981500   66.877100 H         1 <1>         0.173400 
     48 C          -0.055300   63.163900   66.540900 C.2       1 <1>        -0.054400 
     49 H          -0.821500   62.714100   65.877300 H         1 <1>         0.154500 
     50 C           1.115500   62.447700   66.831800 C.2       1 <1>        -0.360200 
     51 H           1.220600   61.432600   66.397600 H         1 <1>         0.205800 
     52 C           2.611400   60.084600   71.111500 C.3       1 <1>        -0.269200 
     53 H           2.392400   62.197100   70.741400 H         1 <1>         0.074000 
     54 H           1.410600   61.154700   69.687100 H         1 <1>         0.079600 
     55 H           1.790800   60.053500   71.846000 H         1 <1>         0.091800 
     56 H           2.620300   59.127800   70.565700 H         1 <1>         0.084600 
     57 H           3.561200   60.175200   71.661700 H         1 <1>         0.082400 
@<TRIPOS>BOND
     1    1    2 1    
     2    1   15 1    
     3    1   16 1    
     4    1   33 1    
     5    2    3 1    
     6    2    7 1    
     7    2   17 1    
     8    3    4 1    
     9    3   18 1    
    10    3   19 1    
    11    4    5 1    
    12    4   20 1    
    13    4   21 1    
    14    5    6 1    
    15    5    8 1    
    16    5   40 1    
    17    6    7 1    
    18    6   22 1    
    19    6   23 1    
    20    7   24 1    
    21    7   25 1    
    22    8    9 1    
    23    8   26 1    
    24    8   27 1    
    25    9   10 1    
    26    9   14 2    
    27   10   11 2    
    28   10   28 1    
    29   11   12 1    
    30   11   29 1    
    31   12   13 2    
    32   12   30 1    
    33   13   14 1    
    34   13   31 1    
    35   14   32 1    
    36   33   34 1    
    37   33   38 1    
    38   33   39 1    
    39   34   35 1    
    40   34   41 1    
    41   35   36 2    
    42   35   37 1    
    43   37   52 1    
    44   37   53 1    
    45   37   54 1    
    46   41   42 1    
    47   41   50 2    
    48   42   43 1    
    49   42   44 2    
    50   44   45 1    
    51   44   46 1    
    52   46   47 1    
    53   46   48 2    
    54   48   49 1    
    55   48   50 1    
    56   50   51 1    
    57   52   55 1    
    58   52   56 1    
    59   52   57 1    
@<TRIPOS>SUBSTRUCTURE
     1 ****        1 TEMP              0 ****  ****    0 ROOT 
@<TRIPOS>SET
UNITY_3DHIT     STATIC     ATOMS    <user>   **** Atoms matching 3D or FLEX Search
0
@<TRIPOS>UNITY_ATOM_ATTR
5 1
AtomExpr +1
@<TRIPOS>UNITY_BOND_ATTR
26 1
S N
27 1
S I
31 1
S I
47 1
S N
49 1
S N
53 1
S N
