#	Name:			1-3i
#	Creating user name:	jeff
#	Creation time:		Thu Dec 19 21:50:56 2002

#	Modifying user name:	jeff
#	Modification time:	Thu Dec 19 21:50:57 2002

@<TRIPOS>MOLECULE
1-3i
   58    60     1     0     1
SMALL
USER_CHARGES
****
From 3DB ct
@<TRIPOS>ATOM
      1 C           5.158700   63.763400   67.236400 C.3       1 <1>        -0.424000 
      2 C           4.369900   65.092900   67.173700 C.3       1 <1>         0.342500 
      3 C           5.261600   66.260300   67.645600 C.3       1 <1>        -0.374900 
      4 C           4.570100   67.623600   67.486900 C.3       1 <1>        -0.038100 
      5 N           4.177000   67.806200   66.084800 N.4       1 <1>         0.145700 
      6 C           3.184000   66.821100   65.643500 C.3       1 <1>        -0.192100 
      7 C           3.807400   65.408500   65.761700 C.3       1 <1>        -0.248800 
      8 C           4.315000   69.150600   65.518800 C.3       1 <1>        -0.639900 
      9 C           4.246300   69.199400   64.005000 C.2       1 <1>         0.222900 
     10 C           3.043200   69.613100   63.412500 C.2       1 <1>        -0.207000 
     11 C           2.898800   69.608800   62.023000 C.2       1 <1>        -0.126400 
     12 C           3.954200   69.194200   61.211700 C.2       1 <1>        -0.087100 
     13 C           5.155800   68.783400   61.787900 C.2       1 <1>        -0.079300 
     14 C           5.302300   68.786700   63.176800 C.2       1 <1>        -0.336700 
     15 H           5.652400   63.676500   68.222500 H         1 <1>         0.160200 
     16 H           5.974400   63.793300   66.490200 H         1 <1>         0.121000 
     17 H           3.514900   65.038500   67.874900 H         1 <1>         0.017200 
     18 H           5.566700   66.116700   68.697000 H         1 <1>         0.173600 
     19 H           6.191800   66.269200   67.045700 H         1 <1>         0.115900 
     20 H           3.698400   67.698600   68.164200 H         1 <1>         0.164800 
     21 H           5.267400   68.419700   67.797400 H         1 <1>         0.143000 
     22 H           2.256600   66.888500   66.242600 H         1 <1>         0.183500 
     23 H           2.887300   66.996100   64.596500 H         1 <1>         0.167300 
     24 H           4.635400   65.342500   65.029600 H         1 <1>         0.103900 
     25 H           3.062100   64.656200   65.454100 H         1 <1>         0.166700 
     26 H           3.558100   69.839900   65.935000 H         1 <1>         0.291200 
     27 H           5.299300   69.544500   65.827300 H         1 <1>         0.255400 
     28 H           2.190600   69.932000   64.046600 H         1 <1>         0.176900 
     29 H           1.940400   69.926800   61.568900 H         1 <1>         0.186700 
     30 H           3.837200   69.186700   60.110600 H         1 <1>         0.183500 
     31 H           5.993600   68.445500   61.147800 H         1 <1>         0.177500 
     32 H           6.254000   68.442100   63.631500 H         1 <1>         0.207400 
     33 C           4.348400   62.485200   66.989800 C.3       1 <1>         0.135000 
     34 N           3.314800   62.277200   67.992800 N.pl3     1 <1>        -0.756100 
     35 C           3.490100   61.394300   69.061900 C.2       1 <1>         0.898700 
     36 O           4.484000   60.681900   69.173100 O.2       1 <1>        -0.614100 
     37 C           2.398000   61.256700   70.130700 C.3       1 <1>        -0.425800 
     38 H           3.882500   62.507400   65.988600 H         1 <1>         0.057500 
     39 H           5.024700   61.613800   66.986700 H         1 <1>         0.121900 
     40 H           4.901900   67.434000   65.702100 H         1 <1>         0.398800 
     41 C           2.087700   62.978600   67.693200 C.2       1 <1>         0.482100 
     42 C           1.836200   64.254000   68.260600 C.2       1 <1>        -0.529700 
     43 O           0.399200   66.206100   68.484500 O.3       1 <1>        -0.460800 
     44 C           0.667100   64.966000   67.970100 C.2       1 <1>         0.524200 
     45 C          -0.287700   64.427400   67.098900 C.2       1 <1>        -0.453400 
     46 H          -1.222400   64.980500   66.881600 H         1 <1>         0.223600 
     47 C          -0.072600   63.162200   66.545900 C.2       1 <1>         0.078300 
     48 H          -0.839000   62.712700   65.881800 H         1 <1>         0.152300 
     49 C           1.098600   62.445300   66.837400 C.2       1 <1>        -0.489300 
     50 H           1.203800   61.430100   66.403200 H         1 <1>         0.228900 
     51 H           2.610100   60.352900   70.719100 H         1 <1>         0.141800 
     52 H           2.411700   62.119600   70.812600 H         1 <1>         0.113900 
     53 H           1.393400   61.150500   69.694700 H         1 <1>         0.136400 
     54 C           1.133300   66.710900   69.595800 C.3       1 <1>         0.130600 
     55 H           2.186800   66.898900   69.340000 H         1 <1>         0.012600 
     56 H           0.658900   67.662000   69.875400 H         1 <1>         0.090400 
     57 H           1.089500   66.026800   70.457500 H         1 <1>         0.043500 
     58 H           2.468700   64.643700   68.852600 H         1 <1>         0.227700 
@<TRIPOS>BOND
     1    1    2 1    
     2    1   15 1    
     3    1   16 1    
     4    1   33 1    
     5    2    3 1    
     6    2    7 1    
     7    2   17 1    
     8    3    4 1    
     9    3   18 1    
    10    3   19 1    
    11    4    5 1    
    12    4   20 1    
    13    4   21 1    
    14    5    6 1    
    15    5    8 1    
    16    5   40 1    
    17    6    7 1    
    18    6   22 1    
    19    6   23 1    
    20    7   24 1    
    21    7   25 1    
    22    8    9 1    
    23    8   26 1    
    24    8   27 1    
    25    9   10 1    
    26    9   14 2    
    27   10   11 2    
    28   10   28 1    
    29   11   12 1    
    30   11   29 1    
    31   12   13 2    
    32   12   30 1    
    33   13   14 1    
    34   13   31 1    
    35   14   32 1    
    36   33   34 1    
    37   33   38 1    
    38   33   39 1    
    39   34   35 1    
    40   34   41 1    
    41   35   36 2    
    42   35   37 1    
    43   37   51 1    
    44   37   52 1    
    45   37   53 1    
    46   41   42 1    
    47   41   49 2    
    48   42   44 2    
    49   42   58 1    
    50   44   43 1    
    51   43   54 1    
    52   44   45 1    
    53   45   46 1    
    54   45   47 2    
    55   47   48 1    
    56   47   49 1    
    57   49   50 1    
    58   54   55 1    
    59   54   56 1    
    60   54   57 1    
@<TRIPOS>SUBSTRUCTURE
     1 ****        1 TEMP              0 ****  ****    0 ROOT 
@<TRIPOS>SET
UNITY_3DHIT     STATIC     ATOMS    <user>   **** Atoms matching 3D or FLEX Search
0
@<TRIPOS>UNITY_ATOM_ATTR
5 1
AtomExpr +1
@<TRIPOS>UNITY_BOND_ATTR
26 1
S N
27 1
S N
31 1
S N
47 1
S N
48 1
S N
54 1
S N
