#	Name:			1-3j
#	Creating user name:	jeff
#	Creation time:		Thu Dec 19 21:50:57 2002

#	Modifying user name:	jeff
#	Modification time:	Thu Dec 19 21:50:58 2002

@<TRIPOS>MOLECULE
1-3j
   58    60     1     0     1
SMALL
USER_CHARGES
****
From 3DB ct
@<TRIPOS>ATOM
      1 C           5.174100   63.766600   67.229800 C.3       1 <1>        -0.461100 
      2 C           4.385500   65.095300   67.167900 C.3       1 <1>         0.325500 
      3 C           5.277000   66.262800   67.639800 C.3       1 <1>        -0.387500 
      4 C           4.585700   67.625300   67.481800 C.3       1 <1>        -0.028000 
      5 N           4.192500   67.807300   66.080500 N.4       1 <1>         0.162400 
      6 C           3.199600   66.822100   65.639200 C.3       1 <1>        -0.257800 
      7 C           3.822900   65.410200   65.756800 C.3       1 <1>        -0.185000 
      8 C           4.330200   69.150900   65.515100 C.3       1 <1>        -0.657800 
      9 C           4.261200   69.199200   64.002100 C.2       1 <1>         0.248000 
     10 C           3.058300   69.612200   63.410300 C.2       1 <1>        -0.235200 
     11 C           2.913700   69.607300   62.021400 C.2       1 <1>        -0.107600 
     12 C           3.968500   69.192800   61.210100 C.2       1 <1>        -0.098100 
     13 C           5.169800   68.782800   61.785500 C.2       1 <1>        -0.076600 
     14 C           5.316600   68.786600   63.173700 C.2       1 <1>        -0.342900 
     15 H           5.667900   63.680200   68.215300 H         1 <1>         0.173100 
     16 H           5.989300   63.796500   66.483700 H         1 <1>         0.128700 
     17 H           3.531000   65.041100   67.868900 H         1 <1>         0.040300 
     18 H           5.582400   66.119700   68.690600 H         1 <1>         0.177200 
     19 H           6.206800   66.271700   67.039800 H         1 <1>         0.119600 
     20 H           3.714500   67.700400   68.159000 H         1 <1>         0.154800 
     21 H           5.282900   68.421400   67.792300 H         1 <1>         0.141600 
     22 H           2.272700   66.889500   66.238400 H         1 <1>         0.199900 
     23 H           2.902800   66.996500   64.592800 H         1 <1>         0.182000 
     24 H           4.650400   65.344100   65.024700 H         1 <1>         0.092000 
     25 H           3.077700   64.657900   65.449200 H         1 <1>         0.154400 
     26 H           3.573700   69.840000   65.931700 H         1 <1>         0.293700 
     27 H           5.314300   69.545100   65.823400 H         1 <1>         0.257800 
     28 H           2.206200   69.931000   64.044400 H         1 <1>         0.185400 
     29 H           1.955500   69.924800   61.567900 H         1 <1>         0.183700 
     30 H           3.851200   69.184900   60.109400 H         1 <1>         0.185900 
     31 H           6.007200   68.444900   61.145300 H         1 <1>         0.178500 
     32 H           6.268100   68.442500   63.627900 H         1 <1>         0.206300 
     33 C           4.364000   62.488600   66.983100 C.3       1 <1>         0.163900 
     34 N           3.331000   62.280800   67.985900 N.pl3     1 <1>        -0.771600 
     35 C           3.506500   61.398700   69.054100 C.2       1 <1>         0.965800 
     36 O           4.500000   60.686800   69.164800 O.2       1 <1>        -0.629400 
     37 C           2.415100   61.261200   70.122700 C.3       1 <1>        -0.523500 
     38 H           3.898000   62.510300   65.982400 H         1 <1>         0.041600 
     39 H           5.040000   61.617600   66.979500 H         1 <1>         0.118800 
     40 H           4.917000   67.435200   65.697600 H         1 <1>         0.399600 
     41 C           2.104200   62.981400   67.687000 C.2       1 <1>         0.206200 
     42 C           1.852800   64.256700   68.254300 C.2       1 <1>        -0.220700 
     43 H           2.577500   64.708200   68.963100 H         1 <1>         0.191300 
     44 C           0.684000   64.968000   67.964500 C.2       1 <1>        -0.323900 
     45 H           0.508300   65.954200   68.439300 H         1 <1>         0.190900 
     46 C          -0.270500   64.428900   67.094000 C.2       1 <1>         0.479800 
     47 C          -0.055300   63.163900   66.540900 C.2       1 <1>        -0.402300 
     48 H          -0.821500   62.714100   65.877300 H         1 <1>         0.225400 
     49 C           1.115500   62.447700   66.831800 C.2       1 <1>        -0.120400 
     50 H           1.220600   61.432600   66.397600 H         1 <1>         0.185300 
     51 H           2.627200   60.358000   70.710400 H         1 <1>         0.157800 
     52 H           2.428900   62.124000   70.804600 H         1 <1>         0.151600 
     53 H           1.410600   61.154700   69.687100 H         1 <1>         0.163600 
     54 C          -1.864300   66.229000   67.434000 C.3       1 <1>         0.058300 
     55 O          -1.430300   65.063400   66.742000 O.3       1 <1>        -0.448500 
     56 H          -1.177600   67.075000   67.281200 H         1 <1>         0.035700 
     57 H          -2.847300   66.488600   67.017400 H         1 <1>         0.109600 
     58 H          -1.974500   66.044400   68.513700 H         1 <1>         0.063800 
@<TRIPOS>BOND
     1    1    2 1    
     2    1   15 1    
     3    1   16 1    
     4    1   33 1    
     5    2    3 1    
     6    2    7 1    
     7    2   17 1    
     8    3    4 1    
     9    3   18 1    
    10    3   19 1    
    11    4    5 1    
    12    4   20 1    
    13    4   21 1    
    14    5    6 1    
    15    5    8 1    
    16    5   40 1    
    17    6    7 1    
    18    6   22 1    
    19    6   23 1    
    20    7   24 1    
    21    7   25 1    
    22    8    9 1    
    23    8   26 1    
    24    8   27 1    
    25    9   10 1    
    26    9   14 2    
    27   10   11 2    
    28   10   28 1    
    29   11   12 1    
    30   11   29 1    
    31   12   13 2    
    32   12   30 1    
    33   13   14 1    
    34   13   31 1    
    35   14   32 1    
    36   33   34 1    
    37   33   38 1    
    38   33   39 1    
    39   34   35 1    
    40   34   41 1    
    41   35   36 2    
    42   35   37 1    
    43   37   51 1    
    44   37   52 1    
    45   37   53 1    
    46   41   42 1    
    47   41   49 2    
    48   42   43 1    
    49   42   44 2    
    50   44   45 1    
    51   44   46 1    
    52   46   47 2    
    53   46   55 1    
    54   47   48 1    
    55   47   49 1    
    56   49   50 1    
    57   55   54 1    
    58   54   56 1    
    59   54   57 1    
    60   54   58 1    
@<TRIPOS>SUBSTRUCTURE
     1 ****        1 TEMP              0 ****  ****    0 ROOT 
@<TRIPOS>SET
UNITY_3DHIT     STATIC     ATOMS    <user>   **** Atoms matching 3D or FLEX Search
0
@<TRIPOS>UNITY_ATOM_ATTR
5 1
AtomExpr +1
@<TRIPOS>UNITY_BOND_ATTR
26 1
S N
27 1
S N
31 1
S N
47 1
S N
49 1
S N
52 1
S N
