#	Name:			1-3m
#	Creating user name:	jeff
#	Creation time:		Thu Dec 19 21:51:00 2002

#	Modifying user name:	jeff
#	Modification time:	Thu Dec 19 21:51:01 2002

@<TRIPOS>MOLECULE
1-3m
   55    57     1     0     1
SMALL
USER_CHARGES
****
From 3DB ct
@<TRIPOS>ATOM
      1 C           5.174100   63.766600   67.229800 C.3       1 <1>        -0.447300 
      2 C           4.385500   65.095300   67.167900 C.3       1 <1>         0.241200 
      3 C           5.277000   66.262800   67.639800 C.3       1 <1>        -0.358700 
      4 C           4.585700   67.625300   67.481800 C.3       1 <1>        -0.021200 
      5 N           4.192500   67.807300   66.080500 N.4       1 <1>         0.124000 
      6 C           3.199600   66.822100   65.639200 C.3       1 <1>        -0.255500 
      7 C           3.822900   65.410200   65.756800 C.3       1 <1>        -0.145300 
      8 C           4.330200   69.150900   65.515100 C.3       1 <1>        -0.636400 
      9 C           4.261200   69.199200   64.002100 C.2       1 <1>         0.208000 
     10 C           3.058300   69.612200   63.410300 C.2       1 <1>        -0.195700 
     11 C           2.913700   69.607300   62.021400 C.2       1 <1>        -0.139000 
     12 C           3.968500   69.192800   61.210100 C.2       1 <1>        -0.071000 
     13 C           5.169800   68.782800   61.785500 C.2       1 <1>        -0.086700 
     14 C           5.316600   68.786600   63.173700 C.2       1 <1>        -0.319200 
     15 H           5.667900   63.680200   68.215300 H         1 <1>         0.155500 
     16 H           5.989300   63.796500   66.483700 H         1 <1>         0.104900 
     17 H           3.531000   65.041100   67.868900 H         1 <1>         0.040000 
     18 H           5.582400   66.119700   68.690600 H         1 <1>         0.167800 
     19 H           6.206800   66.271700   67.039800 H         1 <1>         0.118000 
     20 H           3.714500   67.700400   68.159000 H         1 <1>         0.165200 
     21 H           5.282900   68.421400   67.792300 H         1 <1>         0.135400 
     22 H           2.272700   66.889500   66.238400 H         1 <1>         0.209300 
     23 H           2.902800   66.996500   64.592800 H         1 <1>         0.175100 
     24 H           4.650400   65.344100   65.024700 H         1 <1>         0.089900 
     25 H           3.077700   64.657900   65.449200 H         1 <1>         0.140100 
     26 H           3.573700   69.840000   65.931700 H         1 <1>         0.291400 
     27 H           5.314300   69.545100   65.823400 H         1 <1>         0.256200 
     28 H           2.206200   69.931000   64.044400 H         1 <1>         0.174800 
     29 H           1.955500   69.924800   61.567900 H         1 <1>         0.188000 
     30 H           3.851200   69.184900   60.109400 H         1 <1>         0.178300 
     31 H           6.007200   68.444900   61.145300 H         1 <1>         0.176100 
     32 H           6.268100   68.442500   63.627900 H         1 <1>         0.204300 
     33 C           4.364000   62.488600   66.983100 C.3       1 <1>         0.388700 
     34 N           3.331000   62.280800   67.985900 N.pl3     1 <1>        -0.779000 
     35 C           3.468800   61.245600   69.005400 C.3       1 <1>         0.251100 
     36 C           2.415100   61.261200   70.122700 C.3       1 <1>        -0.163700 
     37 H           3.898000   62.510300   65.982400 H         1 <1>        -0.048100 
     38 H           5.040000   61.617600   66.979500 H         1 <1>         0.024300 
     39 H           4.917000   67.435200   65.697600 H         1 <1>         0.405200 
     40 C           2.104200   62.981400   67.687000 C.2       1 <1>         0.473200 
     41 C           1.779800   64.179600   68.373000 C.2       1 <1>        -0.234200 
     42 H           2.445600   64.566400   69.172100 H         1 <1>         0.157700 
     43 C           0.610000   64.891200   68.088000 C.2       1 <1>        -0.196500 
     44 H           0.375700   65.814200   68.655500 H         1 <1>         0.170300 
     45 C          -0.272400   64.429900   67.104100 C.2       1 <1>        -0.144200 
     46 H          -1.208100   64.981200   66.889200 H         1 <1>         0.162100 
     47 C           0.014600   63.239500   66.431000 C.2       1 <1>        -0.162400 
     48 H          -0.695400   62.848400   65.674200 H         1 <1>         0.173700 
     49 C           1.186600   62.523000   66.716700 C.2       1 <1>        -0.286700 
     50 H           1.348900   61.565200   66.181800 H         1 <1>         0.175000 
     51 H           2.627200   60.358000   70.710400 H         1 <1>         0.054600 
     52 H           2.428900   62.124000   70.804600 H         1 <1>         0.044300 
     53 H           1.410600   61.154700   69.687100 H         1 <1>         0.045400 
     54 H           3.426900   60.242200   68.531700 H         1 <1>        -0.003800 
     55 H           4.477200   61.333400   69.450300 H         1 <1>         0.047600 
@<TRIPOS>BOND
     1    1    2 1    
     2    1   15 1    
     3    1   16 1    
     4    1   33 1    
     5    2    3 1    
     6    2    7 1    
     7    2   17 1    
     8    3    4 1    
     9    3   18 1    
    10    3   19 1    
    11    4    5 1    
    12    4   20 1    
    13    4   21 1    
    14    5    6 1    
    15    5    8 1    
    16    5   39 1    
    17    6    7 1    
    18    6   22 1    
    19    6   23 1    
    20    7   24 1    
    21    7   25 1    
    22    8    9 1    
    23    8   26 1    
    24    8   27 1    
    25    9   10 1    
    26    9   14 2    
    27   10   11 2    
    28   10   28 1    
    29   11   12 1    
    30   11   29 1    
    31   12   13 2    
    32   12   30 1    
    33   13   14 1    
    34   13   31 1    
    35   14   32 1    
    36   33   34 1    
    37   33   37 1    
    38   33   38 1    
    39   34   35 1    
    40   34   40 1    
    41   35   36 1    
    42   35   54 1    
    43   35   55 1    
    44   36   51 1    
    45   36   52 1    
    46   36   53 1    
    47   40   41 1    
    48   40   49 2    
    49   41   42 1    
    50   41   43 2    
    51   43   44 1    
    52   43   45 1    
    53   45   46 1    
    54   45   47 2    
    55   47   48 1    
    56   47   49 1    
    57   49   50 1    
@<TRIPOS>SUBSTRUCTURE
     1 ****        1 TEMP              0 ****  ****    0 ROOT 
@<TRIPOS>SET
UNITY_3DHIT     STATIC     ATOMS    <user>   **** Atoms matching 3D or FLEX Search
0
@<TRIPOS>UNITY_ATOM_ATTR
5 1
AtomExpr +1
@<TRIPOS>UNITY_BOND_ATTR
26 1
S N
27 1
S I
31 1
S I
48 1
S N
50 1
S N
54 1
S N
