#	Name:			1-3n
#	Creating user name:	jeff
#	Creation time:		Thu Dec 19 21:51:01 2002

#	Modifying user name:	jeff
#	Modification time:	Thu Dec 19 21:51:02 2002

@<TRIPOS>MOLECULE
1-3n
   53    55     1     0     1
SMALL
USER_CHARGES
****
From 3DB ct
@<TRIPOS>ATOM
      1 C           5.174100   63.766600   67.229800 C.3       1 <1>        -0.450800 
      2 C           4.385500   65.095300   67.167900 C.3       1 <1>         0.336300 
      3 C           5.277000   66.262800   67.639800 C.3       1 <1>        -0.390800 
      4 C           4.585700   67.625300   67.481800 C.3       1 <1>        -0.024000 
      5 N           4.192500   67.807300   66.080500 N.4       1 <1>         0.129200 
      6 C           3.199600   66.822100   65.639200 C.3       1 <1>        -0.296800 
      7 C           3.822900   65.410200   65.756800 C.3       1 <1>        -0.136000 
      8 C           4.330200   69.150900   65.515100 C.3       1 <1>        -0.621600 
      9 C           4.261200   69.199200   64.002100 C.2       1 <1>         0.246900 
     10 C           3.058300   69.612200   63.410300 C.2       1 <1>        -0.233000 
     11 C           2.913700   69.607300   62.021400 C.2       1 <1>        -0.111300 
     12 C           3.968500   69.192800   61.210100 C.2       1 <1>        -0.094900 
     13 C           5.169800   68.782800   61.785500 C.2       1 <1>        -0.069800 
     14 C           5.316600   68.786600   63.173700 C.2       1 <1>        -0.350900 
     15 H           5.667900   63.680200   68.215300 H         1 <1>         0.169400 
     16 H           5.989300   63.796500   66.483700 H         1 <1>         0.125600 
     17 H           3.531000   65.041100   67.868900 H         1 <1>         0.022700 
     18 H           5.582400   66.119700   68.690600 H         1 <1>         0.179200 
     19 H           6.206800   66.271700   67.039800 H         1 <1>         0.117200 
     20 H           3.714500   67.700400   68.159000 H         1 <1>         0.152800 
     21 H           5.282900   68.421400   67.792300 H         1 <1>         0.146300 
     22 H           2.272700   66.889500   66.238400 H         1 <1>         0.226100 
     23 H           2.902800   66.996500   64.592800 H         1 <1>         0.190800 
     24 H           4.650400   65.344100   65.024700 H         1 <1>         0.082800 
     25 H           3.077700   64.657900   65.449200 H         1 <1>         0.130500 
     26 H           3.573700   69.840000   65.931700 H         1 <1>         0.284500 
     27 H           5.314300   69.545100   65.823400 H         1 <1>         0.250800 
     28 H           2.206200   69.931000   64.044400 H         1 <1>         0.183900 
     29 H           1.955500   69.924800   61.567900 H         1 <1>         0.185400 
     30 H           3.851200   69.184900   60.109400 H         1 <1>         0.185000 
     31 H           6.007200   68.444900   61.145300 H         1 <1>         0.176800 
     32 H           6.268100   68.442500   63.627900 H         1 <1>         0.204800 
     33 C           4.364000   62.488600   66.983100 C.3       1 <1>         0.159200 
     34 N           3.331000   62.280800   67.985900 N.pl3     1 <1>        -0.880700 
     35 C           3.506500   61.398700   69.054100 C.2       1 <1>         0.942600 
     36 O           4.500000   60.686800   69.164800 O.2       1 <1>        -0.609500 
     37 C           2.415100   61.261200   70.122700 C.3       1 <1>        -0.508500 
     38 H           3.898000   62.510300   65.982400 H         1 <1>         0.046700 
     39 H           5.040000   61.617600   66.979500 H         1 <1>         0.127400 
     40 H           4.917000   67.435200   65.697600 H         1 <1>         0.411000 
     41 C           2.104200   62.981400   67.687000 C.2       1 <1>         0.914000 
     42 C           1.142400   62.401300   66.821000 C.2       1 <1>        -0.864700 
     43 H           1.342200   61.423800   66.335100 H         1 <1>         0.296100 
     44 C          -0.064300   63.046600   66.532000 C.2       1 <1>         0.544500 
     45 H          -0.787000   62.575400   65.835900 H         1 <1>         0.102700 
     46 N          -0.350900   64.292100   67.103100 N.2       1 <1>        -0.751800 
     47 C           0.591400   64.893800   67.941200 C.2       1 <1>         0.493400 
     48 H           0.387800   65.895600   68.370900 H         1 <1>         0.111900 
     49 C           1.803400   64.249200   68.231000 C.2       1 <1>        -0.776600 
     50 H           2.532900   64.785900   68.871100 H         1 <1>         0.252700 
     51 H           2.627200   60.358000   70.710400 H         1 <1>         0.161100 
     52 H           2.428900   62.124000   70.804600 H         1 <1>         0.154500 
     53 H           1.410600   61.154700   69.687100 H         1 <1>         0.149100 
@<TRIPOS>BOND
     1    1    2 1    
     2    1   15 1    
     3    1   16 1    
     4    1   33 1    
     5    2    3 1    
     6    2    7 1    
     7    2   17 1    
     8    3    4 1    
     9    3   18 1    
    10    3   19 1    
    11    4    5 1    
    12    4   20 1    
    13    4   21 1    
    14    5    6 1    
    15    5    8 1    
    16    5   40 1    
    17    6    7 1    
    18    6   22 1    
    19    6   23 1    
    20    7   24 1    
    21    7   25 1    
    22    8    9 1    
    23    8   26 1    
    24    8   27 1    
    25    9   10 1    
    26    9   14 2    
    27   10   11 2    
    28   10   28 1    
    29   11   12 1    
    30   11   29 1    
    31   12   13 2    
    32   12   30 1    
    33   13   14 1    
    34   13   31 1    
    35   14   32 1    
    36   33   34 1    
    37   33   38 1    
    38   33   39 1    
    39   34   35 1    
    40   34   41 1    
    41   35   36 2    
    42   35   37 1    
    43   37   51 1    
    44   37   52 1    
    45   37   53 1    
    46   41   42 1    
    47   41   49 2    
    48   42   43 1    
    49   42   44 2    
    50   44   45 1    
    51   44   46 1    
    52   46   47 2    
    53   47   48 1    
    54   47   49 1    
    55   49   50 1    
@<TRIPOS>SUBSTRUCTURE
     1 ****        1 TEMP              0 ****  ****    0 ROOT 
@<TRIPOS>SET
UNITY_3DHIT     STATIC     ATOMS    <user>   **** Atoms matching 3D or FLEX Search
0
@<TRIPOS>UNITY_ATOM_ATTR
5 1
AtomExpr +1
@<TRIPOS>UNITY_BOND_ATTR
26 1
S N
27 1
S N
31 1
S N
47 1
S N
49 1
S N
52 1
S N
