#	Name:			1-3o
#	Creating user name:	jeff
#	Creation time:		Thu Dec 19 21:51:02 2002

#	Modifying user name:	jeff
#	Modification time:	Thu Dec 19 21:51:02 2002

@<TRIPOS>MOLECULE
1-3o
   47    48     1     0     1
SMALL
USER_CHARGES
****
From 3DB ct
@<TRIPOS>ATOM
      1 C           5.174100   63.766600   67.229800 C.3       1 <1>        -0.413500 
      2 C           4.385500   65.095300   67.167900 C.3       1 <1>         0.207100 
      3 C           5.277000   66.262800   67.639800 C.3       1 <1>        -0.371300 
      4 C           4.585700   67.625300   67.481800 C.3       1 <1>        -0.062600 
      5 N           4.192500   67.807300   66.080500 N.4       1 <1>         0.189200 
      6 C           3.199600   66.822100   65.639200 C.3       1 <1>        -0.277900 
      7 C           3.822900   65.410200   65.756800 C.3       1 <1>        -0.199800 
      8 C           4.330200   69.150900   65.515100 C.3       1 <1>        -0.655100 
      9 C           4.261200   69.199200   64.002100 C.2       1 <1>         0.247700 
     10 C           3.058300   69.612200   63.410300 C.2       1 <1>        -0.237600 
     11 C           2.913700   69.607300   62.021400 C.2       1 <1>        -0.100600 
     12 C           3.968500   69.192800   61.210100 C.2       1 <1>        -0.103500 
     13 C           5.169800   68.782800   61.785500 C.2       1 <1>        -0.081300 
     14 C           5.316600   68.786600   63.173700 C.2       1 <1>        -0.329400 
     15 H           5.667900   63.680200   68.215300 H         1 <1>         0.165800 
     16 H           5.989300   63.796500   66.483700 H         1 <1>         0.139700 
     17 H           3.531000   65.041100   67.868900 H         1 <1>         0.079800 
     18 H           5.582400   66.119700   68.690600 H         1 <1>         0.186800 
     19 H           6.206800   66.271700   67.039800 H         1 <1>         0.120500 
     20 H           3.714500   67.700400   68.159000 H         1 <1>         0.167500 
     21 H           5.282900   68.421400   67.792300 H         1 <1>         0.149900 
     22 H           2.272700   66.889500   66.238400 H         1 <1>         0.216500 
     23 H           2.902800   66.996500   64.592800 H         1 <1>         0.185200 
     24 H           4.650400   65.344100   65.024700 H         1 <1>         0.100600 
     25 H           3.077700   64.657900   65.449200 H         1 <1>         0.163300 
     26 H           3.573700   69.840000   65.931700 H         1 <1>         0.288600 
     27 H           5.314300   69.545100   65.823400 H         1 <1>         0.258200 
     28 H           2.206200   69.931000   64.044400 H         1 <1>         0.183400 
     29 H           1.955500   69.924800   61.567900 H         1 <1>         0.181700 
     30 H           3.851200   69.184900   60.109400 H         1 <1>         0.187700 
     31 H           6.007200   68.444900   61.145300 H         1 <1>         0.180700 
     32 H           6.268100   68.442500   63.627900 H         1 <1>         0.194700 
     33 C           4.364000   62.488600   66.983100 C.3       1 <1>         0.024000 
     34 N           3.331000   62.280800   67.985900 N.am      1 <1>        -0.544900 
     35 C           3.506500   61.398700   69.054100 C.2       1 <1>         0.824100 
     36 O           4.500000   60.686800   69.164800 O.2       1 <1>        -0.613000 
     37 C           2.415100   61.261200   70.122700 C.3       1 <1>        -0.449900 
     38 H           3.898000   62.510300   65.982400 H         1 <1>         0.079500 
     39 H           5.040000   61.617600   66.979500 H         1 <1>         0.119800 
     40 H           4.917000   67.435200   65.697600 H         1 <1>         0.407100 
     41 C           1.974300   62.797000   67.769900 C.3       1 <1>        -0.070200 
     42 H           2.627200   60.358000   70.710400 H         1 <1>         0.147400 
     43 H           2.428900   62.124000   70.804600 H         1 <1>         0.132800 
     44 H           1.410600   61.154700   69.687100 H         1 <1>         0.143600 
     45 H           1.633700   63.366400   68.646700 H         1 <1>         0.105400 
     46 H           1.948100   63.461900   66.898500 H         1 <1>         0.063600 
     47 H           1.266500   61.975100   67.577200 H         1 <1>         0.090500 
@<TRIPOS>BOND
     1    1    2 1    
     2    1   15 1    
     3    1   16 1    
     4    1   33 1    
     5    2    3 1    
     6    2    7 1    
     7    2   17 1    
     8    3    4 1    
     9    3   18 1    
    10    3   19 1    
    11    4    5 1    
    12    4   20 1    
    13    4   21 1    
    14    5    6 1    
    15    5    8 1    
    16    5   40 1    
    17    6    7 1    
    18    6   22 1    
    19    6   23 1    
    20    7   24 1    
    21    7   25 1    
    22    8    9 1    
    23    8   26 1    
    24    8   27 1    
    25    9   10 1    
    26    9   14 2    
    27   10   11 2    
    28   10   28 1    
    29   11   12 1    
    30   11   29 1    
    31   12   13 2    
    32   12   30 1    
    33   13   14 1    
    34   13   31 1    
    35   14   32 1    
    36   33   34 1    
    37   33   38 1    
    38   33   39 1    
    39   34   35 am   
    40   34   41 1    
    41   35   36 2    
    42   35   37 1    
    43   37   42 1    
    44   37   43 1    
    45   37   44 1    
    46   41   45 1    
    47   41   46 1    
    48   41   47 1    
@<TRIPOS>SUBSTRUCTURE
     1 ****        1 TEMP              0 ****  ****    0 ROOT 
@<TRIPOS>SET
UNITY_3DHIT     STATIC     ATOMS    <user>   **** Atoms matching 3D or FLEX Search
0
@<TRIPOS>UNITY_ATOM_ATTR
5 1
AtomExpr +1
@<TRIPOS>UNITY_BOND_ATTR
26 1
S N
27 1
S I
31 1
S I
