#	Name:			1-40
#	Creating user name:	jeff
#	Creation time:		Thu Dec 19 21:51:25 2002

#	Modifying user name:	jeff
#	Modification time:	Thu Dec 19 21:51:26 2002

@<TRIPOS>MOLECULE
1-40
   51    53     1     0     1
SMALL
USER_CHARGES
****
From 3DB ct
@<TRIPOS>ATOM
      1 C           4.901200   63.657000   67.124500 C.3       1 <1>        -0.309600 
      2 C           4.385500   65.095300   67.167900 C.3       1 <1>         0.229200 
      3 C           5.277000   66.262800   67.639800 C.3       1 <1>        -0.457500 
      4 C           4.585700   67.625300   67.481800 C.3       1 <1>        -0.015600 
      5 N           4.192500   67.807300   66.080500 N.4       1 <1>         0.144900 
      6 C           3.199600   66.822100   65.639200 C.3       1 <1>        -0.242900 
      7 C           3.822900   65.410200   65.756800 C.3       1 <1>        -0.289200 
      8 C           4.330200   69.150900   65.515100 C.3       1 <1>        -0.666900 
      9 C           4.261200   69.199200   64.002100 C.2       1 <1>         0.243600 
     10 C           3.058300   69.612200   63.410300 C.2       1 <1>        -0.206100 
     11 C           2.913700   69.607300   62.021400 C.2       1 <1>        -0.129000 
     12 C           3.968500   69.192800   61.210100 C.2       1 <1>        -0.081700 
     13 C           5.169800   68.782800   61.785500 C.2       1 <1>        -0.080600 
     14 C           5.316600   68.786600   63.173700 C.2       1 <1>        -0.341600 
     15 H           5.538300   63.391100   67.987300 H         1 <1>         0.144800 
     16 H           5.511800   63.470100   66.224000 H         1 <1>         0.109400 
     17 H           3.531000   65.041100   67.868900 H         1 <1>         0.117300 
     18 H           5.582400   66.119700   68.690600 H         1 <1>         0.200200 
     19 H           6.206800   66.271700   67.039800 H         1 <1>         0.141000 
     20 H           3.714500   67.700400   68.159000 H         1 <1>         0.159500 
     21 H           5.282900   68.421400   67.792300 H         1 <1>         0.148900 
     22 H           2.272700   66.889500   66.238400 H         1 <1>         0.215900 
     23 H           2.902800   66.996500   64.592800 H         1 <1>         0.181500 
     24 H           4.650400   65.344100   65.024700 H         1 <1>         0.121000 
     25 H           3.077700   64.657900   65.449200 H         1 <1>         0.189700 
     26 H           3.573700   69.840000   65.931700 H         1 <1>         0.295100 
     27 H           5.314300   69.545100   65.823400 H         1 <1>         0.261500 
     28 H           2.206200   69.931000   64.044400 H         1 <1>         0.174700 
     29 H           1.955500   69.924800   61.567900 H         1 <1>         0.186600 
     30 H           3.851200   69.184900   60.109400 H         1 <1>         0.181900 
     31 H           6.007200   68.444900   61.145300 H         1 <1>         0.178800 
     32 H           6.268100   68.442500   63.627900 H         1 <1>         0.202600 
     33 C           3.650500   62.752200   67.118800 C.3       1 <1>         0.016100 
     34 N           3.107600   62.681000   68.372400 N.am      1 <1>        -0.610700 
     35 C           3.435100   61.524900   69.075000 C.2       1 <1>         0.764300 
     36 O           4.412600   60.810700   68.875300 O.2       1 <1>        -0.598300 
     37 C           2.492300   61.171900   70.264800 C.3       1 <1>        -0.289700 
     38 C           2.186900   62.440400   71.077900 C.3       1 <1>         0.144000 
     39 H           2.890400   63.029800   66.377700 H         1 <1>         0.063200 
     40 H           3.924900   61.731600   66.803600 H         1 <1>         0.123200 
     41 H           4.917000   67.435200   65.697600 H         1 <1>         0.419200 
     42 C           1.606900   63.558900   70.169300 C.3       1 <1>        -0.199100 
     43 C           1.770500   63.227600   68.672200 C.3       1 <1>         0.162100 
     44 H           1.570700   60.714500   69.866200 H         1 <1>         0.121200 
     45 H           3.000200   60.413600   70.877700 H         1 <1>         0.097800 
     46 H           1.587000   64.127900   68.063300 H         1 <1>         0.031100 
     47 H           0.987700   62.504500   68.370600 H         1 <1>         0.056900 
     48 H           1.502400   62.193000   71.906200 H         1 <1>         0.012600 
     49 H           3.128400   62.783100   71.540500 H         1 <1>         0.001400 
     50 H           0.530800   63.703500   70.365700 H         1 <1>         0.083000 
     51 H           2.092200   64.519700   70.404300 H         1 <1>         0.016100 
@<TRIPOS>BOND
     1    1    2 1    
     2    1   15 1    
     3    1   16 1    
     4    1   33 1    
     5    2    3 1    
     6    2    7 1    
     7    2   17 1    
     8    3    4 1    
     9    3   18 1    
    10    3   19 1    
    11    4    5 1    
    12    4   20 1    
    13    4   21 1    
    14    5    6 1    
    15    5    8 1    
    16    5   41 1    
    17    6    7 1    
    18    6   22 1    
    19    6   23 1    
    20    7   24 1    
    21    7   25 1    
    22    8    9 1    
    23    8   26 1    
    24    8   27 1    
    25    9   10 1    
    26    9   14 2    
    27   10   11 2    
    28   10   28 1    
    29   11   12 1    
    30   11   29 1    
    31   12   13 2    
    32   12   30 1    
    33   13   14 1    
    34   13   31 1    
    35   14   32 1    
    36   33   34 1    
    37   33   39 1    
    38   33   40 1    
    39   34   35 am   
    40   34   43 1    
    41   35   36 2    
    42   35   37 1    
    43   37   38 1    
    44   37   44 1    
    45   37   45 1    
    46   38   42 1    
    47   38   48 1    
    48   38   49 1    
    49   42   43 1    
    50   42   50 1    
    51   42   51 1    
    52   43   46 1    
    53   43   47 1    
@<TRIPOS>SUBSTRUCTURE
     1 ****        1 TEMP              0 ****  ****    0 ROOT 
@<TRIPOS>SET
UNITY_3DHIT     STATIC     ATOMS    <user>   **** Atoms matching 3D or FLEX Search
0
@<TRIPOS>UNITY_ATOM_ATTR
5 1
AtomExpr +1
@<TRIPOS>UNITY_BOND_ATTR
26 1
S N
27 1
S I
31 1
S I
