#	Name:			2-12
#	Creating user name:	jeff
#	Creation time:		Thu Dec 19 21:50:40 2002

#	Modifying user name:	jeff
#	Modification time:	Thu Dec 19 21:50:41 2002

@<TRIPOS>MOLECULE
2-12
   52    54     1     0     1
SMALL
USER_CHARGES
****
From 3DB ct
@<TRIPOS>ATOM
      1 C           5.174100   63.766600   67.229800 C.3       1 <1>        -0.450900 
      2 C           4.385500   65.095300   67.167900 C.3       1 <1>         0.334500 
      3 C           5.277000   66.262800   67.639800 C.3       1 <1>        -0.383400 
      4 C           4.585700   67.625300   67.481800 C.3       1 <1>        -0.038000 
      5 N           4.192500   67.807300   66.080500 N.4       1 <1>         0.111400 
      6 C           3.199600   66.822100   65.639200 C.3       1 <1>        -0.275400 
      7 C           3.822900   65.410200   65.756800 C.3       1 <1>        -0.371800 
      8 C           4.330200   69.150900   65.515100 C.3       1 <1>        -0.607000 
      9 C           4.261200   69.199200   64.002100 C.2       1 <1>         0.213500 
     10 C           3.058300   69.612200   63.410300 C.2       1 <1>        -0.216400 
     11 C           2.913700   69.607300   62.021400 C.2       1 <1>        -0.123200 
     12 C           3.968500   69.192800   61.210100 C.2       1 <1>        -0.087200 
     13 C           5.169800   68.782800   61.785500 C.2       1 <1>        -0.073100 
     14 C           5.316600   68.786600   63.173700 C.2       1 <1>        -0.327400 
     15 H           5.667900   63.680200   68.215300 H         1 <1>         0.150100 
     16 H           5.989300   63.796500   66.483700 H         1 <1>         0.116900 
     17 H           3.531000   65.041100   67.868900 H         1 <1>         0.118400 
     18 H           5.582400   66.119700   68.690600 H         1 <1>         0.169200 
     19 H           6.206800   66.271700   67.039800 H         1 <1>         0.124800 
     20 H           3.714500   67.700400   68.159000 H         1 <1>         0.162100 
     21 H           5.282900   68.421400   67.792300 H         1 <1>         0.146800 
     22 H           2.272700   66.889500   66.238400 H         1 <1>         0.228500 
     23 H           2.902800   66.996500   64.592800 H         1 <1>         0.204000 
     24 H           4.650400   65.344100   65.024700 H         1 <1>         0.150400 
     25 H           3.077700   64.657900   65.449200 H         1 <1>         0.222700 
     26 H           3.573700   69.840000   65.931700 H         1 <1>         0.286300 
     27 H           5.314300   69.545100   65.823400 H         1 <1>         0.249200 
     28 H           2.206200   69.931000   64.044400 H         1 <1>         0.177700 
     29 H           1.955500   69.924800   61.567900 H         1 <1>         0.185900 
     30 H           3.851200   69.184900   60.109400 H         1 <1>         0.182100 
     31 H           6.007200   68.444900   61.145300 H         1 <1>         0.173100 
     32 H           6.268100   68.442500   63.627900 H         1 <1>         0.203900 
     33 C           4.364000   62.488600   66.983100 C.3       1 <1>         0.221300 
     34 N           3.331000   62.280800   67.985900 N.3       1 <1>        -0.921400 
     35 C           3.506500   61.398700   69.054100 C.3       1 <1>         0.160500 
     36 C           2.336000   61.261000   69.991000 C.2       1 <1>        -0.108100 
     37 C           2.181600   60.057400   70.705200 C.2       1 <1>        -0.146700 
     38 C           1.093700   59.881400   71.562700 C.2       1 <1>        -0.163000 
     39 C           0.145100   60.903000   71.721100 C.2       1 <1>        -0.072400 
     40 C           0.302700   62.103900   71.018200 C.2       1 <1>        -0.182200 
     41 C           1.393200   62.291300   70.161800 C.2       1 <1>        -0.102600 
     42 H           3.898000   62.510300   65.982400 H         1 <1>         0.011600 
     43 H           5.040000   61.617600   66.979500 H         1 <1>         0.058300 
     44 H           2.481600   62.808800   67.931300 H         1 <1>         0.434100 
     45 H           2.920400   59.242700   70.579800 H         1 <1>         0.161000 
     46 H           0.979400   58.930100   72.117600 H         1 <1>         0.160300 
     47 H          -0.717000   60.761100   72.400200 H         1 <1>         0.144800 
     48 H          -0.438000   62.916400   71.149300 H         1 <1>         0.151600 
     49 H           1.504300   63.262000   69.646400 H         1 <1>         0.140100 
     50 H           4.917000   67.435200   65.697600 H         1 <1>         0.416900 
     51 H           3.742200   60.385900   68.673800 H         1 <1>         0.051000 
     52 H           4.382900   61.695300   69.665700 H         1 <1>         0.048900 
@<TRIPOS>BOND
     1    1    2 1    
     2    1   15 1    
     3    1   16 1    
     4    1   33 1    
     5    2    3 1    
     6    2    7 1    
     7    2   17 1    
     8    3    4 1    
     9    3   18 1    
    10    3   19 1    
    11    4    5 1    
    12    4   20 1    
    13    4   21 1    
    14    5    6 1    
    15    5    8 1    
    16    5   50 1    
    17    6    7 1    
    18    6   22 1    
    19    6   23 1    
    20    7   24 1    
    21    7   25 1    
    22    8    9 1    
    23    8   26 1    
    24    8   27 1    
    25    9   10 1    
    26    9   14 2    
    27   10   11 2    
    28   10   28 1    
    29   11   12 1    
    30   11   29 1    
    31   12   13 2    
    32   12   30 1    
    33   13   14 1    
    34   13   31 1    
    35   14   32 1    
    36   33   34 1    
    37   33   42 1    
    38   33   43 1    
    39   34   35 1    
    40   34   44 1    
    41   35   36 1    
    42   35   51 1    
    43   35   52 1    
    44   36   37 2    
    45   36   41 1    
    46   37   38 1    
    47   37   45 1    
    48   38   39 2    
    49   38   46 1    
    50   39   40 1    
    51   39   47 1    
    52   40   41 2    
    53   40   48 1    
    54   41   49 1    
@<TRIPOS>SUBSTRUCTURE
     1 ****        1 TEMP              0 ****  ****    0 ROOT 
@<TRIPOS>SET
UNITY_3DHIT     STATIC     ATOMS    <user>   **** Atoms matching 3D or FLEX Search
0
@<TRIPOS>UNITY_ATOM_ATTR
5 1
AtomExpr +1
@<TRIPOS>UNITY_BOND_ATTR
26 1
S N
27 1
S N
31 1
S N
44 1
S I
48 1
S N
52 1
S I
