#	Name:			2-14
#	Creating user name:	jeff
#	Creation time:		Thu Dec 19 21:50:42 2002

#	Modifying user name:	jeff
#	Modification time:	Thu Dec 19 21:50:43 2002

@<TRIPOS>MOLECULE
2-14
   57    59     1     0     1
SMALL
USER_CHARGES
****
From 3DB ct
@<TRIPOS>ATOM
      1 C           5.174100   63.766600   67.229800 C.3       1 <1>        -0.490600 
      2 C           4.385500   65.095300   67.167900 C.3       1 <1>         0.435200 
      3 C           5.277000   66.262800   67.639800 C.3       1 <1>        -0.321000 
      4 C           4.585700   67.625300   67.481800 C.3       1 <1>        -0.070600 
      5 N           4.192500   67.807300   66.080500 N.4       1 <1>         0.173100 
      6 C           3.199600   66.822100   65.639200 C.3       1 <1>        -0.216100 
      7 C           3.822900   65.410200   65.756800 C.3       1 <1>        -0.348600 
      8 C           4.330200   69.150900   65.515100 C.3       1 <1>        -0.676700 
      9 C           4.261200   69.199200   64.002100 C.2       1 <1>         0.258700 
     10 C           3.058300   69.612200   63.410300 C.2       1 <1>        -0.233500 
     11 C           2.913700   69.607300   62.021400 C.2       1 <1>        -0.100100 
     12 C           3.968500   69.192800   61.210100 C.2       1 <1>        -0.108600 
     13 C           5.169800   68.782800   61.785500 C.2       1 <1>        -0.058000 
     14 C           5.316600   68.786600   63.173700 C.2       1 <1>        -0.356900 
     15 H           5.667900   63.680200   68.215300 H         1 <1>         0.177600 
     16 H           5.989300   63.796500   66.483700 H         1 <1>         0.129800 
     17 H           3.531000   65.041100   67.868900 H         1 <1>        -0.012100 
     18 H           5.582400   66.119700   68.690600 H         1 <1>         0.161400 
     19 H           6.206800   66.271700   67.039800 H         1 <1>         0.094800 
     20 H           3.714500   67.700400   68.159000 H         1 <1>         0.165100 
     21 H           5.282900   68.421400   67.792300 H         1 <1>         0.146000 
     22 H           2.272700   66.889500   66.238400 H         1 <1>         0.205900 
     23 H           2.902800   66.996500   64.592800 H         1 <1>         0.174300 
     24 H           4.650400   65.344100   65.024700 H         1 <1>         0.115600 
     25 H           3.077700   64.657900   65.449200 H         1 <1>         0.208300 
     26 H           3.573700   69.840000   65.931700 H         1 <1>         0.293000 
     27 H           5.314300   69.545100   65.823400 H         1 <1>         0.267300 
     28 H           2.206200   69.931000   64.044400 H         1 <1>         0.177400 
     29 H           1.955500   69.924800   61.567900 H         1 <1>         0.181400 
     30 H           3.851200   69.184900   60.109400 H         1 <1>         0.186200 
     31 H           6.007200   68.444900   61.145300 H         1 <1>         0.174700 
     32 H           6.268100   68.442500   63.627900 H         1 <1>         0.206300 
     33 C           4.364000   62.488600   66.983100 C.3       1 <1>         0.120100 
     34 N           3.331000   62.280800   67.985900 N.am      1 <1>        -0.610600 
     35 C           3.506500   61.398700   69.054100 C.2       1 <1>         0.752500 
     36 O           4.500000   60.686800   69.164800 O.2       1 <1>        -0.602500 
     37 C           2.336000   61.261000   69.991000 C.2       1 <1>        -0.129500 
     38 C           1.997700   59.966800   70.427100 C.2       1 <1>        -0.125400 
     39 C           0.951300   59.785400   71.335800 C.2       1 <1>        -0.135600 
     40 C           0.256200   60.895200   71.839800 C.2       1 <1>        -0.105800 
     41 C           0.628700   62.187500   71.442700 C.2       1 <1>        -0.122900 
     42 C           1.679100   62.375700   70.535400 C.2       1 <1>        -0.181500 
     43 H           3.898000   62.510300   65.982400 H         1 <1>         0.046700 
     44 H           5.040000   61.617600   66.979500 H         1 <1>         0.112700 
     45 C           1.961800   62.702800   67.593200 C.3       1 <1>         0.257700 
     46 H           2.554000   59.093200   70.036200 H         1 <1>         0.177400 
     47 H           0.676700   58.764600   71.668100 H         1 <1>         0.158600 
     48 H          -0.568800   60.749200   72.563700 H         1 <1>         0.156800 
     49 H           0.097400   63.063800   71.860900 H         1 <1>         0.150300 
     50 H           1.991700   63.397900   70.254600 H         1 <1>         0.154200 
     51 H           4.917000   67.435200   65.697600 H         1 <1>         0.407600 
     52 H           1.425300   63.117900   68.456900 H         1 <1>         0.042500 
     53 H           2.042200   63.546900   66.894400 H         1 <1>        -0.027100 
     54 C           1.093200   61.623700   66.928000 C.3       1 <1>        -0.152600 
     55 H           0.120000   62.065300   66.659000 H         1 <1>         0.055300 
     56 H           1.558800   61.236100   66.009000 H         1 <1>         0.036200 
     57 H           0.901100   60.770600   67.595900 H         1 <1>         0.047300 
@<TRIPOS>BOND
     1    1    2 1    
     2    1   15 1    
     3    1   16 1    
     4    1   33 1    
     5    2    3 1    
     6    2    7 1    
     7    2   17 1    
     8    3    4 1    
     9    3   18 1    
    10    3   19 1    
    11    4    5 1    
    12    4   20 1    
    13    4   21 1    
    14    5    6 1    
    15    5    8 1    
    16    5   51 1    
    17    6    7 1    
    18    6   22 1    
    19    6   23 1    
    20    7   24 1    
    21    7   25 1    
    22    8    9 1    
    23    8   26 1    
    24    8   27 1    
    25    9   10 1    
    26    9   14 2    
    27   10   11 2    
    28   10   28 1    
    29   11   12 1    
    30   11   29 1    
    31   12   13 2    
    32   12   30 1    
    33   13   14 1    
    34   13   31 1    
    35   14   32 1    
    36   33   34 1    
    37   33   43 1    
    38   33   44 1    
    39   34   35 am   
    40   34   45 1    
    41   35   36 2    
    42   35   37 1    
    43   37   38 2    
    44   37   42 1    
    45   38   39 1    
    46   38   46 1    
    47   39   40 2    
    48   39   47 1    
    49   40   41 1    
    50   40   48 1    
    51   41   42 2    
    52   41   49 1    
    53   42   50 1    
    54   45   52 1    
    55   45   53 1    
    56   45   54 1    
    57   54   55 1    
    58   54   56 1    
    59   54   57 1    
@<TRIPOS>SUBSTRUCTURE
     1 ****        1 TEMP              0 ****  ****    0 ROOT 
@<TRIPOS>SET
UNITY_3DHIT     STATIC     ATOMS    <user>   **** Atoms matching 3D or FLEX Search
0
@<TRIPOS>UNITY_ATOM_ATTR
5 1
AtomExpr +1
@<TRIPOS>UNITY_BOND_ATTR
26 1
S N
27 1
S I
31 1
S I
43 1
S N
47 1
S I
51 1
S I
