#	Name:			2-15
#	Creating user name:	jeff
#	Creation time:		Thu Dec 19 21:50:43 2002

#	Modifying user name:	jeff
#	Modification time:	Thu Dec 19 21:50:44 2002

@<TRIPOS>MOLECULE
2-15
   64    67     1     0     1
SMALL
USER_CHARGES
****
From 3DB ct
@<TRIPOS>ATOM
      1 C           5.174100   63.766600   67.229800 C.3       1 <1>        -0.395800 
      2 C           4.385500   65.095300   67.167900 C.3       1 <1>         0.230900 
      3 C           5.277000   66.262800   67.639800 C.3       1 <1>        -0.360200 
      4 C           4.585700   67.625300   67.481800 C.3       1 <1>        -0.069400 
      5 N           4.192500   67.807300   66.080500 N.4       1 <1>         0.189400 
      6 C           3.199600   66.822100   65.639200 C.3       1 <1>        -0.300500 
      7 C           3.822900   65.410200   65.756800 C.3       1 <1>        -0.145900 
      8 C           4.330200   69.150900   65.515100 C.3       1 <1>        -0.658000 
      9 C           4.261200   69.199200   64.002100 C.2       1 <1>         0.255000 
     10 C           3.058300   69.612200   63.410300 C.2       1 <1>        -0.239500 
     11 C           2.913700   69.607300   62.021400 C.2       1 <1>        -0.103100 
     12 C           3.968500   69.192800   61.210100 C.2       1 <1>        -0.100800 
     13 C           5.169800   68.782800   61.785500 C.2       1 <1>        -0.076700 
     14 C           5.316600   68.786600   63.173700 C.2       1 <1>        -0.338100 
     15 H           5.667900   63.680200   68.215300 H         1 <1>         0.158000 
     16 H           5.989300   63.796500   66.483700 H         1 <1>         0.125700 
     17 H           3.531000   65.041100   67.868900 H         1 <1>         0.066800 
     18 H           5.582400   66.119700   68.690600 H         1 <1>         0.179700 
     19 H           6.206800   66.271700   67.039800 H         1 <1>         0.112600 
     20 H           3.714500   67.700400   68.159000 H         1 <1>         0.166200 
     21 H           5.282900   68.421400   67.792300 H         1 <1>         0.150600 
     22 H           2.272700   66.889500   66.238400 H         1 <1>         0.217900 
     23 H           2.902800   66.996500   64.592800 H         1 <1>         0.188400 
     24 H           4.650400   65.344100   65.024700 H         1 <1>         0.090700 
     25 H           3.077700   64.657900   65.449200 H         1 <1>         0.140900 
     26 H           3.573700   69.840000   65.931700 H         1 <1>         0.290500 
     27 H           5.314300   69.545100   65.823400 H         1 <1>         0.258200 
     28 H           2.206200   69.931000   64.044400 H         1 <1>         0.183500 
     29 H           1.955500   69.924800   61.567900 H         1 <1>         0.181800 
     30 H           3.851200   69.184900   60.109400 H         1 <1>         0.185900 
     31 H           6.007200   68.444900   61.145300 H         1 <1>         0.178600 
     32 H           6.268100   68.442500   63.627900 H         1 <1>         0.199600 
     33 C           4.364000   62.488600   66.983100 C.3       1 <1>         0.049600 
     34 N           3.331000   62.280800   67.985900 N.am      1 <1>        -0.331400 
     35 C           3.506500   61.398700   69.054100 C.2       1 <1>         0.697700 
     36 O           4.500000   60.686800   69.164800 O.2       1 <1>        -0.597400 
     37 C           2.336000   61.261000   69.991000 C.2       1 <1>        -0.115900 
     38 C           1.993400   59.969800   70.433800 C.2       1 <1>        -0.137900 
     39 C           0.945500   59.795500   71.342200 C.2       1 <1>        -0.138200 
     40 C           0.253500   60.909000   71.841700 C.2       1 <1>        -0.091800 
     41 C           0.631000   62.198800   71.440500 C.2       1 <1>        -0.170100 
     42 C           1.681800   62.380200   70.533300 C.2       1 <1>        -0.143300 
     43 H           3.944700   62.521900   65.964200 H         1 <1>         0.060500 
     44 H           5.040000   61.617600   66.979500 H         1 <1>         0.107500 
     45 C           1.960500   62.627200   67.502300 C.3       1 <1>        -0.572200 
     46 H           2.547300   59.091200   70.050800 H         1 <1>         0.180400 
     47 H           0.666800   58.776900   71.677600 H         1 <1>         0.160800 
     48 H          -0.573300   60.768000   72.564500 H         1 <1>         0.156300 
     49 H           0.101400   63.078100   71.855000 H         1 <1>         0.161600 
     50 H           1.993500   63.400400   70.244700 H         1 <1>         0.149500 
     51 H           4.917000   67.435200   65.697600 H         1 <1>         0.402900 
     52 H           1.225700   62.565500   68.312300 H         1 <1>         0.256500 
     53 H           1.953100   63.683600   67.197800 H         1 <1>         0.165900 
     54 C           1.418500   61.783000   66.344600 C.2       1 <1>         0.282000 
     55 C           0.931700   62.375500   65.168500 C.2       1 <1>        -0.236800 
     56 H           0.919400   63.477400   65.058000 H         1 <1>         0.155300 
     57 C           0.439700   61.591900   64.117100 C.2       1 <1>        -0.169300 
     58 H           0.057600   62.078600   63.198700 H         1 <1>         0.162400 
     59 C           0.420500   60.196000   64.220600 C.2       1 <1>        -0.107600 
     60 H           0.029800   59.574200   63.392200 H         1 <1>         0.158300 
     61 C           0.895400   59.596300   65.393200 C.2       1 <1>        -0.139000 
     62 H           0.881600   58.493000   65.496000 H         1 <1>         0.170700 
     63 C           1.385200   60.381600   66.442100 C.2       1 <1>        -0.261900 
     64 H           1.751800   59.874100   67.358000 H         1 <1>         0.194200 
@<TRIPOS>BOND
     1    1    2 1    
     2    1   15 1    
     3    1   16 1    
     4    1   33 1    
     5    2    3 1    
     6    2    7 1    
     7    2   17 1    
     8    3    4 1    
     9    3   18 1    
    10    3   19 1    
    11    4    5 1    
    12    4   20 1    
    13    4   21 1    
    14    5    6 1    
    15    5    8 1    
    16    5   51 1    
    17    6    7 1    
    18    6   22 1    
    19    6   23 1    
    20    7   24 1    
    21    7   25 1    
    22    8    9 1    
    23    8   26 1    
    24    8   27 1    
    25    9   10 1    
    26    9   14 2    
    27   10   11 2    
    28   10   28 1    
    29   11   12 1    
    30   11   29 1    
    31   12   13 2    
    32   12   30 1    
    33   13   14 1    
    34   13   31 1    
    35   14   32 1    
    36   33   34 1    
    37   33   43 1    
    38   33   44 1    
    39   34   35 am   
    40   34   45 1    
    41   35   36 2    
    42   35   37 1    
    43   37   38 2    
    44   37   42 1    
    45   38   39 1    
    46   38   46 1    
    47   39   40 2    
    48   39   47 1    
    49   40   41 1    
    50   40   48 1    
    51   41   42 2    
    52   41   49 1    
    53   42   50 1    
    54   45   52 1    
    55   45   53 1    
    56   45   54 1    
    57   54   55 1    
    58   54   63 2    
    59   55   56 1    
    60   55   57 2    
    61   57   58 1    
    62   57   59 1    
    63   59   60 1    
    64   59   61 2    
    65   61   62 1    
    66   61   63 1    
    67   63   64 1    
@<TRIPOS>SUBSTRUCTURE
     1 ****        1 TEMP              0 ****  ****    0 ROOT 
@<TRIPOS>SET
UNITY_3DHIT     STATIC     ATOMS    <user>   **** Atoms matching 3D or FLEX Search
0
@<TRIPOS>UNITY_ATOM_ATTR
5 1
AtomExpr +1
@<TRIPOS>UNITY_BOND_ATTR
26 1
S N
27 1
S N
31 1
S N
43 1
S I
47 1
S N
51 1
S I
58 1
S N
60 1
S N
64 1
S N
