#	Name:			2-21
#	Creating user name:	jeff
#	Creation time:		Thu Dec 19 21:50:45 2002

#	Modifying user name:	jeff
#	Modification time:	Thu Dec 19 21:50:46 2002

@<TRIPOS>MOLECULE
2-21
   70    73     1     0     1
SMALL
USER_CHARGES
****
From 3DB ct
@<TRIPOS>ATOM
      1 C           5.174100   63.766600   67.229800 C.3       1 <1>        -0.389100 
      2 C           4.385500   65.095300   67.167900 C.3       1 <1>         0.262400 
      3 C           5.277000   66.262800   67.639800 C.3       1 <1>        -0.349700 
      4 C           4.585700   67.625300   67.481800 C.3       1 <1>        -0.073500 
      5 N           4.192500   67.807300   66.080500 N.4       1 <1>         0.175100 
      6 C           3.199600   66.822100   65.639200 C.3       1 <1>        -0.259200 
      7 C           3.822900   65.410200   65.756800 C.3       1 <1>        -0.262400 
      8 C           4.330200   69.150900   65.515100 C.3       1 <1>        -0.670400 
      9 C           4.261200   69.199200   64.002100 C.2       1 <1>         0.270500 
     10 C           3.069300   69.645800   63.405000 C.2       1 <1>        -0.237500 
     11 C           2.921000   69.641900   62.019300 C.2       1 <1>        -0.111700 
     12 C           3.968500   69.192800   61.210100 C.2       1 <1>        -0.103000 
     13 C           5.169800   68.782800   61.785500 C.2       1 <1>        -0.057000 
     14 C           5.316600   68.786600   63.173700 C.2       1 <1>        -0.365800 
     15 H           5.667900   63.680200   68.215300 H         1 <1>         0.161800 
     16 H           5.989300   63.796500   66.483700 H         1 <1>         0.126400 
     17 H           3.531000   65.041100   67.868900 H         1 <1>         0.054800 
     18 H           5.582400   66.119700   68.690600 H         1 <1>         0.179100 
     19 H           6.206800   66.271700   67.039800 H         1 <1>         0.114200 
     20 H           3.714500   67.700400   68.159000 H         1 <1>         0.171400 
     21 H           5.282900   68.421400   67.792300 H         1 <1>         0.151500 
     22 H           2.272700   66.889500   66.238400 H         1 <1>         0.218200 
     23 H           2.902800   66.996500   64.592800 H         1 <1>         0.183500 
     24 H           4.650400   65.344100   65.024700 H         1 <1>         0.112900 
     25 H           3.077700   64.657900   65.449200 H         1 <1>         0.178000 
     26 H           3.553800   69.796200   65.946500 H         1 <1>         0.289300 
     27 H           5.314300   69.545100   65.823400 H         1 <1>         0.263700 
     28 H           2.221600   70.012800   64.021500 H         1 <1>         0.179100 
     29 H           1.976100   69.990300   61.556700 H         1 <1>         0.185900 
     30 H           3.851200   69.184900   60.109400 H         1 <1>         0.185700 
     31 H           6.007200   68.444900   61.145300 H         1 <1>         0.175300 
     32 H           6.268100   68.442500   63.627900 H         1 <1>         0.211100 
     33 C           4.364000   62.488600   66.983100 C.3       1 <1>         0.026200 
     34 N           3.331000   62.280800   67.985900 N.am      1 <1>        -0.427200 
     35 C           3.506500   61.398700   69.054100 C.2       1 <1>         0.677900 
     36 O           4.500000   60.686800   69.164800 O.2       1 <1>        -0.583700 
     37 C           2.396500   61.236400   70.070400 C.2       1 <1>        -0.020700 
     38 C           2.105700   59.955600   70.572700 C.2       1 <1>        -0.209000 
     39 C           1.039000   59.759500   71.449600 C.2       1 <1>        -0.013900 
     40 C           0.243100   60.850500   71.810900 C.2       1 <1>        -0.481800 
     41 C           0.569200   62.142200   71.385100 C.2       1 <1>         0.001600 
     42 C           1.655300   62.332800   70.539200 C.2       1 <1>        -0.218500 
     43 H           3.898000   62.510300   65.982400 H         1 <1>         0.068300 
     44 H           5.040000   61.617600   66.979500 H         1 <1>         0.109300 
     45 C           1.988500   62.749400   67.615900 C.3       1 <1>        -0.092300 
     46 H           2.718800   59.090400   70.249400 H         1 <1>         0.212500 
     47 H           0.835400   58.744900   71.839800 H         1 <1>         0.188200 
     48 H          -0.015500   63.019700   71.721700 H         1 <1>         0.183000 
     49 H           1.924400   63.361000   70.234200 H         1 <1>         0.154900 
     50 H           4.917000   67.435200   65.697600 H         1 <1>         0.410300 
     51 S          -1.140500   60.686200   72.887100 S.o2      1 <1>         2.171200 
     52 O          -0.589500   60.433100   74.185000 O.2       1 <1>        -0.952000 
     53 O          -1.977200   61.828700   72.640200 O.2       1 <1>        -0.960000 
     54 C          -2.004100   59.229500   72.319000 C.3       1 <1>        -0.745500 
     55 C          -3.191300   58.911500   73.203800 C.2       1 <1>         0.179300 
     56 C          -3.004200   58.243600   74.423100 C.2       1 <1>        -0.183200 
     57 C          -4.092300   57.941500   75.249300 C.2       1 <1>        -0.158200 
     58 C          -5.391800   58.301500   74.869500 C.2       1 <1>        -0.090500 
     59 C          -5.583100   58.970900   73.654500 C.2       1 <1>        -0.151000 
     60 C          -4.492200   59.272400   72.829900 C.2       1 <1>        -0.195600 
     61 H          -2.322200   59.381900   71.279200 H         1 <1>         0.210600 
     62 H          -1.277100   58.407000   72.359600 H         1 <1>         0.218600 
     63 H          -1.983800   57.957200   74.752400 H         1 <1>         0.188600 
     64 H          -3.918300   57.419100   76.209400 H         1 <1>         0.167900 
     65 H          -6.252500   58.065700   75.522800 H         1 <1>         0.157500 
     66 H          -6.601300   59.269600   73.340300 H         1 <1>         0.163100 
     67 H          -4.674400   59.808000   71.876500 H         1 <1>         0.184100 
     68 H           1.223200   62.045700   67.969900 H         1 <1>         0.117500 
     69 H           1.772600   63.747700   68.023400 H         1 <1>         0.059600 
     70 H           1.876300   62.792400   66.521100 H         1 <1>         0.084300 
@<TRIPOS>BOND
     1    1    2 1    
     2    1   15 1    
     3    1   16 1    
     4    1   33 1    
     5    2    3 1    
     6    2    7 1    
     7    2   17 1    
     8    3    4 1    
     9    3   18 1    
    10    3   19 1    
    11    4    5 1    
    12    4   20 1    
    13    4   21 1    
    14    5    6 1    
    15    5    8 1    
    16    5   50 1    
    17    6    7 1    
    18    6   22 1    
    19    6   23 1    
    20    7   24 1    
    21    7   25 1    
    22    8    9 1    
    23    8   26 1    
    24    8   27 1    
    25    9   10 1    
    26    9   14 2    
    27   10   11 2    
    28   10   28 1    
    29   11   12 1    
    30   11   29 1    
    31   12   13 2    
    32   12   30 1    
    33   13   14 1    
    34   13   31 1    
    35   14   32 1    
    36   33   34 1    
    37   33   43 1    
    38   33   44 1    
    39   34   35 am   
    40   34   45 1    
    41   35   36 2    
    42   35   37 1    
    43   37   38 2    
    44   37   42 1    
    45   38   39 1    
    46   38   46 1    
    47   39   40 2    
    48   39   47 1    
    49   40   41 1    
    50   40   51 1    
    51   41   42 2    
    52   41   48 1    
    53   42   49 1    
    54   45   68 1    
    55   45   69 1    
    56   45   70 1    
    57   51   52 2    
    58   51   53 2    
    59   51   54 1    
    60   54   55 1    
    61   54   61 1    
    62   54   62 1    
    63   55   56 2    
    64   55   60 1    
    65   56   57 1    
    66   56   63 1    
    67   57   58 2    
    68   57   64 1    
    69   58   59 1    
    70   58   65 1    
    71   59   60 2    
    72   59   66 1    
    73   60   67 1    
@<TRIPOS>SUBSTRUCTURE
     1 ****        1 TEMP              0 ****  ****    0 ROOT 
@<TRIPOS>SET
UNITY_3DHIT     STATIC     ATOMS    <user>   **** Atoms matching 3D or FLEX Search
0
@<TRIPOS>UNITY_ATOM_ATTR
5 1
AtomExpr +1
@<TRIPOS>UNITY_BOND_ATTR
26 1
S N
27 1
S N
31 1
S N
43 1
S I
47 1
S I
51 1
S I
63 1
S I
67 1
S N
71 1
S I
