#	Name:			2-22
#	Creating user name:	jeff
#	Creation time:		Thu Dec 19 21:50:46 2002

#	Modifying user name:	jeff
#	Modification time:	Thu Dec 19 21:50:47 2002

@<TRIPOS>MOLECULE
2-22
   73    76     1     0     1
SMALL
USER_CHARGES
****
From 3DB ct
@<TRIPOS>ATOM
      1 C           5.174100   63.766600   67.229800 C.3       1 <1>        -0.498000 
      2 C           4.385500   65.095300   67.167900 C.3       1 <1>         0.359500 
      3 C           5.277000   66.262800   67.639800 C.3       1 <1>        -0.301700 
      4 C           4.585700   67.625300   67.481800 C.3       1 <1>        -0.089600 
      5 N           4.192500   67.807300   66.080500 N.4       1 <1>         0.195400 
      6 C           3.199600   66.822100   65.639200 C.3       1 <1>        -0.230900 
      7 C           3.822900   65.410200   65.756800 C.3       1 <1>        -0.346800 
      8 C           4.330200   69.150900   65.515100 C.3       1 <1>        -0.689200 
      9 C           4.261200   69.199200   64.002100 C.2       1 <1>         0.268700 
     10 C           3.069300   69.645800   63.405000 C.2       1 <1>        -0.248900 
     11 C           2.921000   69.641900   62.019300 C.2       1 <1>        -0.090400 
     12 C           3.968500   69.192800   61.210100 C.2       1 <1>        -0.113200 
     13 C           5.169800   68.782800   61.785500 C.2       1 <1>        -0.072100 
     14 C           5.316600   68.786600   63.173700 C.2       1 <1>        -0.339800 
     15 H           5.667900   63.680200   68.215300 H         1 <1>         0.185100 
     16 H           5.989300   63.796500   66.483700 H         1 <1>         0.145700 
     17 H           3.531000   65.041100   67.868900 H         1 <1>         0.020100 
     18 H           5.582400   66.119700   68.690600 H         1 <1>         0.161200 
     19 H           6.206800   66.271700   67.039800 H         1 <1>         0.094800 
     20 H           3.714500   67.700400   68.159000 H         1 <1>         0.172000 
     21 H           5.282900   68.421400   67.792300 H         1 <1>         0.151200 
     22 H           2.272700   66.889500   66.238400 H         1 <1>         0.209100 
     23 H           2.902800   66.996500   64.592800 H         1 <1>         0.179500 
     24 H           4.650400   65.344100   65.024700 H         1 <1>         0.122500 
     25 H           3.077700   64.657900   65.449200 H         1 <1>         0.209500 
     26 H           3.553800   69.796200   65.946500 H         1 <1>         0.295800 
     27 H           5.314300   69.545100   65.823400 H         1 <1>         0.269000 
     28 H           2.221600   70.012800   64.021500 H         1 <1>         0.183700 
     29 H           1.976100   69.990300   61.556700 H         1 <1>         0.179900 
     30 H           3.851200   69.184900   60.109400 H         1 <1>         0.188700 
     31 H           6.007200   68.444900   61.145300 H         1 <1>         0.178900 
     32 H           6.268100   68.442500   63.627900 H         1 <1>         0.196700 
     33 C           4.364000   62.488600   66.983100 C.3       1 <1>         0.073900 
     34 N           3.331000   62.280800   67.985900 N.am      1 <1>        -0.638300 
     35 C           3.506500   61.398700   69.054100 C.2       1 <1>         0.770200 
     36 O           4.500000   60.686800   69.164800 O.2       1 <1>        -0.590600 
     37 C           2.406000   61.225700   70.075300 C.2       1 <1>        -0.123500 
     38 C           2.013400   59.926200   70.437100 C.2       1 <1>        -0.124600 
     39 C           0.945600   59.724000   71.310700 C.2       1 <1>        -0.070600 
     40 C           0.256600   60.832700   71.810000 C.2       1 <1>        -0.488800 
     41 C           0.695300   62.131800   71.530900 C.2       1 <1>        -0.013600 
     42 C           1.783100   62.323000   70.687500 C.2       1 <1>        -0.135500 
     43 H           3.898000   62.510300   65.982400 H         1 <1>         0.066900 
     44 H           5.040000   61.617600   66.979500 H         1 <1>         0.125700 
     45 C           1.956800   62.678300   67.587100 C.3       1 <1>         0.344800 
     46 H           2.543600   59.056100   70.000300 H         1 <1>         0.190900 
     47 H           0.661600   58.691500   71.583700 H         1 <1>         0.187500 
     48 H           0.193800   63.010300   71.980300 H         1 <1>         0.188400 
     49 H           2.146000   63.349600   70.491000 H         1 <1>         0.140900 
     50 H           4.917000   67.435200   65.697600 H         1 <1>         0.406700 
     51 S          -1.135000   60.692200   72.879600 S.o2      1 <1>         2.202700 
     52 O          -0.598000   60.422000   74.179700 O.2       1 <1>        -0.957700 
     53 O          -1.941300   61.857300   72.634300 O.2       1 <1>        -0.966600 
     54 C          -2.029800   59.261800   72.296800 C.3       1 <1>        -0.774800 
     55 C          -3.219600   58.947600   73.179400 C.2       1 <1>         0.192500 
     56 C          -3.040100   58.255800   74.386400 C.2       1 <1>        -0.209300 
     57 C          -4.130800   57.956900   75.210400 C.2       1 <1>        -0.139900 
     58 C          -5.425300   58.344200   74.840600 C.2       1 <1>        -0.099800 
     59 C          -5.609000   59.037500   73.637900 C.2       1 <1>        -0.146800 
     60 C          -4.515500   59.335700   72.815500 C.2       1 <1>        -0.197700 
     61 H          -2.348100   59.437200   71.260700 H         1 <1>         0.226200 
     62 H          -1.316000   58.427200   72.321100 H         1 <1>         0.229500 
     63 H          -2.023600   57.947500   74.707800 H         1 <1>         0.200600 
     64 H          -3.962700   57.415300   76.160900 H         1 <1>         0.165100 
     65 H          -6.288000   58.110900   75.492200 H         1 <1>         0.158700 
     66 H          -6.623100   59.357800   73.331800 H         1 <1>         0.161900 
     67 H          -4.691600   59.890500   71.872000 H         1 <1>         0.175700 
     68 H           1.456900   63.215400   68.403600 H         1 <1>        -0.002600 
     69 H           2.031800   63.423800   66.782700 H         1 <1>        -0.030700 
     70 C           1.047200   61.548100   67.079400 C.3       1 <1>        -0.157800 
     71 H           0.081300   61.980700   66.771400 H         1 <1>         0.053300 
     72 H           1.486300   61.039500   66.207000 H         1 <1>         0.034200 
     73 H           0.844700   60.788000   67.848300 H         1 <1>         0.048600 
@<TRIPOS>BOND
     1    1    2 1    
     2    1   15 1    
     3    1   16 1    
     4    1   33 1    
     5    2    3 1    
     6    2    7 1    
     7    2   17 1    
     8    3    4 1    
     9    3   18 1    
    10    3   19 1    
    11    4    5 1    
    12    4   20 1    
    13    4   21 1    
    14    5    6 1    
    15    5    8 1    
    16    5   50 1    
    17    6    7 1    
    18    6   22 1    
    19    6   23 1    
    20    7   24 1    
    21    7   25 1    
    22    8    9 1    
    23    8   26 1    
    24    8   27 1    
    25    9   10 1    
    26    9   14 2    
    27   10   11 2    
    28   10   28 1    
    29   11   12 1    
    30   11   29 1    
    31   12   13 2    
    32   12   30 1    
    33   13   14 1    
    34   13   31 1    
    35   14   32 1    
    36   33   34 1    
    37   33   43 1    
    38   33   44 1    
    39   34   35 am   
    40   34   45 1    
    41   35   36 2    
    42   35   37 1    
    43   37   38 2    
    44   37   42 1    
    45   38   39 1    
    46   38   46 1    
    47   39   40 2    
    48   39   47 1    
    49   40   41 1    
    50   40   51 1    
    51   41   42 2    
    52   41   48 1    
    53   42   49 1    
    54   45   68 1    
    55   45   69 1    
    56   45   70 1    
    57   51   52 2    
    58   51   53 2    
    59   51   54 1    
    60   54   55 1    
    61   54   61 1    
    62   54   62 1    
    63   55   56 2    
    64   55   60 1    
    65   56   57 1    
    66   56   63 1    
    67   57   58 2    
    68   57   64 1    
    69   58   59 1    
    70   58   65 1    
    71   59   60 2    
    72   59   66 1    
    73   60   67 1    
    74   70   71 1    
    75   70   72 1    
    76   70   73 1    
@<TRIPOS>SUBSTRUCTURE
     1 ****        1 TEMP              0 ****  ****    0 ROOT 
@<TRIPOS>SET
UNITY_3DHIT     STATIC     ATOMS    <user>   **** Atoms matching 3D or FLEX Search
0
@<TRIPOS>UNITY_ATOM_ATTR
5 1
AtomExpr +1
@<TRIPOS>UNITY_BOND_ATTR
26 1
S N
27 1
S I
31 1
S I
43 1
S N
47 1
S I
51 1
S I
63 1
S N
67 1
S I
71 1
S I
