#	Name:			2-23
#	Creating user name:	jeff
#	Creation time:		Thu Dec 19 21:50:48 2002

#	Modifying user name:	jeff
#	Modification time:	Thu Dec 19 21:50:49 2002

@<TRIPOS>MOLECULE
2-23
   77    81     1     0     1
SMALL
USER_CHARGES
****
From 3DB ct
@<TRIPOS>ATOM
      1 C           5.174100   63.766600   67.229800 C.3       1 <1>        -0.374800 
      2 C           4.385500   65.095300   67.167900 C.3       1 <1>         0.354000 
      3 C           5.277000   66.262800   67.639800 C.3       1 <1>        -0.375400 
      4 C           4.585700   67.625300   67.481800 C.3       1 <1>        -0.060400 
      5 N           4.192500   67.807300   66.080500 N.4       1 <1>         0.172000 
      6 C           3.199600   66.822100   65.639200 C.3       1 <1>        -0.222900 
      7 C           3.822900   65.410200   65.756800 C.3       1 <1>        -0.194900 
      8 C           4.330200   69.150900   65.515100 C.3       1 <1>        -0.651500 
      9 C           4.261200   69.199200   64.002100 C.2       1 <1>         0.257300 
     10 C           3.069300   69.645800   63.405000 C.2       1 <1>        -0.230000 
     11 C           2.921000   69.641900   62.019300 C.2       1 <1>        -0.105500 
     12 C           3.968500   69.192800   61.210100 C.2       1 <1>        -0.097400 
     13 C           5.169800   68.782800   61.785500 C.2       1 <1>        -0.073600 
     14 C           5.316600   68.786600   63.173700 C.2       1 <1>        -0.354100 
     15 H           5.667900   63.680200   68.215300 H         1 <1>         0.149900 
     16 H           5.989300   63.796500   66.483700 H         1 <1>         0.105700 
     17 H           3.531000   65.041100   67.868900 H         1 <1>         0.013600 
     18 H           5.582400   66.119700   68.690600 H         1 <1>         0.180000 
     19 H           6.206800   66.271700   67.039800 H         1 <1>         0.106500 
     20 H           3.714500   67.700400   68.159000 H         1 <1>         0.163200 
     21 H           5.282900   68.421400   67.792300 H         1 <1>         0.150900 
     22 H           2.272700   66.889500   66.238400 H         1 <1>         0.196700 
     23 H           2.902800   66.996500   64.592800 H         1 <1>         0.167300 
     24 H           4.650400   65.344100   65.024700 H         1 <1>         0.081900 
     25 H           3.077700   64.657900   65.449200 H         1 <1>         0.149300 
     26 H           3.553800   69.796200   65.946500 H         1 <1>         0.289700 
     27 H           5.314300   69.545100   65.823400 H         1 <1>         0.255800 
     28 H           2.221600   70.012800   64.021500 H         1 <1>         0.180000 
     29 H           1.976100   69.990300   61.556700 H         1 <1>         0.181500 
     30 H           3.851200   69.184900   60.109400 H         1 <1>         0.184500 
     31 H           6.007200   68.444900   61.145300 H         1 <1>         0.178500 
     32 H           6.268100   68.442500   63.627900 H         1 <1>         0.203400 
     33 C           4.364000   62.488600   66.983100 C.3       1 <1>         0.095200 
     34 N           3.331000   62.280800   67.985900 N.pl3     1 <1>        -0.735200 
     35 C           3.506500   61.398700   69.054100 C.2       1 <1>         0.840600 
     36 O           4.500000   60.686800   69.164800 O.2       1 <1>        -0.589400 
     37 C           2.400700   61.182600   70.058600 C.2       1 <1>        -0.084800 
     38 C           2.079500   59.863200   70.431900 C.2       1 <1>        -0.143700 
     39 C           1.069200   59.613000   71.356300 C.2       1 <1>        -0.017600 
     40 C           0.359400   60.690000   71.898400 C.2       1 <1>        -0.554500 
     41 C           0.697100   62.005400   71.573200 C.2       1 <1>         0.037000 
     42 C           1.733000   62.245200   70.674300 C.2       1 <1>        -0.183500 
     43 H           3.898000   62.510300   65.982400 H         1 <1>         0.057100 
     44 H           5.040000   61.617600   66.979500 H         1 <1>         0.123100 
     45 H           2.636600   59.017000   69.982100 H         1 <1>         0.146500 
     46 H           0.842500   58.572400   71.656800 H         1 <1>         0.152200 
     47 H           0.176500   62.865000   72.036300 H         1 <1>         0.190300 
     48 H           2.039000   63.286500   70.477900 H         1 <1>         0.187500 
     49 H           4.917000   67.435200   65.697600 H         1 <1>         0.399400 
     50 S          -0.911000   60.431300   73.084700 S.o2      1 <1>         2.230100 
     51 O          -0.260200   59.857300   74.223500 O.2       1 <1>        -0.963100 
     52 O          -1.632100   61.671500   73.174900 O.2       1 <1>        -0.976600 
     53 C          -1.989100   59.223500   72.329800 C.3       1 <1>        -0.746300 
     54 C          -3.191300   58.911500   73.203800 C.2       1 <1>         0.176000 
     55 C          -3.004200   58.243600   74.423100 C.2       1 <1>        -0.193500 
     56 C          -4.092300   57.941500   75.249300 C.2       1 <1>        -0.151100 
     57 C          -5.391800   58.301500   74.869500 C.2       1 <1>        -0.086100 
     58 C          -5.583100   58.970900   73.654500 C.2       1 <1>        -0.162900 
     59 C          -4.492200   59.272400   72.829900 C.2       1 <1>        -0.188000 
     60 H          -2.308000   59.633100   71.362600 H         1 <1>         0.216700 
     61 H          -1.406900   58.306700   72.160800 H         1 <1>         0.223600 
     62 H          -1.983800   57.957200   74.752400 H         1 <1>         0.195900 
     63 H          -3.918300   57.419100   76.209400 H         1 <1>         0.167100 
     64 H          -6.252500   58.065700   75.522800 H         1 <1>         0.155600 
     65 H          -6.601300   59.269600   73.340300 H         1 <1>         0.165600 
     66 H          -4.674400   59.808000   71.876500 H         1 <1>         0.175600 
     67 C           2.104200   62.981400   67.687000 C.2       1 <1>         0.462600 
     68 C           1.852800   64.256700   68.254300 C.2       1 <1>        -0.302700 
     69 H           2.577500   64.708200   68.963100 H         1 <1>         0.174400 
     70 C           0.684000   64.968000   67.964500 C.2       1 <1>        -0.142800 
     71 H           0.508300   65.954200   68.439300 H         1 <1>         0.182000 
     72 C          -0.270500   64.428900   67.094000 C.2       1 <1>        -0.169900 
     73 H          -1.204900   64.981500   66.877100 H         1 <1>         0.168900 
     74 C          -0.055300   63.163900   66.540900 C.2       1 <1>        -0.109400 
     75 H          -0.821500   62.714100   65.877300 H         1 <1>         0.170800 
     76 C           1.115500   62.447700   66.831800 C.2       1 <1>        -0.348300 
     77 H           1.220600   61.432600   66.397600 H         1 <1>         0.196200 
@<TRIPOS>BOND
     1    1    2 1    
     2    1   15 1    
     3    1   16 1    
     4    1   33 1    
     5    2    3 1    
     6    2    7 1    
     7    2   17 1    
     8    3    4 1    
     9    3   18 1    
    10    3   19 1    
    11    4    5 1    
    12    4   20 1    
    13    4   21 1    
    14    5    6 1    
    15    5    8 1    
    16    5   49 1    
    17    6    7 1    
    18    6   22 1    
    19    6   23 1    
    20    7   24 1    
    21    7   25 1    
    22    8    9 1    
    23    8   26 1    
    24    8   27 1    
    25    9   10 1    
    26    9   14 2    
    27   10   11 2    
    28   10   28 1    
    29   11   12 1    
    30   11   29 1    
    31   12   13 2    
    32   12   30 1    
    33   13   14 1    
    34   13   31 1    
    35   14   32 1    
    36   33   34 1    
    37   33   43 1    
    38   33   44 1    
    39   34   35 1    
    40   34   67 1    
    41   35   36 2    
    42   35   37 1    
    43   37   38 2    
    44   37   42 1    
    45   38   39 1    
    46   38   45 1    
    47   39   40 2    
    48   39   46 1    
    49   40   41 1    
    50   40   50 1    
    51   41   42 2    
    52   41   47 1    
    53   42   48 1    
    54   50   51 2    
    55   50   52 2    
    56   50   53 1    
    57   53   54 1    
    58   53   60 1    
    59   53   61 1    
    60   54   55 2    
    61   54   59 1    
    62   55   56 1    
    63   55   62 1    
    64   56   57 2    
    65   56   63 1    
    66   57   58 1    
    67   57   64 1    
    68   58   59 2    
    69   58   65 1    
    70   59   66 1    
    71   67   68 1    
    72   67   76 2    
    73   68   69 1    
    74   68   70 2    
    75   70   71 1    
    76   70   72 1    
    77   72   73 1    
    78   72   74 2    
    79   74   75 1    
    80   74   76 1    
    81   76   77 1    
@<TRIPOS>SUBSTRUCTURE
     1 ****        1 TEMP              0 ****  ****    0 ROOT 
@<TRIPOS>SET
UNITY_3DHIT     STATIC     ATOMS    <user>   **** Atoms matching 3D or FLEX Search
0
@<TRIPOS>UNITY_ATOM_ATTR
5 1
AtomExpr +1
@<TRIPOS>UNITY_BOND_ATTR
26 1
S N
27 1
S I
31 1
S I
43 1
S N
47 1
S I
51 1
S I
60 1
S N
64 1
S I
68 1
S I
72 1
S N
74 1
S N
78 1
S N
