#	Name:			2-24
#	Creating user name:	jeff
#	Creation time:		Thu Dec 19 21:51:34 2002

#	Modifying user name:	jeff
#	Modification time:	Thu Dec 19 21:51:35 2002

@<TRIPOS>MOLECULE
2-24
   41    42     1     0     1
SMALL
USER_CHARGES
****
From 3DB ct
@<TRIPOS>ATOM
      1 C           5.174100   63.766600   67.229800 C.3       1 <1>        -0.407700 
      2 C           4.385500   65.095300   67.167900 C.3       1 <1>         0.285000 
      3 C           5.277000   66.262800   67.639800 C.3       1 <1>        -0.352600 
      4 C           4.585700   67.625300   67.481800 C.3       1 <1>         0.048700 
      5 N           4.192500   67.807300   66.080500 N.4       1 <1>        -0.218500 
      6 C           3.199600   66.822100   65.639200 C.3       1 <1>        -0.094400 
      7 C           3.822900   65.410200   65.756800 C.3       1 <1>        -0.258400 
      8 H           5.667900   63.680200   68.215300 H         1 <1>         0.172000 
      9 H           5.989300   63.796500   66.483700 H         1 <1>         0.122400 
     10 H           3.531000   65.041100   67.868900 H         1 <1>         0.056100 
     11 H           5.582400   66.119700   68.690600 H         1 <1>         0.170200 
     12 H           6.206800   66.271700   67.039800 H         1 <1>         0.129900 
     13 H           3.714500   67.700400   68.159000 H         1 <1>         0.151200 
     14 H           5.282900   68.421400   67.792300 H         1 <1>         0.120600 
     15 H           2.272700   66.889500   66.238400 H         1 <1>         0.179400 
     16 H           2.902800   66.996500   64.592800 H         1 <1>         0.151800 
     17 H           4.650400   65.344100   65.024700 H         1 <1>         0.128300 
     18 H           3.077700   64.657900   65.449200 H         1 <1>         0.163100 
     19 C           4.364000   62.488600   66.983100 C.3       1 <1>         0.018400 
     20 N           3.331000   62.280800   67.985900 N.am      1 <1>        -0.441600 
     21 C           3.506500   61.398700   69.054100 C.2       1 <1>         0.701800 
     22 O           4.500000   60.686800   69.164800 O.2       1 <1>        -0.596100 
     23 C           2.336000   61.261000   69.991000 C.2       1 <1>        -0.099600 
     24 C           2.181600   60.057400   70.705200 C.2       1 <1>        -0.146600 
     25 C           1.093700   59.881400   71.562700 C.2       1 <1>        -0.125700 
     26 C           0.145100   60.903000   71.721100 C.2       1 <1>        -0.097500 
     27 C           0.302700   62.103900   71.018200 C.2       1 <1>        -0.143200 
     28 C           1.393200   62.291300   70.161800 C.2       1 <1>        -0.181900 
     29 H           3.898000   62.510300   65.982400 H         1 <1>         0.075700 
     30 H           5.040000   61.617600   66.979500 H         1 <1>         0.122800 
     31 C           1.989700   62.513100   67.405300 C.3       1 <1>        -0.145600 
     32 H           2.920400   59.242700   70.579800 H         1 <1>         0.190400 
     33 H           0.979400   58.930100   72.117600 H         1 <1>         0.163400 
     34 H          -0.717000   60.761100   72.400200 H         1 <1>         0.158200 
     35 H          -0.438000   62.916400   71.149300 H         1 <1>         0.154700 
     36 H           1.504300   63.262000   69.646400 H         1 <1>         0.139400 
     37 H           4.917000   67.435200   65.697600 H         1 <1>         0.439400 
     38 H           1.241700   61.825300   67.817300 H         1 <1>         0.148500 
     39 H           1.668800   63.555500   67.548200 H         1 <1>         0.059300 
     40 H           1.967400   62.301600   66.322600 H         1 <1>         0.099800 
     41 H           4.023800   68.657100   65.836800 H         1 <1>         0.380400 
@<TRIPOS>BOND
     1    1    2 1    
     2    1    8 1    
     3    1    9 1    
     4    1   19 1    
     5    2    3 1    
     6    2    7 1    
     7    2   10 1    
     8    3    4 1    
     9    3   11 1    
    10    3   12 1    
    11    4    5 1    
    12    4   13 1    
    13    4   14 1    
    14    5    6 1    
    15    5   37 1    
    16    5   41 1    
    17    6    7 1    
    18    6   15 1    
    19    6   16 1    
    20    7   17 1    
    21    7   18 1    
    22   19   20 1    
    23   19   29 1    
    24   19   30 1    
    25   20   21 am   
    26   20   31 1    
    27   21   22 2    
    28   21   23 1    
    29   23   24 2    
    30   23   28 1    
    31   24   25 1    
    32   24   32 1    
    33   25   26 2    
    34   25   33 1    
    35   26   27 1    
    36   26   34 1    
    37   27   28 2    
    38   27   35 1    
    39   28   36 1    
    40   31   38 1    
    41   31   39 1    
    42   31   40 1    
@<TRIPOS>SUBSTRUCTURE
     1 ****        1 TEMP              0 ****  ****    0 ROOT 
@<TRIPOS>SET
UNITY_3DHIT     STATIC     ATOMS    <user>   **** Atoms matching 3D or FLEX Search
0
@<TRIPOS>UNITY_ATOM_ATTR
5 1
AtomExpr +1
@<TRIPOS>UNITY_BOND_ATTR
29 1
S N
33 1
S I
37 1
S I
