#	Name:			2-25
#	Creating user name:	jeff
#	Creation time:		Thu Dec 19 21:51:26 2002

#	Modifying user name:	jeff
#	Modification time:	Thu Dec 19 21:51:27 2002

@<TRIPOS>MOLECULE
2-25
   57    59     1     0     1
SMALL
USER_CHARGES
****
From 3DB ct
@<TRIPOS>ATOM
      1 C           5.174100   63.766600   67.229800 C.3       1 <1>        -0.386200 
      2 C           4.385500   65.095300   67.167900 C.3       1 <1>         0.226700 
      3 C           5.277000   66.262800   67.639800 C.3       1 <1>        -0.323200 
      4 C           4.585700   67.625300   67.481800 C.3       1 <1>        -0.099700 
      5 N           4.192500   67.807300   66.080500 N.4       1 <1>        -0.030000 
      6 C           3.199600   66.822100   65.639200 C.3       1 <1>        -0.256400 
      7 C           3.822900   65.410200   65.756800 C.3       1 <1>        -0.268700 
      8 C           4.330200   69.150900   65.515100 C.3       1 <1>        -0.458700 
      9 C           4.261200   69.199200   64.002100 C.2       1 <1>         0.031800 
     10 C           3.058300   69.612200   63.410300 C.2       1 <1>        -0.196200 
     11 C           2.913700   69.607300   62.021400 C.2       1 <1>        -0.122700 
     12 C           3.968500   69.192800   61.210100 C.2       1 <1>        -0.093000 
     13 C           5.169800   68.782800   61.785500 C.2       1 <1>        -0.186400 
     14 C           5.316600   68.786600   63.173700 C.2       1 <1>         0.058800 
     15 H           5.667900   63.680200   68.215300 H         1 <1>         0.159500 
     16 H           5.989300   63.796500   66.483700 H         1 <1>         0.128200 
     17 H           3.531000   65.041100   67.868900 H         1 <1>         0.081900 
     18 H           5.582400   66.119700   68.690600 H         1 <1>         0.174400 
     19 H           6.206800   66.271700   67.039800 H         1 <1>         0.112800 
     20 H           3.714500   67.700400   68.159000 H         1 <1>         0.188200 
     21 H           5.282900   68.421400   67.792300 H         1 <1>         0.164600 
     22 H           2.272700   66.889500   66.238400 H         1 <1>         0.234400 
     23 H           2.902800   66.996500   64.592800 H         1 <1>         0.192500 
     24 H           4.650400   65.344100   65.024700 H         1 <1>         0.123500 
     25 H           3.077700   64.657900   65.449200 H         1 <1>         0.183200 
     26 H           3.573700   69.840000   65.931700 H         1 <1>         0.261600 
     27 H           5.314300   69.545100   65.823400 H         1 <1>         0.236500 
     28 H           2.206200   69.931000   64.044400 H         1 <1>         0.176500 
     29 H           1.955500   69.924800   61.567900 H         1 <1>         0.185000 
     30 H           3.851200   69.184900   60.109400 H         1 <1>         0.190300 
     31 H           6.007200   68.444900   61.145300 H         1 <1>         0.204600 
     32 C           6.654300   68.321400   63.739200 C.3       1 <1>        -0.354100 
     33 C           4.364000   62.488600   66.983100 C.3       1 <1>         0.008600 
     34 N           3.331000   62.280800   67.985900 N.am      1 <1>        -0.458600 
     35 C           3.506500   61.398700   69.054100 C.2       1 <1>         0.729100 
     36 O           4.500000   60.686800   69.164800 O.2       1 <1>        -0.596400 
     37 C           2.336000   61.261000   69.991000 C.2       1 <1>        -0.127900 
     38 C           2.181600   60.057400   70.705200 C.2       1 <1>        -0.144300 
     39 C           1.093700   59.881400   71.562700 C.2       1 <1>        -0.127300 
     40 C           0.145100   60.903000   71.721100 C.2       1 <1>        -0.091600 
     41 C           0.302700   62.103900   71.018200 C.2       1 <1>        -0.140500 
     42 C           1.393200   62.291300   70.161800 C.2       1 <1>        -0.165300 
     43 H           3.898000   62.510300   65.982400 H         1 <1>         0.076500 
     44 H           5.040000   61.617600   66.979500 H         1 <1>         0.120600 
     45 C           1.989700   62.513100   67.405300 C.3       1 <1>        -0.116800 
     46 H           2.920400   59.242700   70.579800 H         1 <1>         0.187000 
     47 H           0.979400   58.930100   72.117600 H         1 <1>         0.160500 
     48 H          -0.717000   60.761100   72.400200 H         1 <1>         0.152300 
     49 H          -0.438000   62.916400   71.149300 H         1 <1>         0.151500 
     50 H           1.504300   63.262000   69.646400 H         1 <1>         0.140700 
     51 H           4.917000   67.435200   65.697600 H         1 <1>         0.493100 
     52 H           1.241700   61.825300   67.817300 H         1 <1>         0.135300 
     53 H           1.668800   63.555500   67.548200 H         1 <1>         0.055500 
     54 H           1.967400   62.301600   66.322600 H         1 <1>         0.092400 
     55 H           7.389700   68.188800   62.930600 H         1 <1>         0.159800 
     56 H           7.076300   69.056000   64.442100 H         1 <1>         0.105800 
     57 H           6.564500   67.356600   64.260900 H         1 <1>         0.081900 
@<TRIPOS>BOND
     1    1    2 1    
     2    1   15 1    
     3    1   16 1    
     4    1   33 1    
     5    2    3 1    
     6    2    7 1    
     7    2   17 1    
     8    3    4 1    
     9    3   18 1    
    10    3   19 1    
    11    4    5 1    
    12    4   20 1    
    13    4   21 1    
    14    5    6 1    
    15    5    8 1    
    16    5   51 1    
    17    6    7 1    
    18    6   22 1    
    19    6   23 1    
    20    7   24 1    
    21    7   25 1    
    22    8    9 1    
    23    8   26 1    
    24    8   27 1    
    25    9   10 1    
    26    9   14 2    
    27   10   11 2    
    28   10   28 1    
    29   11   12 1    
    30   11   29 1    
    31   12   13 2    
    32   12   30 1    
    33   13   14 1    
    34   13   31 1    
    35   14   32 1    
    36   32   55 1    
    37   32   56 1    
    38   32   57 1    
    39   33   34 1    
    40   33   43 1    
    41   33   44 1    
    42   34   35 am   
    43   34   45 1    
    44   35   36 2    
    45   35   37 1    
    46   37   38 2    
    47   37   42 1    
    48   38   39 1    
    49   38   46 1    
    50   39   40 2    
    51   39   47 1    
    52   40   41 1    
    53   40   48 1    
    54   41   42 2    
    55   41   49 1    
    56   42   50 1    
    57   45   52 1    
    58   45   53 1    
    59   45   54 1    
@<TRIPOS>SUBSTRUCTURE
     1 ****        1 TEMP              0 ****  ****    0 ROOT 
@<TRIPOS>SET
UNITY_3DHIT     STATIC     ATOMS    <user>   **** Atoms matching 3D or FLEX Search
0
@<TRIPOS>UNITY_ATOM_ATTR
5 1
AtomExpr +1
@<TRIPOS>UNITY_BOND_ATTR
26 1
S N
27 1
S I
31 1
S I
46 1
S N
50 1
S I
54 1
S I
