#	Name:			2-26
#	Creating user name:	jeff
#	Creation time:		Thu Dec 19 21:51:27 2002

#	Modifying user name:	jeff
#	Modification time:	Thu Dec 19 21:51:28 2002

@<TRIPOS>MOLECULE
2-26
   57    59     1     0     1
SMALL
USER_CHARGES
****
From 3DB ct
@<TRIPOS>ATOM
      1 C           5.174100   63.766600   67.229800 C.3       1 <1>        -0.374700 
      2 C           4.385500   65.095300   67.167900 C.3       1 <1>         0.231000 
      3 C           5.277000   66.262800   67.639800 C.3       1 <1>        -0.338200 
      4 C           4.585700   67.625300   67.481800 C.3       1 <1>        -0.103900 
      5 N           4.192500   67.807300   66.080500 N.4       1 <1>         0.138300 
      6 C           3.199600   66.822100   65.639200 C.3       1 <1>        -0.250600 
      7 C           3.822900   65.410200   65.756800 C.3       1 <1>        -0.267500 
      8 C           4.330200   69.150900   65.515100 C.3       1 <1>        -0.581800 
      9 C           4.261200   69.199200   64.002100 C.2       1 <1>         0.259100 
     10 C           3.058300   69.612200   63.410300 C.2       1 <1>        -0.276500 
     11 C           2.913700   69.607300   62.021400 C.2       1 <1>        -0.082300 
     12 C           3.968500   69.192800   61.210100 C.2       1 <1>        -0.231700 
     13 C           5.169800   68.782800   61.785500 C.2       1 <1>         0.286500 
     14 C           5.316600   68.786600   63.173700 C.2       1 <1>        -0.482600 
     15 H           5.667900   63.680200   68.215300 H         1 <1>         0.153900 
     16 H           5.989300   63.796500   66.483700 H         1 <1>         0.126600 
     17 H           3.531000   65.041100   67.868900 H         1 <1>         0.077700 
     18 H           5.582400   66.119700   68.690600 H         1 <1>         0.177700 
     19 H           6.206800   66.271700   67.039800 H         1 <1>         0.113000 
     20 H           3.714500   67.700400   68.159000 H         1 <1>         0.178600 
     21 H           5.282900   68.421400   67.792300 H         1 <1>         0.158900 
     22 H           2.272700   66.889500   66.238400 H         1 <1>         0.215300 
     23 H           2.902800   66.996500   64.592800 H         1 <1>         0.183200 
     24 H           4.650400   65.344100   65.024700 H         1 <1>         0.117600 
     25 H           3.077700   64.657900   65.449200 H         1 <1>         0.184300 
     26 H           3.573700   69.840000   65.931700 H         1 <1>         0.271800 
     27 H           5.314300   69.545100   65.823400 H         1 <1>         0.246000 
     28 H           2.206200   69.931000   64.044400 H         1 <1>         0.192700 
     29 H           1.955500   69.924800   61.567900 H         1 <1>         0.186300 
     30 H           3.851200   69.184900   60.109400 H         1 <1>         0.220600 
     31 C           6.319000   68.336300   60.897200 C.3       1 <1>        -0.338900 
     32 H           6.268100   68.442500   63.627900 H         1 <1>         0.232000 
     33 C           4.364000   62.488600   66.983100 C.3       1 <1>         0.005500 
     34 N           3.331000   62.280800   67.985900 N.am      1 <1>        -0.420800 
     35 C           3.506500   61.398700   69.054100 C.2       1 <1>         0.687800 
     36 O           4.500000   60.686800   69.164800 O.2       1 <1>        -0.589200 
     37 C           2.336000   61.261000   69.991000 C.2       1 <1>        -0.093100 
     38 C           2.181600   60.057400   70.705200 C.2       1 <1>        -0.160700 
     39 C           1.093700   59.881400   71.562700 C.2       1 <1>        -0.114600 
     40 C           0.145100   60.903000   71.721100 C.2       1 <1>        -0.107000 
     41 C           0.302700   62.103900   71.018200 C.2       1 <1>        -0.142100 
     42 C           1.393200   62.291300   70.161800 C.2       1 <1>        -0.172400 
     43 H           3.898000   62.510300   65.982400 H         1 <1>         0.070500 
     44 H           5.040000   61.617600   66.979500 H         1 <1>         0.120400 
     45 C           1.988800   62.551400   67.427100 C.3       1 <1>        -0.151300 
     46 H           2.920400   59.242700   70.579800 H         1 <1>         0.192300 
     47 H           0.979400   58.930100   72.117600 H         1 <1>         0.159900 
     48 H          -0.717000   60.761100   72.400200 H         1 <1>         0.158200 
     49 H          -0.438000   62.916400   71.149300 H         1 <1>         0.153800 
     50 H           1.526000   63.290000   69.714500 H         1 <1>         0.139200 
     51 H           4.917000   67.435200   65.697600 H         1 <1>         0.425900 
     52 H           1.240800   61.846100   67.809400 H         1 <1>         0.145700 
     53 H           1.673000   63.586400   67.623700 H         1 <1>         0.054600 
     54 H           1.960600   62.397200   66.335400 H         1 <1>         0.101300 
     55 H           7.266600   68.306800   61.453400 H         1 <1>         0.107500 
     56 H           6.131900   67.330100   60.488100 H         1 <1>         0.109600 
     57 H           6.444900   69.024500   60.046600 H         1 <1>         0.118300 
@<TRIPOS>BOND
     1    1    2 1    
     2    1   15 1    
     3    1   16 1    
     4    1   33 1    
     5    2    3 1    
     6    2    7 1    
     7    2   17 1    
     8    3    4 1    
     9    3   18 1    
    10    3   19 1    
    11    4    5 1    
    12    4   20 1    
    13    4   21 1    
    14    5    6 1    
    15    5    8 1    
    16    5   51 1    
    17    6    7 1    
    18    6   22 1    
    19    6   23 1    
    20    7   24 1    
    21    7   25 1    
    22    8    9 1    
    23    8   26 1    
    24    8   27 1    
    25    9   10 1    
    26    9   14 2    
    27   10   11 2    
    28   10   28 1    
    29   11   12 1    
    30   11   29 1    
    31   12   13 2    
    32   12   30 1    
    33   13   14 1    
    34   13   31 1    
    35   14   32 1    
    36   31   55 1    
    37   31   56 1    
    38   31   57 1    
    39   33   34 1    
    40   33   43 1    
    41   33   44 1    
    42   34   35 am   
    43   34   45 1    
    44   35   36 2    
    45   35   37 1    
    46   37   38 2    
    47   37   42 1    
    48   38   39 1    
    49   38   46 1    
    50   39   40 2    
    51   39   47 1    
    52   40   41 1    
    53   40   48 1    
    54   41   42 2    
    55   41   49 1    
    56   42   50 1    
    57   45   52 1    
    58   45   53 1    
    59   45   54 1    
@<TRIPOS>SUBSTRUCTURE
     1 ****        1 TEMP              0 ****  ****    0 ROOT 
@<TRIPOS>SET
UNITY_3DHIT     STATIC     ATOMS    <user>   **** Atoms matching 3D or FLEX Search
0
@<TRIPOS>UNITY_ATOM_ATTR
5 1
AtomExpr +1
@<TRIPOS>UNITY_BOND_ATTR
26 1
S N
27 1
S I
31 1
S I
46 1
S N
50 1
S I
54 1
S I
