#	Name:			2-29
#	Creating user name:	jeff
#	Creation time:		Thu Dec 19 21:51:30 2002

#	Modifying user name:	jeff
#	Modification time:	Thu Dec 19 21:51:31 2002

@<TRIPOS>MOLECULE
2-29
   56    58     1     0     1
SMALL
USER_CHARGES
****
From 3DB ct
@<TRIPOS>ATOM
      1 C           5.174100   63.766600   67.229800 C.3       1 <1>        -0.395500 
      2 C           4.385500   65.095300   67.167900 C.3       1 <1>         0.259500 
      3 C           5.277000   66.262800   67.639800 C.3       1 <1>        -0.351600 
      4 C           4.585700   67.625300   67.481800 C.3       1 <1>        -0.072100 
      5 N           4.192500   67.807300   66.080500 N.4       1 <1>         0.139300 
      6 C           3.199600   66.822100   65.639200 C.3       1 <1>        -0.212100 
      7 C           3.822900   65.410200   65.756800 C.3       1 <1>        -0.272100 
      8 C           4.330200   69.150900   65.515100 C.3       1 <1>        -0.639200 
      9 C           4.261200   69.199200   64.002100 C.2       1 <1>         0.303100 
     10 C           3.058300   69.612200   63.410300 C.2       1 <1>        -0.245700 
     11 C           2.913700   69.607300   62.021400 C.2       1 <1>        -0.056600 
     12 C           3.968500   69.192800   61.210100 C.2       1 <1>        -0.180500 
     13 C           5.169800   68.782800   61.785500 C.2       1 <1>         0.156300 
     14 C           5.316600   68.786600   63.173700 C.2       1 <1>        -0.417800 
     15 H           5.667900   63.680200   68.215300 H         1 <1>         0.163400 
     16 H           5.989300   63.796500   66.483700 H         1 <1>         0.128500 
     17 H           3.531000   65.041100   67.868900 H         1 <1>         0.064300 
     18 H           5.582400   66.119700   68.690600 H         1 <1>         0.183200 
     19 H           6.206800   66.271700   67.039800 H         1 <1>         0.118100 
     20 H           3.714500   67.700400   68.159000 H         1 <1>         0.171100 
     21 H           5.282900   68.421400   67.792300 H         1 <1>         0.153600 
     22 H           2.272700   66.889500   66.238400 H         1 <1>         0.204800 
     23 H           2.902800   66.996500   64.592800 H         1 <1>         0.166800 
     24 H           4.650400   65.344100   65.024700 H         1 <1>         0.118300 
     25 H           3.077700   64.657900   65.449200 H         1 <1>         0.182300 
     26 H           3.573700   69.840000   65.931700 H         1 <1>         0.288000 
     27 H           5.314300   69.545100   65.823400 H         1 <1>         0.266800 
     28 H           2.206200   69.931000   64.044400 H         1 <1>         0.211000 
     29 H           1.955500   69.924800   61.567900 H         1 <1>         0.198100 
     30 H           3.851200   69.184900   60.109400 H         1 <1>         0.265800 
     31 C           4.364000   62.488600   66.983100 C.3       1 <1>         0.016700 
     32 N           3.331000   62.280800   67.985900 N.am      1 <1>        -0.449200 
     33 C           3.506500   61.398700   69.054100 C.2       1 <1>         0.717800 
     34 O           4.500000   60.686800   69.164800 O.2       1 <1>        -0.592600 
     35 C           2.336000   61.261000   69.991000 C.2       1 <1>        -0.126000 
     36 C           2.181600   60.057400   70.705200 C.2       1 <1>        -0.142300 
     37 C           1.093700   59.881400   71.562700 C.2       1 <1>        -0.132400 
     38 C           0.145100   60.903000   71.721100 C.2       1 <1>        -0.087700 
     39 C           0.302700   62.103900   71.018200 C.2       1 <1>        -0.139700 
     40 C           1.393200   62.291300   70.161800 C.2       1 <1>        -0.175300 
     41 H           3.898000   62.510300   65.982400 H         1 <1>         0.074600 
     42 H           5.040000   61.617600   66.979500 H         1 <1>         0.119900 
     43 C           1.989700   62.513100   67.405300 C.3       1 <1>        -0.143700 
     44 H           2.920400   59.242700   70.579800 H         1 <1>         0.186300 
     45 H           0.979400   58.930100   72.117600 H         1 <1>         0.163000 
     46 H          -0.717000   60.761100   72.400200 H         1 <1>         0.153200 
     47 H          -0.438000   62.916400   71.149300 H         1 <1>         0.152300 
     48 H           1.504300   63.262000   69.646400 H         1 <1>         0.146900 
     49 H           4.917000   67.435200   65.697600 H         1 <1>         0.417800 
     50 H           1.241700   61.825300   67.817300 H         1 <1>         0.141600 
     51 H           1.668800   63.555500   67.548200 H         1 <1>         0.064900 
     52 H           1.967400   62.301600   66.322600 H         1 <1>         0.099500 
     53 H           6.139600   68.506700   63.556800 H         1 <1>         0.279400 
     54 N           6.287200   68.307200   60.935400 N.2       1 <1>         0.761800 
     55 O           7.304400   67.936100   61.497000 O.2       1 <1>        -0.521000 
     56 O           6.125300   68.304800   59.728900 O.3       1 <1>        -0.462700 
@<TRIPOS>BOND
     1    1    2 1    
     2    1   15 1    
     3    1   16 1    
     4    1   31 1    
     5    2    3 1    
     6    2    7 1    
     7    2   17 1    
     8    3    4 1    
     9    3   18 1    
    10    3   19 1    
    11    4    5 1    
    12    4   20 1    
    13    4   21 1    
    14    5    6 1    
    15    5    8 1    
    16    5   49 1    
    17    6    7 1    
    18    6   22 1    
    19    6   23 1    
    20    7   24 1    
    21    7   25 1    
    22    8    9 1    
    23    8   26 1    
    24    8   27 1    
    25    9   10 1    
    26    9   14 2    
    27   10   11 2    
    28   10   28 1    
    29   11   12 1    
    30   11   29 1    
    31   12   13 2    
    32   12   30 1    
    33   13   14 1    
    34   13   54 1    
    35   14   53 1    
    36   31   32 1    
    37   31   41 1    
    38   31   42 1    
    39   32   33 am   
    40   32   43 1    
    41   33   34 2    
    42   33   35 1    
    43   35   36 2    
    44   35   40 1    
    45   36   37 1    
    46   36   44 1    
    47   37   38 2    
    48   37   45 1    
    49   38   39 1    
    50   38   46 1    
    51   39   40 2    
    52   39   47 1    
    53   40   48 1    
    54   43   50 1    
    55   43   51 1    
    56   43   52 1    
    57   54   55 2    
    58   54   56 1    
@<TRIPOS>SUBSTRUCTURE
     1 ****        1 TEMP              0 ****  ****    0 ROOT 
@<TRIPOS>SET
UNITY_3DHIT     STATIC     ATOMS    <user>   **** Atoms matching 3D or FLEX Search
0
@<TRIPOS>UNITY_ATOM_ATTR
5 1
AtomExpr +1
54 1
AtomExpr +1
56 1
AtomExpr -1
@<TRIPOS>UNITY_BOND_ATTR
26 1
S N
27 1
S I
31 1
S I
43 1
S N
47 1
S I
51 1
S I
