#	Name:			2-31
#	Creating user name:	jeff
#	Creation time:		Thu Dec 19 21:51:32 2002

#	Modifying user name:	jeff
#	Modification time:	Thu Dec 19 21:51:32 2002

@<TRIPOS>MOLECULE
2-31
   57    59     1     0     1
SMALL
USER_CHARGES
****
From 3DB ct
@<TRIPOS>ATOM
      1 C           5.174100   63.766600   67.229800 C.3       1 <1>        -0.405700 
      2 C           4.385500   65.095300   67.167900 C.3       1 <1>         0.264000 
      3 C           5.277000   66.262800   67.639800 C.3       1 <1>        -0.375300 
      4 C           4.585700   67.625300   67.481800 C.3       1 <1>        -0.064300 
      5 N           4.192500   67.807300   66.080500 N.4       1 <1>        -0.122100 
      6 C           3.199600   66.822100   65.639200 C.3       1 <1>        -0.274400 
      7 C           3.822900   65.410200   65.756800 C.3       1 <1>        -0.196600 
      8 C           3.922800   69.253300   65.604300 C.3       1 <1>         0.104700 
      9 C           4.391200   69.809200   62.862100 C.2       1 <1>         0.016000 
     10 C           3.188300   70.222200   62.270300 C.2       1 <1>        -0.230800 
     11 C           3.043700   70.217300   60.881400 C.2       1 <1>        -0.109300 
     12 C           4.098500   69.802800   60.070100 C.2       1 <1>        -0.103100 
     13 C           5.299800   69.392800   60.645500 C.2       1 <1>        -0.126600 
     14 C           5.446600   69.396600   62.033700 C.2       1 <1>        -0.222200 
     15 H           5.667900   63.680200   68.215300 H         1 <1>         0.169600 
     16 H           5.989300   63.796500   66.483700 H         1 <1>         0.132000 
     17 H           3.531000   65.041100   67.868900 H         1 <1>         0.074200 
     18 H           5.582400   66.119700   68.690600 H         1 <1>         0.187000 
     19 H           6.206800   66.271700   67.039800 H         1 <1>         0.119400 
     20 H           3.714500   67.700400   68.159000 H         1 <1>         0.173900 
     21 H           5.282900   68.421400   67.792300 H         1 <1>         0.165400 
     22 H           2.272700   66.889500   66.238400 H         1 <1>         0.211800 
     23 H           2.902800   66.996500   64.592800 H         1 <1>         0.200000 
     24 H           4.650400   65.344100   65.024700 H         1 <1>         0.093000 
     25 H           3.077700   64.657900   65.449200 H         1 <1>         0.164000 
     26 H           2.821600   69.336900   65.566700 H         1 <1>         0.116300 
     27 H           4.247500   69.890900   66.453700 H         1 <1>         0.098000 
     28 H           2.336200   70.541000   62.904400 H         1 <1>         0.191100 
     29 H           2.085500   70.534800   60.427900 H         1 <1>         0.171600 
     30 H           3.981200   69.794900   58.969400 H         1 <1>         0.174300 
     31 H           6.137200   69.054900   60.005300 H         1 <1>         0.174800 
     32 C           4.364000   62.488600   66.983100 C.3       1 <1>        -0.010200 
     33 N           3.331000   62.280800   67.985900 N.am      1 <1>        -0.449300 
     34 C           3.506500   61.398700   69.054100 C.2       1 <1>         0.740000 
     35 O           4.500000   60.686800   69.164800 O.2       1 <1>        -0.601500 
     36 C           2.336000   61.261000   69.991000 C.2       1 <1>        -0.141400 
     37 C           2.181600   60.057400   70.705200 C.2       1 <1>        -0.135000 
     38 C           1.093700   59.881400   71.562700 C.2       1 <1>        -0.123100 
     39 C           0.145100   60.903000   71.721100 C.2       1 <1>        -0.102000 
     40 C           0.302700   62.103900   71.018200 C.2       1 <1>        -0.133500 
     41 C           1.393200   62.291300   70.161800 C.2       1 <1>        -0.173000 
     42 H           3.898000   62.510300   65.982400 H         1 <1>         0.085200 
     43 H           5.040000   61.617600   66.979500 H         1 <1>         0.126100 
     44 C           1.989700   62.513100   67.405300 C.3       1 <1>        -0.180600 
     45 H           2.920400   59.242700   70.579800 H         1 <1>         0.184500 
     46 H           0.979400   58.930100   72.117600 H         1 <1>         0.160300 
     47 H          -0.717000   60.761100   72.400200 H         1 <1>         0.156600 
     48 H          -0.438000   62.916400   71.149300 H         1 <1>         0.152100 
     49 H           1.504300   63.262000   69.646400 H         1 <1>         0.143400 
     50 H           4.917000   67.435200   65.697600 H         1 <1>         0.480600 
     51 H           1.241700   61.825300   67.817300 H         1 <1>         0.150900 
     52 H           1.668800   63.555500   67.548200 H         1 <1>         0.079100 
     53 H           1.967400   62.301600   66.322600 H         1 <1>         0.109600 
     54 H           6.269600   69.116700   62.416800 H         1 <1>         0.159800 
     55 C           4.630300   69.922600   64.381700 C.3       1 <1>        -0.331700 
     56 H           4.431200   70.985100   64.625500 H         1 <1>         0.183400 
     57 H           5.719900   69.833600   64.545100 H         1 <1>         0.120900 
@<TRIPOS>BOND
     1    2    1 1    
     2    1   15 1    
     3    1   16 1    
     4    1   32 1    
     5    3    2 1    
     6    7    2 1    
     7    2   17 1    
     8    4    3 1    
     9    3   18 1    
    10    3   19 1    
    11    5    4 1    
    12    4   20 1    
    13    4   21 1    
    14    5    6 1    
    15    8    5 1    
    16    5   50 1    
    17    6    7 1    
    18    6   22 1    
    19    6   23 1    
    20    7   24 1    
    21    7   25 1    
    22    8   26 1    
    23    8   27 1    
    24   55    8 1    
    25    9   10 1    
    26    9   14 2    
    27    9   55 1    
    28   10   11 2    
    29   10   28 1    
    30   11   12 1    
    31   11   29 1    
    32   12   13 2    
    33   12   30 1    
    34   13   14 1    
    35   13   31 1    
    36   14   54 1    
    37   32   33 1    
    38   32   42 1    
    39   32   43 1    
    40   33   34 am   
    41   33   44 1    
    42   34   35 2    
    43   34   36 1    
    44   36   37 2    
    45   36   41 1    
    46   37   38 1    
    47   37   45 1    
    48   38   39 2    
    49   38   46 1    
    50   39   40 1    
    51   39   47 1    
    52   40   41 2    
    53   40   48 1    
    54   41   49 1    
    55   44   51 1    
    56   44   52 1    
    57   44   53 1    
    58   55   56 1    
    59   55   57 1    
@<TRIPOS>SUBSTRUCTURE
     1 ****        9 TEMP              0 ****  ****    0 ROOT 
@<TRIPOS>SET
UNITY_3DHIT     STATIC     ATOMS    <user>   **** Atoms matching 3D or FLEX Search
0
@<TRIPOS>UNITY_ATOM_ATTR
5 1
AtomExpr +1
@<TRIPOS>UNITY_BOND_ATTR
26 1
S I
28 1
S I
32 1
S I
44 1
S N
48 1
S I
52 1
S I
