#	Name:			2-32
#	Creating user name:	jeff
#	Creation time:		Thu Dec 19 21:51:32 2002

#	Modifying user name:	jeff
#	Modification time:	Thu Dec 19 21:51:33 2002

@<TRIPOS>MOLECULE
2-32
   58    60     1     0     1
SMALL
USER_CHARGES
****
From 3DB ct
@<TRIPOS>ATOM
      1 C           5.174100   63.766600   67.229800 C.3       1 <1>        -0.377000 
      2 C           4.385500   65.095300   67.167900 C.3       1 <1>         0.237400 
      3 C           5.277000   66.262800   67.639800 C.3       1 <1>        -0.300600 
      4 C           4.585700   67.625300   67.481800 C.3       1 <1>        -0.109200 
      5 N           4.192500   67.807300   66.080500 N.4       1 <1>        -0.070800 
      6 C           3.199600   66.822100   65.639200 C.3       1 <1>        -0.155500 
      7 C           3.822900   65.410200   65.756800 C.3       1 <1>        -0.307200 
      8 C           3.716800   69.523400   64.265700 C.2       1 <1>        -0.221000 
      9 C           4.511900   70.056000   61.985100 C.2       1 <1>        -0.062300 
     10 C           3.383200   70.716800   61.477700 C.2       1 <1>        -0.061400 
     11 C           3.221500   70.836300   60.092600 C.2       1 <1>        -0.199700 
     12 C           4.179000   70.303000   59.218200 C.2       1 <1>        -0.041200 
     13 C           5.308800   69.653600   59.734100 C.2       1 <1>        -0.154300 
     14 C           5.479100   69.531200   61.118000 C.2       1 <1>        -0.147100 
     15 H           5.667900   63.680200   68.215300 H         1 <1>         0.155400 
     16 H           5.989300   63.796500   66.483700 H         1 <1>         0.123500 
     17 H           3.531000   65.041100   67.868900 H         1 <1>         0.078200 
     18 H           5.582400   66.119700   68.690600 H         1 <1>         0.167800 
     19 H           6.206800   66.271700   67.039800 H         1 <1>         0.109400 
     20 H           3.714500   67.700400   68.159000 H         1 <1>         0.183000 
     21 H           5.282900   68.421400   67.792300 H         1 <1>         0.166000 
     22 H           2.272700   66.889500   66.238400 H         1 <1>         0.213200 
     23 H           2.902800   66.996500   64.592800 H         1 <1>         0.165600 
     24 H           4.650400   65.344100   65.024700 H         1 <1>         0.130000 
     25 H           3.077700   64.657900   65.449200 H         1 <1>         0.185200 
     26 H           2.721800   69.338100   63.811900 H         1 <1>         0.165700 
     27 H           2.633400   71.153800   62.161600 H         1 <1>         0.138600 
     28 H           2.337500   71.360700   59.679500 H         1 <1>         0.179600 
     29 H           4.047200   70.403000   58.123300 H         1 <1>         0.157800 
     30 H           6.068500   69.241900   59.041100 H         1 <1>         0.169100 
     31 C           4.364000   62.488600   66.983100 C.3       1 <1>         0.008400 
     32 N           3.331000   62.280800   67.985900 N.am      1 <1>        -0.458300 
     33 C           3.506500   61.398700   69.054100 C.2       1 <1>         0.724300 
     34 O           4.500000   60.686800   69.164800 O.2       1 <1>        -0.593300 
     35 C           2.336000   61.261000   69.991000 C.2       1 <1>        -0.146400 
     36 C           2.181600   60.057400   70.705200 C.2       1 <1>        -0.136300 
     37 C           1.093700   59.881400   71.562700 C.2       1 <1>        -0.130800 
     38 C           0.145100   60.903000   71.721100 C.2       1 <1>        -0.087400 
     39 C           0.302700   62.103900   71.018200 C.2       1 <1>        -0.150700 
     40 C           1.393200   62.291300   70.161800 C.2       1 <1>        -0.154100 
     41 H           3.898000   62.510300   65.982400 H         1 <1>         0.077100 
     42 H           5.040000   61.617600   66.979500 H         1 <1>         0.119300 
     43 C           1.989700   62.513100   67.405300 C.3       1 <1>        -0.108400 
     44 H           2.920400   59.242700   70.579800 H         1 <1>         0.187000 
     45 H           0.979400   58.930100   72.117600 H         1 <1>         0.161700 
     46 H          -0.717000   60.761100   72.400200 H         1 <1>         0.152800 
     47 H          -0.438000   62.916400   71.149300 H         1 <1>         0.154600 
     48 H           1.504300   63.262000   69.646400 H         1 <1>         0.140500 
     49 H           1.241700   61.825300   67.817300 H         1 <1>         0.138200 
     50 H           1.668800   63.555500   67.548200 H         1 <1>         0.046900 
     51 H           1.967400   62.301600   66.322600 H         1 <1>         0.093700 
     52 H           6.369600   69.016700   61.523800 H         1 <1>         0.154500 
     53 C           4.721900   69.901300   63.444200 C.2       1 <1>        -0.083200 
     54 H           5.744100   70.068500   63.831600 H         1 <1>         0.197800 
     55 C           3.831700   69.249200   65.724000 C.3       1 <1>        -0.280900 
     56 H           4.933200   67.619300   65.605100 H         1 <1>         0.460500 
     57 H           2.896800   69.483600   66.251200 H         1 <1>         0.225200 
     58 H           4.627800   69.872500   66.155700 H         1 <1>         0.191000 
@<TRIPOS>BOND
     1    2    1 1    
     2    1   15 1    
     3    1   16 1    
     4    1   31 1    
     5    3    2 1    
     6    7    2 1    
     7    2   17 1    
     8    4    3 1    
     9    3   18 1    
    10    3   19 1    
    11    5    4 1    
    12    4   20 1    
    13    4   21 1    
    14    5    6 1    
    15   55    5 1    
    16    5   56 1    
    17    6    7 1    
    18    6   22 1    
    19    6   23 1    
    20    7   24 1    
    21    7   25 1    
    22    8   26 1    
    23   53    8 2    
    24    8   55 1    
    25    9   10 1    
    26    9   14 2    
    27    9   53 1    
    28   10   11 2    
    29   10   27 1    
    30   11   12 1    
    31   11   28 1    
    32   12   13 2    
    33   12   29 1    
    34   13   14 1    
    35   13   30 1    
    36   14   52 1    
    37   31   32 1    
    38   31   41 1    
    39   31   42 1    
    40   32   33 am   
    41   32   43 1    
    42   33   34 2    
    43   33   35 1    
    44   35   36 2    
    45   35   40 1    
    46   36   37 1    
    47   36   44 1    
    48   37   38 2    
    49   37   45 1    
    50   38   39 1    
    51   38   46 1    
    52   39   40 2    
    53   39   47 1    
    54   40   48 1    
    55   43   49 1    
    56   43   50 1    
    57   43   51 1    
    58   53   54 1    
    59   55   57 1    
    60   55   58 1    
@<TRIPOS>SUBSTRUCTURE
     1 ****        9 TEMP              0 ****  ****    0 ROOT 
@<TRIPOS>SET
UNITY_3DHIT     STATIC     ATOMS    <user>   **** Atoms matching 3D or FLEX Search
0
@<TRIPOS>UNITY_ATOM_ATTR
5 1
AtomExpr +1
@<TRIPOS>UNITY_BOND_ATTR
23 1
S I
26 1
S N
28 1
S N
32 1
S N
44 1
S I
48 1
S N
52 1
S I
