#	Name:			2-33
#	Creating user name:	jeff
#	Creation time:		Thu Dec 19 21:51:33 2002

#	Modifying user name:	jeff
#	Modification time:	Thu Dec 19 21:51:34 2002

@<TRIPOS>MOLECULE
2-33
   52    54     1     0     1
SMALL
USER_CHARGES
****
From 3DB ct
@<TRIPOS>ATOM
      1 C           5.174100   63.766600   67.229800 C.3       1 <1>        -0.464300 
      2 C           4.385500   65.095300   67.167900 C.3       1 <1>         0.236500 
      3 C           5.277000   66.262800   67.639800 C.3       1 <1>        -0.173000 
      4 C           4.585700   67.625300   67.481800 C.3       1 <1>         0.076500 
      5 N           4.192500   67.807300   66.080500 N.am      1 <1>        -0.490000 
      6 C           3.199600   66.822100   65.639200 C.3       1 <1>        -0.068900 
      7 C           3.822900   65.410200   65.756800 C.3       1 <1>        -0.003700 
      8 C           4.564000   69.000800   65.457500 C.2       1 <1>         0.718600 
      9 C           4.098800   69.335700   64.059800 C.2       1 <1>        -0.058600 
     10 C           2.746600   69.361900   63.692800 C.2       1 <1>        -0.171300 
     11 C           2.386300   69.712900   62.384400 C.2       1 <1>        -0.133900 
     12 C           3.366100   70.066100   61.446800 C.2       1 <1>        -0.121400 
     13 C           4.717800   70.075000   61.826700 C.2       1 <1>        -0.124800 
     14 C           5.082900   69.719600   63.127900 C.2       1 <1>        -0.184000 
     15 H           5.667900   63.680200   68.215300 H         1 <1>         0.150800 
     16 H           5.989300   63.796500   66.483700 H         1 <1>         0.124600 
     17 H           3.531000   65.041100   67.868900 H         1 <1>         0.058400 
     18 H           5.582400   66.119700   68.690600 H         1 <1>         0.042500 
     19 H           6.206800   66.271700   67.039800 H         1 <1>         0.072300 
     20 H           3.714500   67.700400   68.159000 H         1 <1>         0.016600 
     21 H           5.282900   68.421400   67.792300 H         1 <1>         0.106600 
     22 H           2.272700   66.889500   66.238400 H         1 <1>         0.063700 
     23 H           2.902800   66.996500   64.592800 H         1 <1>         0.100900 
     24 H           4.650400   65.344100   65.024700 H         1 <1>         0.041700 
     25 H           3.077700   64.657900   65.449200 H         1 <1>         0.021300 
     26 O           5.236200   69.872300   65.997800 O.2       1 <1>        -0.624200 
     27 H           1.962500   69.122200   64.434100 H         1 <1>         0.155200 
     28 H           1.318100   69.715800   62.096000 H         1 <1>         0.146700 
     29 H           5.496200   70.366700   61.095900 H         1 <1>         0.143900 
     30 C           4.364000   62.488600   66.983100 C.3       1 <1>         0.088100 
     31 N           3.331000   62.280800   67.985900 N.am      1 <1>        -0.499600 
     32 C           3.506500   61.398700   69.054100 C.2       1 <1>         0.725300 
     33 O           4.500000   60.686800   69.164800 O.2       1 <1>        -0.609900 
     34 C           2.336000   61.261000   69.991000 C.2       1 <1>        -0.083800 
     35 C           2.181600   60.057400   70.705200 C.2       1 <1>        -0.164800 
     36 C           1.093700   59.881400   71.562700 C.2       1 <1>        -0.128300 
     37 C           0.145100   60.903000   71.721100 C.2       1 <1>        -0.120400 
     38 C           0.302700   62.103900   71.018200 C.2       1 <1>        -0.156600 
     39 C           1.393200   62.291300   70.161800 C.2       1 <1>        -0.130000 
     40 H           3.898000   62.510300   65.982400 H         1 <1>         0.058900 
     41 H           5.040000   61.617600   66.979500 H         1 <1>         0.090600 
     42 C           1.989700   62.513100   67.405300 C.3       1 <1>        -0.150000 
     43 H           2.920400   59.242700   70.579800 H         1 <1>         0.184500 
     44 H           0.979400   58.930100   72.117600 H         1 <1>         0.146500 
     45 H          -0.717000   60.761100   72.400200 H         1 <1>         0.145700 
     46 H          -0.438000   62.916400   71.149300 H         1 <1>         0.152600 
     47 H           1.504300   63.262000   69.646400 H         1 <1>         0.146300 
     48 H           1.241700   61.825300   67.817300 H         1 <1>         0.121000 
     49 H           1.668800   63.555500   67.548200 H         1 <1>         0.080700 
     50 H           1.967400   62.301600   66.322600 H         1 <1>         0.109600 
     51 H           6.147300   69.729000   63.430800 H         1 <1>         0.193400 
     52 H           3.076600   70.347600   60.416600 H         1 <1>         0.141500 
@<TRIPOS>BOND
     1    1    2 1    
     2    1   15 1    
     3    1   16 1    
     4    1   30 1    
     5    2    3 1    
     6    2    7 1    
     7    2   17 1    
     8    3    4 1    
     9    3   18 1    
    10    3   19 1    
    11    4    5 1    
    12    4   20 1    
    13    4   21 1    
    14    5    6 1    
    15    5    8 am   
    16    6    7 1    
    17    6   22 1    
    18    6   23 1    
    19    7   24 1    
    20    7   25 1    
    21    8    9 1    
    22    8   26 2    
    23    9   10 1    
    24    9   14 2    
    25   10   11 2    
    26   10   27 1    
    27   11   12 1    
    28   11   28 1    
    29   12   13 2    
    30   12   52 1    
    31   13   14 1    
    32   13   29 1    
    33   14   51 1    
    34   30   31 1    
    35   30   40 1    
    36   30   41 1    
    37   31   32 am   
    38   31   42 1    
    39   32   33 2    
    40   32   34 1    
    41   34   35 2    
    42   34   39 1    
    43   35   36 1    
    44   35   43 1    
    45   36   37 2    
    46   36   44 1    
    47   37   38 1    
    48   37   45 1    
    49   38   39 2    
    50   38   46 1    
    51   39   47 1    
    52   42   48 1    
    53   42   49 1    
    54   42   50 1    
@<TRIPOS>SUBSTRUCTURE
     1 ****        1 TEMP              0 ****  ****    0 ROOT 
@<TRIPOS>SET
UNITY_3DHIT     STATIC     ATOMS    <user>   **** Atoms matching 3D or FLEX Search
0
@<TRIPOS>UNITY_BOND_ATTR
24 1
S N
25 1
S I
29 1
S I
41 1
S N
45 1
S I
49 1
S I
