#	Name:			2-34
#	Creating user name:	jeff
#	Creation time:		Thu Dec 19 21:51:35 2002

#	Modifying user name:	jeff
#	Modification time:	Thu Dec 19 21:51:36 2002

@<TRIPOS>MOLECULE
2-34
   51    53     1     0     1
SMALL
USER_CHARGES
****
From 3DB ct
@<TRIPOS>ATOM
      1 C           5.174100   63.766600   67.229800 C.3       1 <1>        -0.384300 
      2 C           4.385500   65.095300   67.167900 C.3       1 <1>         0.246700 
      3 C           5.277000   66.262800   67.639800 C.3       1 <1>        -0.321900 
      4 C           4.585700   67.625300   67.481800 C.3       1 <1>        -0.112200 
      5 N           4.192500   67.807300   66.080500 N.4       1 <1>         0.093600 
      6 C           3.199600   66.822100   65.639200 C.3       1 <1>        -0.336900 
      7 C           3.822900   65.410200   65.756800 C.3       1 <1>        -0.278300 
      8 C           4.330200   69.150900   65.515100 C.3       1 <1>        -0.277900 
      9 C           4.261200   69.199200   64.002100 C.3       1 <1>        -0.245900 
     10 C           3.408900   68.938300   62.786800 C.3       1 <1>        -0.146600 
     11 C           4.892100   68.612800   62.767900 C.3       1 <1>        -0.364500 
     12 H           5.667900   63.680200   68.215300 H         1 <1>         0.158300 
     13 H           5.989300   63.796500   66.483700 H         1 <1>         0.127300 
     14 H           3.531000   65.041100   67.868900 H         1 <1>         0.081200 
     15 H           5.582400   66.119700   68.690600 H         1 <1>         0.176100 
     16 H           6.206800   66.271700   67.039800 H         1 <1>         0.108600 
     17 H           3.714500   67.700400   68.159000 H         1 <1>         0.176200 
     18 H           5.282900   68.421400   67.792300 H         1 <1>         0.167500 
     19 H           2.272700   66.889500   66.238400 H         1 <1>         0.234400 
     20 H           2.902800   66.996500   64.592800 H         1 <1>         0.258500 
     21 H           4.650400   65.344100   65.024700 H         1 <1>         0.129500 
     22 H           3.077700   64.657900   65.449200 H         1 <1>         0.182200 
     23 H           3.573700   69.840000   65.931700 H         1 <1>         0.219300 
     24 H           5.314300   69.545100   65.823400 H         1 <1>         0.175900 
     25 H           2.659200   68.150500   62.689800 H         1 <1>         0.112600 
     26 C           4.364000   62.488600   66.983100 C.3       1 <1>         0.000000 
     27 N           3.331000   62.280800   67.985900 N.am      1 <1>        -0.435500 
     28 C           3.506500   61.398700   69.054100 C.2       1 <1>         0.702200 
     29 O           4.500000   60.686800   69.164800 O.2       1 <1>        -0.592900 
     30 C           2.336000   61.261000   69.991000 C.2       1 <1>        -0.092800 
     31 C           2.181600   60.057400   70.705200 C.2       1 <1>        -0.157300 
     32 C           1.093700   59.881400   71.562700 C.2       1 <1>        -0.115400 
     33 C           0.145100   60.903000   71.721100 C.2       1 <1>        -0.105500 
     34 C           0.302700   62.103900   71.018200 C.2       1 <1>        -0.132300 
     35 C           1.393200   62.291300   70.161800 C.2       1 <1>        -0.185400 
     36 H           3.898000   62.510300   65.982400 H         1 <1>         0.075900 
     37 H           5.040000   61.617600   66.979500 H         1 <1>         0.124600 
     38 C           1.989700   62.513100   67.405300 C.3       1 <1>        -0.145400 
     39 H           2.920400   59.242700   70.579800 H         1 <1>         0.189600 
     40 H           0.979400   58.930100   72.117600 H         1 <1>         0.159400 
     41 H          -0.717000   60.761100   72.400200 H         1 <1>         0.156600 
     42 H          -0.438000   62.916400   71.149300 H         1 <1>         0.151700 
     43 H           1.504300   63.262000   69.646400 H         1 <1>         0.141400 
     44 H           4.917000   67.435200   65.697600 H         1 <1>         0.443800 
     45 H           1.241700   61.825300   67.817300 H         1 <1>         0.143200 
     46 H           1.668800   63.555500   67.548200 H         1 <1>         0.062600 
     47 H           1.967400   62.301600   66.322600 H         1 <1>         0.098700 
     48 H           5.542700   69.285200   62.196500 H         1 <1>         0.215500 
     49 H           4.476600   70.282200   63.899800 H         1 <1>         0.229900 
     50 H           3.102300   69.839000   62.240900 H         1 <1>         0.165700 
     51 H           5.224800   67.574600   62.691700 H         1 <1>         0.144500 
@<TRIPOS>BOND
     1    1    2 1    
     2    1   12 1    
     3    1   13 1    
     4    1   26 1    
     5    2    3 1    
     6    2    7 1    
     7    2   14 1    
     8    3    4 1    
     9    3   15 1    
    10    3   16 1    
    11    4    5 1    
    12    4   17 1    
    13    4   18 1    
    14    5    6 1    
    15    5    8 1    
    16    5   44 1    
    17    6    7 1    
    18    6   19 1    
    19    6   20 1    
    20    7   21 1    
    21    7   22 1    
    22    8    9 1    
    23    8   23 1    
    24    8   24 1    
    25    9   10 1    
    26    9   11 1    
    27    9   49 1    
    28   10   11 1    
    29   10   25 1    
    30   10   50 1    
    31   11   48 1    
    32   11   51 1    
    33   26   27 1    
    34   26   36 1    
    35   26   37 1    
    36   27   28 am   
    37   27   38 1    
    38   28   29 2    
    39   28   30 1    
    40   30   31 2    
    41   30   35 1    
    42   31   32 1    
    43   31   39 1    
    44   32   33 2    
    45   32   40 1    
    46   33   34 1    
    47   33   41 1    
    48   34   35 2    
    49   34   42 1    
    50   35   43 1    
    51   38   45 1    
    52   38   46 1    
    53   38   47 1    
@<TRIPOS>SUBSTRUCTURE
     1 ****        1 TEMP              0 ****  ****    0 ROOT 
@<TRIPOS>SET
UNITY_3DHIT     STATIC     ATOMS    <user>   **** Atoms matching 3D or FLEX Search
0
@<TRIPOS>UNITY_ATOM_ATTR
5 1
AtomExpr +1
@<TRIPOS>UNITY_BOND_ATTR
40 1
S N
44 1
S I
48 1
S I
