#	Name:			2-35
#	Creating user name:	jeff
#	Creation time:		Thu Dec 19 21:51:36 2002

#	Modifying user name:	jeff
#	Modification time:	Thu Dec 19 21:51:37 2002

@<TRIPOS>MOLECULE
2-35
   60    62     1     0     1
SMALL
USER_CHARGES
****
From 3DB ct
@<TRIPOS>ATOM
      1 C           5.174100   63.766600   67.229800 C.3       1 <1>        -0.387600 
      2 C           4.385500   65.095300   67.167900 C.3       1 <1>         0.320300 
      3 C           5.277000   66.262800   67.639800 C.3       1 <1>        -0.412900 
      4 C           4.585700   67.625300   67.481800 C.3       1 <1>        -0.049700 
      5 N           4.192500   67.807300   66.080500 N.4       1 <1>         0.263100 
      6 C           3.199600   66.822100   65.639200 C.3       1 <1>        -0.352400 
      7 C           3.822900   65.410200   65.756800 C.3       1 <1>        -0.267700 
      8 C           4.330200   69.150900   65.515100 C.3       1 <1>        -0.811500 
      9 C           4.311000   69.353900   63.977100 C.3       1 <1>         0.440800 
     10 C           2.924500   69.451800   63.286000 C.3       1 <1>        -0.217100 
     11 C           3.060400   69.959000   61.833600 C.3       1 <1>        -0.077000 
     12 C           4.011500   69.066200   61.014000 C.3       1 <1>        -0.092200 
     13 C           5.391300   68.961100   61.691300 C.3       1 <1>        -0.121200 
     14 C           5.275600   68.467600   63.149500 C.3       1 <1>        -0.290600 
     15 H           5.667900   63.680200   68.215300 H         1 <1>         0.158500 
     16 H           5.989300   63.796500   66.483700 H         1 <1>         0.122400 
     17 H           3.531000   65.041100   67.868900 H         1 <1>         0.054500 
     18 H           5.582400   66.119700   68.690600 H         1 <1>         0.190900 
     19 H           6.206800   66.271700   67.039800 H         1 <1>         0.126400 
     20 H           3.714500   67.700400   68.159000 H         1 <1>         0.166500 
     21 H           5.282900   68.421400   67.792300 H         1 <1>         0.147300 
     22 H           2.272700   66.889500   66.238400 H         1 <1>         0.228500 
     23 H           2.902800   66.996500   64.592800 H         1 <1>         0.229700 
     24 H           4.650400   65.344100   65.024700 H         1 <1>         0.107700 
     25 H           3.077700   64.657900   65.449200 H         1 <1>         0.184300 
     26 H           3.573700   69.840000   65.931700 H         1 <1>         0.313800 
     27 H           5.314300   69.545100   65.823400 H         1 <1>         0.249800 
     28 H           2.414000   68.475700   63.254100 H         1 <1>         0.063100 
     29 H           2.067400   70.005000   61.351400 H         1 <1>         0.068500 
     30 H           6.052600   68.291300   61.112700 H         1 <1>         0.083600 
     31 C           4.364000   62.488600   66.983100 C.3       1 <1>         0.006800 
     32 N           3.331000   62.280800   67.985900 N.am      1 <1>        -0.431200 
     33 C           3.506500   61.398700   69.054100 C.2       1 <1>         0.682600 
     34 O           4.500000   60.686800   69.164800 O.2       1 <1>        -0.586300 
     35 C           2.336000   61.261000   69.991000 C.2       1 <1>        -0.099800 
     36 C           2.181600   60.057400   70.705200 C.2       1 <1>        -0.157000 
     37 C           1.093700   59.881400   71.562700 C.2       1 <1>        -0.124600 
     38 C           0.145100   60.903000   71.721100 C.2       1 <1>        -0.093000 
     39 C           0.302700   62.103900   71.018200 C.2       1 <1>        -0.124900 
     40 C           1.393200   62.291300   70.161800 C.2       1 <1>        -0.184100 
     41 H           3.898000   62.510300   65.982400 H         1 <1>         0.071800 
     42 H           5.040000   61.617600   66.979500 H         1 <1>         0.122600 
     43 C           1.989700   62.513100   67.405300 C.3       1 <1>        -0.139800 
     44 H           2.920400   59.242700   70.579800 H         1 <1>         0.187200 
     45 H           0.979400   58.930100   72.117600 H         1 <1>         0.159800 
     46 H          -0.717000   60.761100   72.400200 H         1 <1>         0.151000 
     47 H          -0.438000   62.916400   71.149300 H         1 <1>         0.148300 
     48 H           1.504300   63.262000   69.646400 H         1 <1>         0.150300 
     49 H           4.917000   67.435200   65.697600 H         1 <1>         0.386700 
     50 H           1.241700   61.825300   67.817300 H         1 <1>         0.136300 
     51 H           1.668800   63.555500   67.548200 H         1 <1>         0.066500 
     52 H           1.967400   62.301600   66.322600 H         1 <1>         0.096600 
     53 H           4.919400   67.422000   63.136700 H         1 <1>         0.088800 
     54 H           4.723300   70.381700   63.909400 H         1 <1>         0.076500 
     55 H           2.256500   70.128600   63.849500 H         1 <1>         0.058200 
     56 H           3.448500   70.994100   61.837700 H         1 <1>         0.060400 
     57 H           3.572300   68.056700   60.916500 H         1 <1>         0.053800 
     58 H           4.117500   69.458000   59.986300 H         1 <1>         0.069200 
     59 H           5.874400   69.955400   61.678700 H         1 <1>         0.082600 
     60 H           6.280900   68.448400   63.608200 H         1 <1>         0.066500 
@<TRIPOS>BOND
     1    1    2 1    
     2    1   15 1    
     3    1   16 1    
     4    1   31 1    
     5    2    3 1    
     6    2    7 1    
     7    2   17 1    
     8    3    4 1    
     9    3   18 1    
    10    3   19 1    
    11    4    5 1    
    12    4   20 1    
    13    4   21 1    
    14    5    6 1    
    15    5    8 1    
    16    5   49 1    
    17    6    7 1    
    18    6   22 1    
    19    6   23 1    
    20    7   24 1    
    21    7   25 1    
    22    8    9 1    
    23    8   26 1    
    24    8   27 1    
    25    9   10 1    
    26    9   14 1    
    27    9   54 1    
    28   10   11 1    
    29   10   28 1    
    30   10   55 1    
    31   11   12 1    
    32   11   29 1    
    33   11   56 1    
    34   12   13 1    
    35   12   57 1    
    36   12   58 1    
    37   13   14 1    
    38   13   30 1    
    39   13   59 1    
    40   14   53 1    
    41   14   60 1    
    42   31   32 1    
    43   31   41 1    
    44   31   42 1    
    45   32   33 am   
    46   32   43 1    
    47   33   34 2    
    48   33   35 1    
    49   35   36 2    
    50   35   40 1    
    51   36   37 1    
    52   36   44 1    
    53   37   38 2    
    54   37   45 1    
    55   38   39 1    
    56   38   46 1    
    57   39   40 2    
    58   39   47 1    
    59   40   48 1    
    60   43   50 1    
    61   43   51 1    
    62   43   52 1    
@<TRIPOS>SUBSTRUCTURE
     1 ****        1 TEMP              0 ****  ****    0 ROOT 
@<TRIPOS>SET
UNITY_3DHIT     STATIC     ATOMS    <user>   **** Atoms matching 3D or FLEX Search
0
@<TRIPOS>UNITY_ATOM_ATTR
5 1
AtomExpr +1
@<TRIPOS>UNITY_BOND_ATTR
49 1
S I
53 1
S N
57 1
S I
