#	Name:			2-36
#	Creating user name:	jeff
#	Creation time:		Thu Dec 19 21:51:37 2002

#	Modifying user name:	jeff
#	Modification time:	Thu Dec 19 21:51:38 2002

@<TRIPOS>MOLECULE
2-36
   68    72     1     0     1
SMALL
USER_CHARGES
****
From 3DB ct
@<TRIPOS>ATOM
      1 C           5.174100   63.766600   67.229800 C.3       1 <1>        -0.375800 
      2 C           4.385500   65.095300   67.167900 C.3       1 <1>         0.315500 
      3 C           5.277000   66.262800   67.639800 C.3       1 <1>        -0.440000 
      4 C           4.585700   67.625300   67.481800 C.3       1 <1>        -0.029300 
      5 N           4.192500   67.807300   66.080500 N.4       1 <1>         0.205200 
      6 C           3.199600   66.822100   65.639200 C.3       1 <1>        -0.205400 
      7 C           3.822900   65.410200   65.756800 C.3       1 <1>        -0.327300 
      8 C           4.330200   69.150900   65.515100 C.3       1 <1>        -0.845600 
      9 C           4.311000   69.353900   63.977100 C.3       1 <1>         1.162100 
     10 C           2.887800   69.438300   63.335800 C.3       1 <1>        -0.688200 
     11 C           2.966600   69.851300   61.841900 C.3       1 <1>         0.558700 
     12 C           3.828500   68.825400   61.066000 C.3       1 <1>        -0.768800 
     13 C           5.258000   68.794800   61.660400 C.3       1 <1>         0.533600 
     14 C           5.194500   68.371400   63.151800 C.3       1 <1>        -0.689000 
     15 H           5.667900   63.680200   68.215300 H         1 <1>         0.156900 
     16 H           5.989300   63.796500   66.483700 H         1 <1>         0.121000 
     17 H           3.531000   65.041100   67.868900 H         1 <1>         0.053400 
     18 H           5.582400   66.119700   68.690600 H         1 <1>         0.196300 
     19 H           6.206800   66.271700   67.039800 H         1 <1>         0.134400 
     20 H           3.714500   67.700400   68.159000 H         1 <1>         0.168100 
     21 H           5.282900   68.421400   67.792300 H         1 <1>         0.143100 
     22 H           2.272700   66.889500   66.238400 H         1 <1>         0.199900 
     23 H           2.902800   66.996500   64.592800 H         1 <1>         0.183100 
     24 H           4.650400   65.344100   65.024700 H         1 <1>         0.123200 
     25 H           3.077700   64.657900   65.449200 H         1 <1>         0.185600 
     26 H           3.573700   69.840000   65.931700 H         1 <1>         0.286800 
     27 H           5.310600   69.492300   65.887500 H         1 <1>         0.236700 
     28 H           2.333700   68.489000   63.394900 H         1 <1>         0.105700 
     29 H           1.944700   69.870100   61.418800 H         1 <1>         0.033500 
     30 H           5.874400   68.065800   61.101600 H         1 <1>         0.039300 
     31 C           4.364000   62.488600   66.983100 C.3       1 <1>         0.001900 
     32 N           3.331000   62.280800   67.985900 N.am      1 <1>        -0.441800 
     33 C           3.506500   61.398700   69.054100 C.2       1 <1>         0.698800 
     34 O           4.500000   60.686800   69.164800 O.2       1 <1>        -0.590000 
     35 C           2.336000   61.261000   69.991000 C.2       1 <1>        -0.110300 
     36 C           2.181600   60.057400   70.705200 C.2       1 <1>        -0.150800 
     37 C           1.093700   59.881400   71.562700 C.2       1 <1>        -0.128300 
     38 C           0.145100   60.903000   71.721100 C.2       1 <1>        -0.097400 
     39 C           0.302700   62.103900   71.018200 C.2       1 <1>        -0.127600 
     40 C           1.393200   62.291300   70.161800 C.2       1 <1>        -0.182400 
     41 H           3.898000   62.510300   65.982400 H         1 <1>         0.076400 
     42 H           5.040000   61.617600   66.979500 H         1 <1>         0.121300 
     43 C           1.989700   62.513100   67.405300 C.3       1 <1>        -0.118600 
     44 H           2.920400   59.242700   70.579800 H         1 <1>         0.187900 
     45 H           0.979400   58.930100   72.117600 H         1 <1>         0.161600 
     46 H          -0.717000   60.761100   72.400200 H         1 <1>         0.154000 
     47 H          -0.438000   62.916400   71.149300 H         1 <1>         0.149800 
     48 H           1.504300   63.262000   69.646400 H         1 <1>         0.149400 
     49 H           4.917000   67.435200   65.697600 H         1 <1>         0.390500 
     50 H           1.241700   61.825300   67.817300 H         1 <1>         0.133100 
     51 H           1.668800   63.555500   67.548200 H         1 <1>         0.060700 
     52 H           1.967400   62.301600   66.322600 H         1 <1>         0.091000 
     53 H           4.809300   67.338200   63.210300 H         1 <1>         0.100800 
     54 H           2.269600   70.174600   63.883800 H         1 <1>         0.138300 
     55 H           3.368600   67.821600   61.112200 H         1 <1>         0.165600 
     56 H           3.867400   69.093000   59.993800 H         1 <1>         0.216800 
     57 H           6.220200   68.337700   63.564600 H         1 <1>         0.127700 
     58 C           4.940800   70.786200   63.804300 C.3       1 <1>        -0.628100 
     59 C           5.026000   71.221900   62.320900 C.3       1 <1>         0.491600 
     60 C           5.890800   70.202900   61.540800 C.3       1 <1>        -0.734100 
     61 C           3.603500   71.255500   61.716300 C.3       1 <1>        -0.737800 
     62 H           4.347200   71.529800   64.369800 H         1 <1>         0.145400 
     63 H           5.958200   70.813800   64.238900 H         1 <1>         0.124200 
     64 H           5.483800   72.226900   62.259400 H         1 <1>         0.050400 
     65 H           6.925000   70.196200   61.930300 H         1 <1>         0.169300 
     66 H           5.968500   70.498800   60.478100 H         1 <1>         0.211300 
     67 H           3.642000   71.567200   60.656000 H         1 <1>         0.208800 
     68 H           2.982100   72.009700   62.232300 H         1 <1>         0.169900 
@<TRIPOS>BOND
     1    1    2 1    
     2    1   15 1    
     3    1   16 1    
     4    1   31 1    
     5    2    3 1    
     6    2    7 1    
     7    2   17 1    
     8    3    4 1    
     9    3   18 1    
    10    3   19 1    
    11    4    5 1    
    12    4   20 1    
    13    4   21 1    
    14    5    6 1    
    15    5    8 1    
    16    5   49 1    
    17    6    7 1    
    18    6   22 1    
    19    6   23 1    
    20    7   24 1    
    21    7   25 1    
    22    8    9 1    
    23    8   26 1    
    24    8   27 1    
    25    9   10 1    
    26    9   14 1    
    27    9   58 1    
    28   10   11 1    
    29   10   28 1    
    30   10   54 1    
    31   11   12 1    
    32   11   29 1    
    33   11   61 1    
    34   12   13 1    
    35   12   55 1    
    36   12   56 1    
    37   13   14 1    
    38   13   30 1    
    39   13   60 1    
    40   14   53 1    
    41   14   57 1    
    42   31   32 1    
    43   31   41 1    
    44   31   42 1    
    45   32   33 am   
    46   32   43 1    
    47   33   34 2    
    48   33   35 1    
    49   35   36 2    
    50   35   40 1    
    51   36   37 1    
    52   36   44 1    
    53   37   38 2    
    54   37   45 1    
    55   38   39 1    
    56   38   46 1    
    57   39   40 2    
    58   39   47 1    
    59   40   48 1    
    60   43   50 1    
    61   43   51 1    
    62   43   52 1    
    63   58   59 1    
    64   58   62 1    
    65   58   63 1    
    66   59   60 1    
    67   59   61 1    
    68   59   64 1    
    69   60   65 1    
    70   60   66 1    
    71   61   67 1    
    72   61   68 1    
@<TRIPOS>SUBSTRUCTURE
     1 ****        1 TEMP              0 ****  ****    0 ROOT 
@<TRIPOS>SET
UNITY_3DHIT     STATIC     ATOMS    <user>   **** Atoms matching 3D or FLEX Search
0
@<TRIPOS>UNITY_ATOM_ATTR
5 1
AtomExpr +1
@<TRIPOS>UNITY_BOND_ATTR
49 1
S I
53 1
S N
57 1
S I
