#	Name:			2-3g
#	Creating user name:	jeff
#	Creation time:		Thu Dec 19 21:50:31 2002

#	Modifying user name:	jeff
#	Modification time:	Thu Dec 19 21:50:31 2002

@<TRIPOS>MOLECULE
2-3g
   53    55     1     0     1
SMALL
USER_CHARGES
****
From 3DB ct
@<TRIPOS>ATOM
      1 C           5.174100   63.766600   67.229800 C.3       1 <1>        -0.380900 
      2 C           4.385500   65.095300   67.167900 C.3       1 <1>         0.273700 
      3 C           5.277000   66.262800   67.639800 C.3       1 <1>        -0.322700 
      4 C           4.585700   67.625300   67.481800 C.3       1 <1>        -0.079100 
      5 N           4.192500   67.807300   66.080500 N.4       1 <1>         0.188000 
      6 C           3.199600   66.822100   65.639200 C.3       1 <1>        -0.291900 
      7 C           3.822900   65.410200   65.756800 C.3       1 <1>        -0.282600 
      8 C           4.330200   69.150900   65.515100 C.3       1 <1>        -0.682600 
      9 C           4.261200   69.199200   64.002100 C.2       1 <1>         0.242100 
     10 C           3.058300   69.612200   63.410300 C.2       1 <1>        -0.213900 
     11 C           2.913700   69.607300   62.021400 C.2       1 <1>        -0.122500 
     12 C           3.968500   69.192800   61.210100 C.2       1 <1>        -0.083600 
     13 C           5.169800   68.782800   61.785500 C.2       1 <1>        -0.076300 
     14 C           5.316600   68.786600   63.173700 C.2       1 <1>        -0.338300 
     15 H           5.667900   63.680200   68.215300 H         1 <1>         0.163100 
     16 H           5.989300   63.796500   66.483700 H         1 <1>         0.120300 
     17 H           3.531000   65.041100   67.868900 H         1 <1>         0.048900 
     18 H           5.582400   66.119700   68.690600 H         1 <1>         0.170800 
     19 H           6.206800   66.271700   67.039800 H         1 <1>         0.105700 
     20 H           3.714500   67.700400   68.159000 H         1 <1>         0.171200 
     21 H           5.282900   68.421400   67.792300 H         1 <1>         0.152200 
     22 H           2.272700   66.889500   66.238400 H         1 <1>         0.227000 
     23 H           2.902800   66.996500   64.592800 H         1 <1>         0.195700 
     24 H           4.650400   65.344100   65.024700 H         1 <1>         0.121300 
     25 H           3.077700   64.657900   65.449200 H         1 <1>         0.185400 
     26 H           3.573700   69.840000   65.931700 H         1 <1>         0.296600 
     27 H           5.314300   69.545100   65.823400 H         1 <1>         0.270400 
     28 H           2.206200   69.931000   64.044400 H         1 <1>         0.176700 
     29 H           1.955500   69.924800   61.567900 H         1 <1>         0.184800 
     30 H           3.851200   69.184900   60.109400 H         1 <1>         0.183100 
     31 H           6.007200   68.444900   61.145300 H         1 <1>         0.177500 
     32 H           6.268100   68.442500   63.627900 H         1 <1>         0.201900 
     33 C           4.364000   62.488600   66.983100 C.3       1 <1>         0.099600 
     34 N           3.331000   62.280800   67.985900 N.am      1 <1>        -0.812300 
     35 C           3.506500   61.398700   69.054100 C.2       1 <1>         0.821400 
     36 O           4.500000   60.686800   69.164800 O.2       1 <1>        -0.588200 
     37 C           2.336000   61.261000   69.991000 C.2       1 <1>        -0.248600 
     38 C           2.181600   60.057400   70.705200 C.2       1 <1>        -0.034500 
     39 C           1.093700   59.881400   71.562700 C.2       1 <1>        -0.201500 
     40 C           0.145100   60.903000   71.721100 C.2       1 <1>         0.132200 
     41 C           0.302700   62.103900   71.018200 C.2       1 <1>        -0.214900 
     42 C           1.393200   62.291300   70.161800 C.2       1 <1>        -0.054100 
     43 H           3.898000   62.510300   65.982400 H         1 <1>         0.046600 
     44 H           5.040000   61.617600   66.979500 H         1 <1>         0.113100 
     45 H           2.481600   62.808800   67.931300 H         1 <1>         0.436500 
     46 H           2.920400   59.242700   70.579800 H         1 <1>         0.193300 
     47 H           0.979400   58.930100   72.117600 H         1 <1>         0.238500 
     48 H          -0.438000   62.916400   71.149300 H         1 <1>         0.230000 
     49 H           1.504300   63.262000   69.646400 H         1 <1>         0.128100 
     50 N          -1.009800   60.714400   72.626500 N.2       1 <1>         0.745400 
     51 O          -1.108500   59.651400   73.215800 O.2       1 <1>        -0.492800 
     52 O          -1.804600   61.633500   72.733900 O.3       1 <1>        -0.509100 
     53 H           4.917000   67.435200   65.697600 H         1 <1>         0.410700 
@<TRIPOS>BOND
     1    1    2 1    
     2    1   15 1    
     3    1   16 1    
     4    1   33 1    
     5    2    3 1    
     6    2    7 1    
     7    2   17 1    
     8    3    4 1    
     9    3   18 1    
    10    3   19 1    
    11    4    5 1    
    12    4   20 1    
    13    4   21 1    
    14    5    6 1    
    15    5    8 1    
    16    5   53 1    
    17    6    7 1    
    18    6   22 1    
    19    6   23 1    
    20    7   24 1    
    21    7   25 1    
    22    8    9 1    
    23    8   26 1    
    24    8   27 1    
    25    9   10 1    
    26    9   14 2    
    27   10   11 2    
    28   10   28 1    
    29   11   12 1    
    30   11   29 1    
    31   12   13 2    
    32   12   30 1    
    33   13   14 1    
    34   13   31 1    
    35   14   32 1    
    36   33   34 1    
    37   33   43 1    
    38   33   44 1    
    39   34   35 am   
    40   34   45 1    
    41   35   36 2    
    42   35   37 1    
    43   37   38 2    
    44   37   42 1    
    45   38   39 1    
    46   38   46 1    
    47   39   40 2    
    48   39   47 1    
    49   40   41 1    
    50   40   50 1    
    51   41   42 2    
    52   41   48 1    
    53   42   49 1    
    54   50   51 2    
    55   50   52 1    
@<TRIPOS>SUBSTRUCTURE
     1 ****        1 TEMP              0 ****  ****    0 ROOT 
@<TRIPOS>SET
UNITY_3DHIT     STATIC     ATOMS    <user>   **** Atoms matching 3D or FLEX Search
0
@<TRIPOS>UNITY_ATOM_ATTR
5 1
AtomExpr +1
50 1
AtomExpr +1
52 1
AtomExpr -1
@<TRIPOS>UNITY_BOND_ATTR
26 1
S N
27 1
S N
31 1
S N
43 1
S I
47 1
S I
51 1
S I
