#	Name:			2-3m
#	Creating user name:	jeff
#	Creation time:		Thu Dec 19 21:50:36 2002

#	Modifying user name:	jeff
#	Modification time:	Thu Dec 19 21:50:37 2002

@<TRIPOS>MOLECULE
2-3m
   67    70     1     0     1
SMALL
USER_CHARGES
****
From 3DB ct
@<TRIPOS>ATOM
      1 C           5.174100   63.766600   67.229800 C.3       1 <1>        -0.406500 
      2 C           4.385500   65.095300   67.167900 C.3       1 <1>         0.295500 
      3 C           5.277000   66.262800   67.639800 C.3       1 <1>        -0.311200 
      4 C           4.585700   67.625300   67.481800 C.3       1 <1>        -0.088600 
      5 N           4.192500   67.807300   66.080500 N.4       1 <1>         0.163700 
      6 C           3.199600   66.822100   65.639200 C.3       1 <1>        -0.264800 
      7 C           3.822900   65.410200   65.756800 C.3       1 <1>        -0.299000 
      8 C           4.330200   69.150900   65.515100 C.3       1 <1>        -0.642500 
      9 C           4.261200   69.199200   64.002100 C.2       1 <1>         0.234800 
     10 C           3.069300   69.645800   63.405000 C.2       1 <1>        -0.217700 
     11 C           2.921000   69.641900   62.019300 C.2       1 <1>        -0.117500 
     12 C           3.968500   69.192800   61.210100 C.2       1 <1>        -0.087500 
     13 C           5.169800   68.782800   61.785500 C.2       1 <1>        -0.079800 
     14 C           5.316600   68.786600   63.173700 C.2       1 <1>        -0.340200 
     15 H           5.667900   63.680200   68.215300 H         1 <1>         0.166400 
     16 H           5.989300   63.796500   66.483700 H         1 <1>         0.120900 
     17 H           3.531000   65.041100   67.868900 H         1 <1>         0.048800 
     18 H           5.582400   66.119700   68.690600 H         1 <1>         0.167800 
     19 H           6.206800   66.271700   67.039800 H         1 <1>         0.102500 
     20 H           3.714500   67.700400   68.159000 H         1 <1>         0.175900 
     21 H           5.282900   68.421400   67.792300 H         1 <1>         0.153500 
     22 H           2.272700   66.889500   66.238400 H         1 <1>         0.221900 
     23 H           2.902800   66.996500   64.592800 H         1 <1>         0.188300 
     24 H           4.650400   65.344100   65.024700 H         1 <1>         0.122100 
     25 H           3.077700   64.657900   65.449200 H         1 <1>         0.187500 
     26 H           3.553800   69.796200   65.946500 H         1 <1>         0.287800 
     27 H           5.314300   69.545100   65.823400 H         1 <1>         0.261700 
     28 H           2.221600   70.012800   64.021500 H         1 <1>         0.178700 
     29 H           1.976100   69.990300   61.556700 H         1 <1>         0.184200 
     30 H           3.851200   69.184900   60.109400 H         1 <1>         0.182400 
     31 H           6.007200   68.444900   61.145300 H         1 <1>         0.178800 
     32 H           6.268100   68.442500   63.627900 H         1 <1>         0.202700 
     33 C           4.364000   62.488600   66.983100 C.3       1 <1>         0.140800 
     34 N           3.331000   62.280800   67.985900 N.am      1 <1>        -0.872100 
     35 C           3.506500   61.398700   69.054100 C.2       1 <1>         0.830700 
     36 O           4.500000   60.686800   69.164800 O.2       1 <1>        -0.589600 
     37 C           2.336000   61.261000   69.991000 C.2       1 <1>        -0.180500 
     38 C           2.181600   60.057400   70.705200 C.2       1 <1>        -0.101200 
     39 C           1.093700   59.881400   71.562700 C.2       1 <1>        -0.043200 
     40 C           0.145100   60.903000   71.721100 C.2       1 <1>        -0.463100 
     41 C           0.302700   62.103900   71.018200 C.2       1 <1>        -0.051700 
     42 C           1.393200   62.291300   70.161800 C.2       1 <1>        -0.142800 
     43 H           3.898000   62.510300   65.982400 H         1 <1>         0.040600 
     44 H           5.040000   61.617600   66.979500 H         1 <1>         0.105900 
     45 H           2.481600   62.808800   67.931300 H         1 <1>         0.449500 
     46 H           2.920400   59.242700   70.579800 H         1 <1>         0.186300 
     47 H           0.979400   58.930100   72.117600 H         1 <1>         0.194500 
     48 H          -0.438000   62.916400   71.149300 H         1 <1>         0.191700 
     49 H           1.504300   63.262000   69.646400 H         1 <1>         0.132200 
     50 H           4.917000   67.435200   65.697600 H         1 <1>         0.411000 
     51 S          -1.184800   60.720500   72.849300 S.o2      1 <1>         2.180200 
     52 O          -0.577800   60.504200   74.128500 O.2       1 <1>        -0.958700 
     53 O          -2.069300   61.828000   72.612300 O.2       1 <1>        -0.969900 
     54 C          -2.004100   59.229500   72.319000 C.3       1 <1>        -0.703600 
     55 C          -3.191300   58.911500   73.203800 C.2       1 <1>         0.180000 
     56 C          -3.004200   58.243600   74.423100 C.2       1 <1>        -0.202500 
     57 C          -4.092300   57.941500   75.249300 C.2       1 <1>        -0.140400 
     58 C          -5.391800   58.301500   74.869500 C.2       1 <1>        -0.095600 
     59 C          -5.583100   58.970900   73.654500 C.2       1 <1>        -0.138800 
     60 C          -4.492200   59.272400   72.829900 C.2       1 <1>        -0.209700 
     61 H          -2.322200   59.381900   71.279200 H         1 <1>         0.200600 
     62 H          -1.277100   58.407000   72.359600 H         1 <1>         0.210600 
     63 H          -1.983800   57.957200   74.752400 H         1 <1>         0.187500 
     64 H          -3.918300   57.419100   76.209400 H         1 <1>         0.162600 
     65 H          -6.252500   58.065700   75.522800 H         1 <1>         0.157000 
     66 H          -6.601300   59.269600   73.340300 H         1 <1>         0.160700 
     67 H          -4.674400   59.808000   71.876500 H         1 <1>         0.192300 
@<TRIPOS>BOND
     1    1    2 1    
     2    1   15 1    
     3    1   16 1    
     4    1   33 1    
     5    2    3 1    
     6    2    7 1    
     7    2   17 1    
     8    3    4 1    
     9    3   18 1    
    10    3   19 1    
    11    4    5 1    
    12    4   20 1    
    13    4   21 1    
    14    5    6 1    
    15    5    8 1    
    16    5   50 1    
    17    6    7 1    
    18    6   22 1    
    19    6   23 1    
    20    7   24 1    
    21    7   25 1    
    22    8    9 1    
    23    8   26 1    
    24    8   27 1    
    25    9   10 1    
    26    9   14 2    
    27   10   11 2    
    28   10   28 1    
    29   11   12 1    
    30   11   29 1    
    31   12   13 2    
    32   12   30 1    
    33   13   14 1    
    34   13   31 1    
    35   14   32 1    
    36   33   34 1    
    37   33   43 1    
    38   33   44 1    
    39   34   35 am   
    40   34   45 1    
    41   35   36 2    
    42   35   37 1    
    43   37   38 2    
    44   37   42 1    
    45   38   39 1    
    46   38   46 1    
    47   39   40 2    
    48   39   47 1    
    49   40   41 1    
    50   40   51 1    
    51   41   42 2    
    52   41   48 1    
    53   42   49 1    
    54   51   52 2    
    55   51   53 2    
    56   51   54 1    
    57   54   55 1    
    58   54   61 1    
    59   54   62 1    
    60   55   56 2    
    61   55   60 1    
    62   56   57 1    
    63   56   63 1    
    64   57   58 2    
    65   57   64 1    
    66   58   59 1    
    67   58   65 1    
    68   59   60 2    
    69   59   66 1    
    70   60   67 1    
@<TRIPOS>SUBSTRUCTURE
     1 ****        1 TEMP              0 ****  ****    0 ROOT 
@<TRIPOS>SET
UNITY_3DHIT     STATIC     ATOMS    <user>   **** Atoms matching 3D or FLEX Search
0
@<TRIPOS>UNITY_ATOM_ATTR
5 1
AtomExpr +1
@<TRIPOS>UNITY_BOND_ATTR
26 1
S N
27 1
S I
31 1
S I
43 1
S N
47 1
S I
51 1
S I
60 1
S N
64 1
S I
68 1
S I
