#	Name:			2-3r
#	Creating user name:	jeff
#	Creation time:		Thu Dec 19 21:50:39 2002

#	Modifying user name:	jeff
#	Modification time:	Thu Dec 19 21:50:40 2002

@<TRIPOS>MOLECULE
2-3r
   57    59     1     0     1
SMALL
USER_CHARGES
****
From 3DB ct
@<TRIPOS>ATOM
      1 C           5.174100   63.766600   67.229800 C.3       1 <1>        -0.515100 
      2 C           4.385500   65.095300   67.167900 C.3       1 <1>         0.400200 
      3 C           5.277000   66.262800   67.639800 C.3       1 <1>        -0.351400 
      4 C           4.585700   67.625300   67.481800 C.3       1 <1>        -0.043200 
      5 N           4.192500   67.807300   66.080500 N.4       1 <1>         0.176300 
      6 C           3.199600   66.822100   65.639200 C.3       1 <1>        -0.251200 
      7 C           3.822900   65.410200   65.756800 C.3       1 <1>        -0.380300 
      8 C           4.330200   69.150900   65.515100 C.3       1 <1>        -0.681400 
      9 C           4.261200   69.199200   64.002100 C.2       1 <1>         0.255800 
     10 C           3.058300   69.612200   63.410300 C.2       1 <1>        -0.222100 
     11 C           2.913700   69.607300   62.021400 C.2       1 <1>        -0.122000 
     12 C           3.968500   69.192800   61.210100 C.2       1 <1>        -0.091000 
     13 C           5.169800   68.782800   61.785500 C.2       1 <1>        -0.076100 
     14 C           5.316600   68.786600   63.173700 C.2       1 <1>        -0.342000 
     15 H           5.667900   63.680200   68.215300 H         1 <1>         0.196800 
     16 H           5.989300   63.796500   66.483700 H         1 <1>         0.127000 
     17 H           3.531000   65.041100   67.868900 H         1 <1>         0.024800 
     18 H           5.582400   66.119700   68.690600 H         1 <1>         0.167500 
     19 H           6.206800   66.271700   67.039800 H         1 <1>         0.109800 
     20 H           3.714500   67.700400   68.159000 H         1 <1>         0.163900 
     21 H           5.282900   68.421400   67.792300 H         1 <1>         0.142400 
     22 H           2.272700   66.889500   66.238400 H         1 <1>         0.217600 
     23 H           2.902800   66.996500   64.592800 H         1 <1>         0.191400 
     24 H           4.650400   65.344100   65.024700 H         1 <1>         0.139100 
     25 H           3.077700   64.657900   65.449200 H         1 <1>         0.208200 
     26 H           3.573700   69.840000   65.931700 H         1 <1>         0.293500 
     27 H           5.314300   69.545100   65.823400 H         1 <1>         0.266300 
     28 H           2.206200   69.931000   64.044400 H         1 <1>         0.176500 
     29 H           1.955500   69.924800   61.567900 H         1 <1>         0.186700 
     30 H           3.851200   69.184900   60.109400 H         1 <1>         0.184600 
     31 H           6.007200   68.444900   61.145300 H         1 <1>         0.177900 
     32 H           6.268100   68.442500   63.627900 H         1 <1>         0.204600 
     33 C           4.364000   62.488600   66.983100 C.3       1 <1>         0.282300 
     34 N           3.331000   62.280800   67.985900 N.am      1 <1>        -1.044300 
     35 C           3.506500   61.398700   69.054100 C.2       1 <1>         0.832700 
     36 O           4.500000   60.686800   69.164800 O.2       1 <1>        -0.612700 
     37 C           2.336000   61.261000   69.991000 C.3       1 <1>        -0.110800 
     38 C           2.791100   61.190300   71.471200 C.3       1 <1>        -0.084200 
     39 C           1.587100   60.995200   72.416400 C.3       1 <1>         0.027600 
     40 C           0.772500   59.743700   72.028600 C.3       1 <1>        -0.127600 
     41 C           0.320000   59.798000   70.554900 C.3       1 <1>        -0.048000 
     42 C           1.519700   60.000700   69.605700 C.3       1 <1>        -0.095300 
     43 H           3.898000   62.510300   65.982400 H         1 <1>         0.013400 
     44 H           5.040000   61.617600   66.979500 H         1 <1>         0.092500 
     45 H           2.481600   62.808800   67.931300 H         1 <1>         0.493600 
     46 H           3.487100   60.341400   71.599100 H         1 <1>         0.070800 
     47 H           1.928600   60.918200   73.464000 H         1 <1>         0.015900 
     48 H          -0.100300   59.628100   72.695900 H         1 <1>         0.035700 
     49 H          -0.392800   60.632100   70.424200 H         1 <1>         0.045700 
     50 H           1.177700   60.071100   68.558800 H         1 <1>        -0.002300 
     51 H           4.917000   67.435200   65.697600 H         1 <1>         0.405200 
     52 H           1.671500   62.140400   69.898000 H         1 <1>         0.068500 
     53 H           3.354600   62.101000   71.738000 H         1 <1>         0.011400 
     54 H           0.934100   61.885100   72.365900 H         1 <1>         0.022500 
     55 H           1.397400   58.844400   72.181800 H         1 <1>         0.071800 
     56 H          -0.228200   58.876200   70.290100 H         1 <1>         0.035500 
     57 H           2.180500   59.116400   69.662000 H         1 <1>         0.086800 
@<TRIPOS>BOND
     1    1    2 1    
     2    1   15 1    
     3    1   16 1    
     4    1   33 1    
     5    2    3 1    
     6    2    7 1    
     7    2   17 1    
     8    3    4 1    
     9    3   18 1    
    10    3   19 1    
    11    4    5 1    
    12    4   20 1    
    13    4   21 1    
    14    5    6 1    
    15    5    8 1    
    16    5   51 1    
    17    6    7 1    
    18    6   22 1    
    19    6   23 1    
    20    7   24 1    
    21    7   25 1    
    22    8    9 1    
    23    8   26 1    
    24    8   27 1    
    25    9   10 1    
    26    9   14 2    
    27   10   11 2    
    28   10   28 1    
    29   11   12 1    
    30   11   29 1    
    31   12   13 2    
    32   12   30 1    
    33   13   14 1    
    34   13   31 1    
    35   14   32 1    
    36   33   34 1    
    37   33   43 1    
    38   33   44 1    
    39   34   35 am   
    40   34   45 1    
    41   35   36 2    
    42   35   37 1    
    43   37   38 1    
    44   37   42 1    
    45   37   52 1    
    46   38   39 1    
    47   38   46 1    
    48   38   53 1    
    49   39   40 1    
    50   39   47 1    
    51   39   54 1    
    52   40   41 1    
    53   40   48 1    
    54   40   55 1    
    55   41   42 1    
    56   41   49 1    
    57   41   56 1    
    58   42   50 1    
    59   42   57 1    
@<TRIPOS>SUBSTRUCTURE
     1 ****        1 TEMP              0 ****  ****    0 ROOT 
@<TRIPOS>SET
UNITY_3DHIT     STATIC     ATOMS    <user>   **** Atoms matching 3D or FLEX Search
0
@<TRIPOS>UNITY_ATOM_ATTR
5 1
AtomExpr +1
@<TRIPOS>UNITY_BOND_ATTR
26 1
S N
27 1
S I
31 1
S I
