#	Name:			2-9
#	Creating user name:	jeff
#	Creation time:		Thu Dec 19 21:51:02 2002

#	Modifying user name:	jeff
#	Modification time:	Thu Dec 19 21:51:03 2002

@<TRIPOS>MOLECULE
2-9
   52    54     1     0     1
SMALL
USER_CHARGES
****
From 3DB ct
@<TRIPOS>ATOM
      1 C           5.174100   63.766600   67.229800 C.3       1 <1>        -0.324300 
      2 C           4.385500   65.095300   67.167900 C.3       1 <1>         0.207500 
      3 C           5.277000   66.262800   67.639800 C.3       1 <1>        -0.357600 
      4 C           4.585700   67.625300   67.481800 C.3       1 <1>        -0.086300 
      5 N           4.192500   67.807300   66.080500 N.4       1 <1>         0.185600 
      6 C           3.199600   66.822100   65.639200 C.3       1 <1>        -0.304300 
      7 C           3.822900   65.410200   65.756800 C.3       1 <1>        -0.167300 
      8 C           4.330200   69.150900   65.515100 C.3       1 <1>        -0.651600 
      9 C           4.261200   69.199200   64.002100 C.2       1 <1>         0.243000 
     10 C           3.058300   69.612200   63.410300 C.2       1 <1>        -0.218000 
     11 C           2.913700   69.607300   62.021400 C.2       1 <1>        -0.120200 
     12 C           3.968500   69.192800   61.210100 C.2       1 <1>        -0.090800 
     13 C           5.169800   68.782800   61.785500 C.2       1 <1>        -0.073700 
     14 C           5.316600   68.786600   63.173700 C.2       1 <1>        -0.345100 
     15 H           5.667900   63.680200   68.215300 H         1 <1>         0.133000 
     16 H           5.989300   63.796500   66.483700 H         1 <1>         0.103400 
     17 H           3.531000   65.041100   67.868900 H         1 <1>         0.075500 
     18 H           5.582400   66.119700   68.690600 H         1 <1>         0.183100 
     19 H           6.206800   66.271700   67.039800 H         1 <1>         0.118600 
     20 H           3.714500   67.700400   68.159000 H         1 <1>         0.171200 
     21 H           5.282900   68.421400   67.792300 H         1 <1>         0.156100 
     22 H           2.272700   66.889500   66.238400 H         1 <1>         0.224000 
     23 H           2.902800   66.996500   64.592800 H         1 <1>         0.187700 
     24 H           4.650400   65.344100   65.024700 H         1 <1>         0.100100 
     25 H           3.077700   64.657900   65.449200 H         1 <1>         0.154000 
     26 H           3.573700   69.840000   65.931700 H         1 <1>         0.290600 
     27 H           5.314300   69.545100   65.823400 H         1 <1>         0.258800 
     28 H           2.206200   69.931000   64.044400 H         1 <1>         0.176700 
     29 H           1.955500   69.924800   61.567900 H         1 <1>         0.185600 
     30 H           3.851200   69.184900   60.109400 H         1 <1>         0.184100 
     31 H           6.007200   68.444900   61.145300 H         1 <1>         0.177300 
     32 H           6.268100   68.442500   63.627900 H         1 <1>         0.204000 
     33 C           4.364000   62.488600   66.983100 C.3       1 <1>        -0.151300 
     34 C           3.162800   62.239500   67.859800 C.3       1 <1>        -0.074700 
     35 C           3.506500   61.398700   69.054100 C.2       1 <1>         0.559500 
     36 O           4.500000   60.686800   69.164800 O.2       1 <1>        -0.513100 
     37 C           2.336000   61.261000   69.991000 C.2       1 <1>        -0.231500 
     38 C           2.181600   60.057400   70.705200 C.2       1 <1>        -0.050300 
     39 C           1.093700   59.881400   71.562700 C.2       1 <1>        -0.167300 
     40 C           0.145100   60.903000   71.721100 C.2       1 <1>        -0.075200 
     41 C           0.302700   62.103900   71.018200 C.2       1 <1>        -0.172700 
     42 C           1.393200   62.291300   70.161800 C.2       1 <1>        -0.093100 
     43 H           3.898000   62.510300   65.982400 H         1 <1>         0.027400 
     44 H           5.040000   61.617600   66.979500 H         1 <1>         0.124300 
     45 H           2.580900   63.160700   67.985200 H         1 <1>         0.027800 
     46 H           2.920400   59.242700   70.579800 H         1 <1>         0.160800 
     47 H           0.979400   58.930100   72.117600 H         1 <1>         0.164700 
     48 H          -0.717000   60.761100   72.400200 H         1 <1>         0.155400 
     49 H          -0.438000   62.916400   71.149300 H         1 <1>         0.159600 
     50 H           1.504300   63.262000   69.646400 H         1 <1>         0.121000 
     51 H           4.917000   67.435200   65.697600 H         1 <1>         0.405200 
     52 H           2.478400   61.582400   67.283500 H         1 <1>         0.064700 
@<TRIPOS>BOND
     1    1    2 1    
     2    1   15 1    
     3    1   16 1    
     4    1   33 1    
     5    2    3 1    
     6    2    7 1    
     7    2   17 1    
     8    3    4 1    
     9    3   18 1    
    10    3   19 1    
    11    4    5 1    
    12    4   20 1    
    13    4   21 1    
    14    5    6 1    
    15    5    8 1    
    16    5   51 1    
    17    6    7 1    
    18    6   22 1    
    19    6   23 1    
    20    7   24 1    
    21    7   25 1    
    22    8    9 1    
    23    8   26 1    
    24    8   27 1    
    25    9   10 1    
    26    9   14 2    
    27   10   11 2    
    28   10   28 1    
    29   11   12 1    
    30   11   29 1    
    31   12   13 2    
    32   12   30 1    
    33   13   14 1    
    34   13   31 1    
    35   14   32 1    
    36   33   34 1    
    37   33   43 1    
    38   33   44 1    
    39   34   35 1    
    40   34   45 1    
    41   34   52 1    
    42   35   36 2    
    43   35   37 1    
    44   37   38 2    
    45   37   42 1    
    46   38   39 1    
    47   38   46 1    
    48   39   40 2    
    49   39   47 1    
    50   40   41 1    
    51   40   48 1    
    52   41   42 2    
    53   41   49 1    
    54   42   50 1    
@<TRIPOS>SUBSTRUCTURE
     1 ****        1 TEMP              0 ****  ****    0 ROOT 
@<TRIPOS>SET
UNITY_3DHIT     STATIC     ATOMS    <user>   **** Atoms matching 3D or FLEX Search
0
@<TRIPOS>UNITY_ATOM_ATTR
5 1
AtomExpr +1
@<TRIPOS>UNITY_BOND_ATTR
26 1
S N
27 1
S I
31 1
S I
44 1
S N
48 1
S I
52 1
S I
