#	Name:			3-12a
#	Creating user name:	jeff
#	Creation time:		Thu Dec 19 21:51:54 2002

#	Modifying user name:	jeff
#	Modification time:	Thu Dec 19 21:51:55 2002

@<TRIPOS>MOLECULE
3-12a
   56    59     1     0     1
SMALL
USER_CHARGES
****
From 3DB ct
@<TRIPOS>ATOM
      1 C           1.184000   59.883200   71.529200 C.2       1 <1>         0.186100 
      2 C           0.189000   60.891800   71.661000 C.2       1 <1>         0.347100 
      3 C           0.316100   62.107200   70.971000 C.2       1 <1>        -0.325200 
      4 C           1.422000   62.300600   70.156100 C.2       1 <1>         0.025700 
      5 C           2.381100   61.305700   70.040500 C.2       1 <1>        -0.487800 
      6 C           2.295600   60.095700   70.707500 C.2       1 <1>        -0.049400 
      7 C           3.417400   61.770300   69.124000 C.2       1 <1>         0.768200 
      8 C           3.139100   63.223200   68.841400 C.2       1 <1>         0.055900 
      9 C           1.740300   63.526000   69.305100 C.3       1 <1>        -0.065900 
     10 C           4.062500   64.095600   68.387300 C.2       1 <1>        -0.728500 
     11 C           3.809600   65.519600   68.023000 C.3       1 <1>         0.531200 
     12 C           5.011300   66.460900   68.193300 C.3       1 <1>        -0.214500 
     13 C           4.743100   67.835600   67.580200 C.3       1 <1>        -0.220300 
     14 N           4.401900   67.723900   66.150800 N.4       1 <1>         0.230700 
     15 C           3.194400   66.895500   65.980500 C.3       1 <1>        -0.232800 
     16 C           3.399900   65.486200   66.544900 C.3       1 <1>        -0.267200 
     17 C           4.202300   69.076800   65.586300 C.3       1 <1>        -0.660400 
     18 C           4.133600   69.090600   64.071900 C.2       1 <1>         0.211600 
     19 C           2.976400   69.532700   63.413800 C.2       1 <1>        -0.216900 
     20 C           2.919600   69.555800   62.018800 C.2       1 <1>        -0.118500 
     21 C           4.017600   69.140400   61.267400 C.2       1 <1>        -0.082000 
     22 C           5.174300   68.701600   61.909000 C.2       1 <1>        -0.096500 
     23 C           5.233300   68.677400   63.303600 C.2       1 <1>        -0.304600 
     24 O           4.430400   61.137300   68.864900 O.2       1 <1>        -0.541200 
     25 O           0.963500   58.732700   72.250100 O.3       1 <1>        -0.389000 
     26 C           1.943300   57.701100   72.150300 C.3       1 <1>         0.085100 
     27 O          -0.860900   60.583200   72.494400 O.3       1 <1>        -0.383500 
     28 C          -1.887800   61.561700   72.642900 C.3       1 <1>         0.080000 
     29 H          -0.416500   62.904000   71.055500 H         1 <1>         0.195600 
     30 H           3.080900   59.361400   70.570100 H         1 <1>         0.185400 
     31 H           1.035400   63.612300   68.462500 H         1 <1>         0.072500 
     32 H           1.690400   64.456300   69.887800 H         1 <1>         0.080300 
     33 H           5.060800   63.699500   68.122600 H         1 <1>         0.267500 
     34 H           2.975000   65.936200   68.601400 H         1 <1>        -0.028000 
     35 H           5.242000   66.580700   69.258800 H         1 <1>         0.150200 
     36 H           5.901300   66.021700   67.723600 H         1 <1>         0.098100 
     37 H           3.942000   68.339600   68.136700 H         1 <1>         0.192100 
     38 H           5.651400   68.439300   67.697700 H         1 <1>         0.173900 
     39 H           2.328200   67.362400   66.468000 H         1 <1>         0.201800 
     40 H           2.950600   66.789500   64.917300 H         1 <1>         0.180100 
     41 H           4.166800   64.966600   65.955800 H         1 <1>         0.113100 
     42 H           2.467400   64.924300   66.421400 H         1 <1>         0.164500 
     43 H           3.308600   69.548600   66.016400 H         1 <1>         0.289600 
     44 H           5.048500   69.721900   65.859900 H         1 <1>         0.268100 
     45 H           2.108800   69.861800   63.984700 H         1 <1>         0.179000 
     46 H           2.016200   69.899400   61.517400 H         1 <1>         0.185200 
     47 H           3.971800   69.159000   60.179900 H         1 <1>         0.183400 
     48 H           6.032500   68.377100   61.323000 H         1 <1>         0.181800 
     49 H           6.142000   68.331100   63.795000 H         1 <1>         0.194600 
     50 H           1.616600   56.870300   72.782900 H         1 <1>         0.096200 
     51 H           2.019100   57.328700   71.123500 H         1 <1>         0.046100 
     52 H           2.914100   58.043000   72.523600 H         1 <1>         0.046500 
     53 H          -2.639700   61.153000   73.324800 H         1 <1>         0.097800 
     54 H          -1.494400   62.479500   73.091900 H         1 <1>         0.043800 
     55 H          -2.380300   61.763800   71.686200 H         1 <1>         0.044400 
     56 H           5.086400   67.329000   65.720200 H         1 <1>         0.381400 
@<TRIPOS>BOND
     1    1    2 2    
     2    1    6 1    
     3    1   25 1    
     4    2    3 1    
     5    2   27 1    
     6    3    4 2    
     7    3   29 1    
     8    4    5 1    
     9    4    9 1    
    10    5    6 2    
    11    5    7 1    
    12    6   30 1    
    13    7    8 1    
    14    7   24 2    
    15    8    9 1    
    16    8   10 2    
    17    9   31 1    
    18    9   32 1    
    19   10   11 1    
    20   10   33 1    
    21   11   12 1    
    22   11   16 1    
    23   11   34 1    
    24   12   13 1    
    25   12   35 1    
    26   12   36 1    
    27   13   14 1    
    28   13   37 1    
    29   13   38 1    
    30   14   15 1    
    31   14   17 1    
    32   14   56 1    
    33   15   16 1    
    34   15   39 1    
    35   15   40 1    
    36   16   41 1    
    37   16   42 1    
    38   17   18 1    
    39   17   43 1    
    40   17   44 1    
    41   18   19 1    
    42   18   23 2    
    43   19   20 2    
    44   19   45 1    
    45   20   21 1    
    46   20   46 1    
    47   21   22 2    
    48   21   47 1    
    49   22   23 1    
    50   22   48 1    
    51   23   49 1    
    52   25   26 1    
    53   26   50 1    
    54   26   51 1    
    55   26   52 1    
    56   27   28 1    
    57   28   53 1    
    58   28   54 1    
    59   28   55 1    
@<TRIPOS>SUBSTRUCTURE
     1 ****        1 TEMP              0 ****  ****    0 ROOT 
@<TRIPOS>SET
UNITY_3DHIT     STATIC     ATOMS    <user>   **** Atoms matching 3D or FLEX Search
0
@<TRIPOS>UNITY_ATOM_ATTR
14 1
AtomExpr +1
@<TRIPOS>UNITY_BOND_ATTR
1 1
S I
6 1
S I
10 1
S I
16 1
S N
42 1
S N
43 1
S I
47 1
S I
