#	Name:			3-13a
#	Creating user name:	jeff
#	Creation time:		Thu Dec 19 21:52:04 2002

#	Modifying user name:	jeff
#	Modification time:	Thu Dec 19 21:52:05 2002

@<TRIPOS>MOLECULE
3-13a
   56    59     1     0     1
SMALL
USER_CHARGES
****
From 3DB ct
@<TRIPOS>ATOM
      1 C           1.184000   59.883200   71.529200 C.2       1 <1>         0.179200 
      2 C           0.189000   60.891800   71.661000 C.2       1 <1>         0.315100 
      3 C           0.316100   62.107200   70.971000 C.2       1 <1>        -0.291000 
      4 C           1.422000   62.300600   70.156100 C.2       1 <1>        -0.046000 
      5 C           2.381100   61.305700   70.040500 C.2       1 <1>        -0.433600 
      6 C           2.295600   60.095700   70.707500 C.2       1 <1>        -0.074900 
      7 C           3.417400   61.770300   69.124000 C.2       1 <1>         0.720300 
      8 C           3.003100   63.111700   68.536200 C.3       1 <1>         0.054700 
      9 C           1.771100   63.528300   69.372800 C.3       1 <1>         0.033500 
     10 C           4.152900   64.122700   68.576900 C.3       1 <1>        -0.638800 
     11 C           3.809600   65.519600   68.023000 C.3       1 <1>         0.322900 
     12 C           5.011300   66.460900   68.193300 C.3       1 <1>        -0.047800 
     13 C           4.682500   67.878000   67.675900 C.3       1 <1>         0.010200 
     14 N           4.145900   67.901800   66.303800 N.am      1 <1>        -0.436100 
     15 C           3.138300   66.894500   65.957500 C.3       1 <1>        -0.084800 
     16 C           3.399900   65.486200   66.544900 C.3       1 <1>        -0.211800 
     17 C           4.423300   69.045800   65.549100 C.2       1 <1>         0.703200 
     18 C           4.133600   69.090600   64.071900 C.2       1 <1>        -0.056000 
     19 C           2.976400   69.532700   63.413800 C.2       1 <1>        -0.174000 
     20 C           2.919600   69.555800   62.018800 C.2       1 <1>        -0.127000 
     21 C           4.017600   69.140400   61.267400 C.2       1 <1>        -0.130900 
     22 C           5.174300   68.701600   61.909000 C.2       1 <1>        -0.116200 
     23 C           5.233300   68.677400   63.303600 C.2       1 <1>        -0.189600 
     24 O           4.430400   61.137300   68.864900 O.2       1 <1>        -0.554000 
     25 O           0.963500   58.732700   72.250100 O.3       1 <1>        -0.396200 
     26 C           1.943300   57.701100   72.150300 C.3       1 <1>         0.089500 
     27 O          -0.860900   60.583200   72.494400 O.3       1 <1>        -0.387900 
     28 C          -1.887800   61.561700   72.642900 C.3       1 <1>         0.078600 
     29 H          -0.416500   62.904000   71.055500 H         1 <1>         0.180200 
     30 H           3.080900   59.361400   70.570100 H         1 <1>         0.183900 
     31 H           2.695200   62.913400   67.502200 H         1 <1>         0.024100 
     32 H           0.945900   63.831700   68.720400 H         1 <1>         0.029900 
     33 H           2.000800   64.345600   70.064900 H         1 <1>         0.054900 
     34 H           4.501700   64.224300   69.613700 H         1 <1>         0.175200 
     35 H           5.005000   63.712300   68.018400 H         1 <1>         0.147300 
     36 H           2.975000   65.936200   68.601400 H         1 <1>        -0.003100 
     37 H           5.242000   66.580700   69.258800 H         1 <1>         0.009300 
     38 H           5.901300   66.021700   67.723600 H         1 <1>         0.056900 
     39 H           3.956300   68.342800   68.370500 H         1 <1>         0.030900 
     40 H           5.595500   68.490900   67.723500 H         1 <1>         0.107000 
     41 H           2.147300   67.234500   66.316200 H         1 <1>         0.078100 
     42 H           3.058500   66.831800   64.861400 H         1 <1>         0.120800 
     43 H           4.166800   64.966600   65.955800 H         1 <1>         0.100300 
     44 H           2.467400   64.924300   66.421400 H         1 <1>         0.087800 
     45 O           5.024500   70.014400   66.001600 O.2       1 <1>        -0.620600 
     46 H           2.108800   69.861800   63.984700 H         1 <1>         0.149600 
     47 H           2.016200   69.899400   61.517400 H         1 <1>         0.146100 
     48 H           3.971800   69.159000   60.179900 H         1 <1>         0.144000 
     49 H           6.032500   68.377100   61.323000 H         1 <1>         0.143800 
     50 H           1.616600   56.870300   72.782900 H         1 <1>         0.082800 
     51 H           2.019100   57.328700   71.123500 H         1 <1>         0.042000 
     52 H           2.914100   58.043000   72.523600 H         1 <1>         0.046400 
     53 H          -2.639700   61.153000   73.324800 H         1 <1>         0.084900 
     54 H          -1.494400   62.479500   73.091900 H         1 <1>         0.047000 
     55 H          -2.380300   61.763800   71.686200 H         1 <1>         0.045100 
     56 H           6.026500   68.378000   63.732100 H         1 <1>         0.195200 
@<TRIPOS>BOND
     1    1    2 2    
     2    1    6 1    
     3    1   25 1    
     4    2    3 1    
     5    2   27 1    
     6    3    4 2    
     7    3   29 1    
     8    4    5 1    
     9    4    9 1    
    10    5    6 2    
    11    5    7 1    
    12    6   30 1    
    13    7    8 1    
    14    7   24 2    
    15    8    9 1    
    16    8   10 1    
    17    8   31 1    
    18    9   32 1    
    19    9   33 1    
    20   10   11 1    
    21   10   34 1    
    22   10   35 1    
    23   11   12 1    
    24   11   16 1    
    25   11   36 1    
    26   12   13 1    
    27   12   37 1    
    28   12   38 1    
    29   13   14 1    
    30   13   39 1    
    31   13   40 1    
    32   14   15 1    
    33   14   17 am   
    34   15   16 1    
    35   15   41 1    
    36   15   42 1    
    37   16   43 1    
    38   16   44 1    
    39   17   18 1    
    40   17   45 2    
    41   18   19 1    
    42   18   23 2    
    43   19   20 2    
    44   19   46 1    
    45   20   21 1    
    46   20   47 1    
    47   21   22 2    
    48   21   48 1    
    49   22   23 1    
    50   22   49 1    
    51   23   56 1    
    52   25   26 1    
    53   26   50 1    
    54   26   51 1    
    55   26   52 1    
    56   27   28 1    
    57   28   53 1    
    58   28   54 1    
    59   28   55 1    
@<TRIPOS>SUBSTRUCTURE
     1 ****        1 TEMP              0 ****  ****    0 ROOT 
@<TRIPOS>SET
UNITY_3DHIT     STATIC     ATOMS    <user>   **** Atoms matching 3D or FLEX Search
0
@<TRIPOS>UNITY_BOND_ATTR
1 1
S I
6 1
S I
10 1
S I
42 1
S N
43 1
S N
47 1
S N
