#	Name:			3-13n
#	Creating user name:	jeff
#	Creation time:		Thu Dec 19 21:51:53 2002

#	Modifying user name:	jeff
#	Modification time:	Thu Dec 19 21:51:54 2002

@<TRIPOS>MOLECULE
3-13n
   55    58     1     0     1
SMALL
USER_CHARGES
****
From 3DB ct
@<TRIPOS>ATOM
      1 C           1.509100   60.853900   71.322300 C.2       1 <1>         0.257000 
      2 C           0.514100   61.862500   71.454100 C.2       1 <1>         0.306200 
      3 C           0.641200   63.077900   70.764100 C.2       1 <1>        -0.414500 
      4 C           1.747100   63.271300   69.949200 C.2       1 <1>         0.140800 
      5 C           2.706200   62.276400   69.833600 C.2       1 <1>        -0.439300 
      6 C           2.620800   61.066400   70.500600 C.2       1 <1>        -0.133800 
      7 C           3.742500   62.741000   68.917100 C.2       1 <1>         0.732500 
      8 C           3.328200   64.082400   68.329300 C.3       1 <1>        -0.245100 
      9 C           2.096200   64.499000   69.165800 C.3       1 <1>        -0.151600 
     10 C           3.809600   65.519600   68.023000 C.3       1 <1>         0.029000 
     11 C           5.011300   66.460900   68.193300 C.3       1 <1>        -0.217100 
     12 C           4.743100   67.835600   67.580200 C.3       1 <1>        -0.149900 
     13 N           4.401900   67.723900   66.150800 N.4       1 <1>         0.161400 
     14 C           3.194400   66.895500   65.980500 C.3       1 <1>        -0.051800 
     15 C           3.399900   65.486200   66.544900 C.3       1 <1>        -0.304400 
     16 C           4.202300   69.076800   65.586300 C.3       1 <1>        -0.624600 
     17 C           4.133600   69.090600   64.071900 C.2       1 <1>         0.221500 
     18 C           2.976400   69.532700   63.413800 C.2       1 <1>        -0.266500 
     19 C           2.919600   69.555800   62.018800 C.2       1 <1>        -0.100200 
     20 C           4.017600   69.140400   61.267400 C.2       1 <1>        -0.108200 
     21 C           5.174300   68.701600   61.909000 C.2       1 <1>        -0.058500 
     22 C           5.233300   68.677400   63.303600 C.2       1 <1>        -0.303600 
     23 O           4.755600   62.108000   68.658000 O.2       1 <1>        -0.560400 
     24 O           1.288600   59.703400   72.043200 O.3       1 <1>        -0.364500 
     25 C           2.268500   58.671800   71.943400 C.3       1 <1>         0.035700 
     26 O          -0.535800   61.553900   72.287500 O.3       1 <1>        -0.410000 
     27 C          -1.562700   62.532400   72.436000 C.3       1 <1>         0.137300 
     28 H          -0.091300   63.874700   70.848600 H         1 <1>         0.256500 
     29 H           3.406100   60.332100   70.363200 H         1 <1>         0.200300 
     30 H           3.020400   63.884100   67.295300 H         1 <1>         0.139800 
     31 H           1.271000   64.802400   68.513500 H         1 <1>         0.100200 
     32 H           2.325900   65.316300   69.858000 H         1 <1>         0.070600 
     33 H           2.975000   65.936200   68.601400 H         1 <1>         0.093100 
     34 H           5.242000   66.580700   69.258800 H         1 <1>         0.162300 
     35 H           5.901300   66.021700   67.723600 H         1 <1>         0.119100 
     36 H           3.942000   68.339600   68.136700 H         1 <1>         0.184100 
     37 H           5.651400   68.439300   67.697700 H         1 <1>         0.155800 
     38 H           2.328200   67.362400   66.468000 H         1 <1>         0.166700 
     39 H           2.950600   66.789500   64.917300 H         1 <1>         0.141400 
     40 H           4.166800   64.966600   65.955800 H         1 <1>         0.127100 
     41 H           2.467400   64.924300   66.421400 H         1 <1>         0.157900 
     42 H           3.308600   69.548600   66.016400 H         1 <1>         0.269300 
     43 H           5.048500   69.721900   65.859900 H         1 <1>         0.259300 
     44 H           2.108800   69.861800   63.984700 H         1 <1>         0.196300 
     45 H           2.016200   69.899400   61.517400 H         1 <1>         0.183600 
     46 H           3.971800   69.159000   60.179900 H         1 <1>         0.185400 
     47 H           6.032500   68.377100   61.323000 H         1 <1>         0.169500 
     48 H           6.142000   68.331100   63.795000 H         1 <1>         0.187900 
     49 H           1.941700   57.841000   72.576000 H         1 <1>         0.110700 
     50 H           2.344200   58.299500   70.916600 H         1 <1>         0.062400 
     51 H           3.239200   59.013700   72.316700 H         1 <1>         0.050500 
     52 H          -2.314500   62.123700   73.117900 H         1 <1>         0.081300 
     53 H          -1.169300   63.450200   72.885000 H         1 <1>         0.023600 
     54 H          -2.055200   62.734500   71.479300 H         1 <1>         0.036500 
     55 H           5.086400   67.329000   65.720200 H         1 <1>         0.413300 
@<TRIPOS>BOND
     1    1    2 2    
     2    1    6 1    
     3    1   24 1    
     4    2    3 1    
     5    2   26 1    
     6    3    4 2    
     7    3   28 1    
     8    4    5 1    
     9    4    9 1    
    10    5    6 2    
    11    5    7 1    
    12    6   29 1    
    13    7    8 1    
    14    7   23 2    
    15    8    9 1    
    16    8   10 1    
    17    8   30 1    
    18    9   31 1    
    19    9   32 1    
    20   10   11 1    
    21   10   15 1    
    22   10   33 1    
    23   11   12 1    
    24   11   34 1    
    25   11   35 1    
    26   12   13 1    
    27   12   36 1    
    28   12   37 1    
    29   13   14 1    
    30   13   16 1    
    31   13   55 1    
    32   14   15 1    
    33   14   38 1    
    34   14   39 1    
    35   15   40 1    
    36   15   41 1    
    37   16   17 1    
    38   16   42 1    
    39   16   43 1    
    40   17   18 1    
    41   17   22 2    
    42   18   19 2    
    43   18   44 1    
    44   19   20 1    
    45   19   45 1    
    46   20   21 2    
    47   20   46 1    
    48   21   22 1    
    49   21   47 1    
    50   22   48 1    
    51   24   25 1    
    52   25   49 1    
    53   25   50 1    
    54   25   51 1    
    55   26   27 1    
    56   27   52 1    
    57   27   53 1    
    58   27   54 1    
@<TRIPOS>SUBSTRUCTURE
     1 ****        1 TEMP              0 ****  ****    0 ROOT 
@<TRIPOS>SET
UNITY_3DHIT     STATIC     ATOMS    <user>   **** Atoms matching 3D or FLEX Search
0
@<TRIPOS>UNITY_ATOM_ATTR
13 1
AtomExpr +1
@<TRIPOS>UNITY_BOND_ATTR
1 1
S I
6 1
S I
10 1
S I
41 1
S N
42 1
S N
46 1
S N
