#	Name:			3-13d
#	Creating user name:	jeff
#	Creation time:		Thu Dec 19 21:51:42 2002

#	Modifying user name:	jeff
#	Modification time:	Thu Dec 19 21:51:43 2002

@<TRIPOS>MOLECULE
3-13d
   56    59     1     0     1
SMALL
USER_CHARGES
****
From 3DB ct
@<TRIPOS>ATOM
      1 C           2.589800   60.069800   72.385600 C.2       1 <1>        -0.122200 
      2 C           1.198900   59.925800   72.329200 C.2       1 <1>        -0.097700 
      3 C           0.502200   60.346100   71.194700 C.2       1 <1>        -0.209500 
      4 C           1.163500   60.931400   70.107600 C.2       1 <1>         0.092600 
      5 C           2.552400   61.105900   70.181900 C.2       1 <1>        -0.172900 
      6 C           3.260000   60.655400   71.313200 C.2       1 <1>        -0.168900 
      7 C           3.417400   61.770300   69.124000 C.2       1 <1>         0.476400 
      8 C           2.990100   63.074200   68.460600 C.3       1 <1>         0.369800 
      9 C           4.152900   64.122700   68.576900 C.3       1 <1>        -0.835400 
     10 C           3.809600   65.519600   68.023000 C.3       1 <1>         0.200400 
     11 C           5.011300   66.460900   68.193300 C.3       1 <1>        -0.255500 
     12 C           4.743100   67.835600   67.580200 C.3       1 <1>        -0.180500 
     13 N           4.401900   67.723900   66.150800 N.4       1 <1>         0.217200 
     14 C           3.194400   66.895500   65.980500 C.3       1 <1>        -0.192000 
     15 C           3.399900   65.486200   66.544900 C.3       1 <1>        -0.241700 
     16 C           4.202300   69.076800   65.586300 C.3       1 <1>        -0.618200 
     17 C           4.133600   69.090600   64.071900 C.2       1 <1>         0.227100 
     18 C           2.976400   69.532700   63.413800 C.2       1 <1>        -0.227200 
     19 C           2.919600   69.555800   62.018800 C.2       1 <1>        -0.100200 
     20 C           4.017600   69.140400   61.267400 C.2       1 <1>        -0.101000 
     21 C           5.174300   68.701600   61.909000 C.2       1 <1>        -0.064000 
     22 C           5.233300   68.677400   63.303600 C.2       1 <1>        -0.347500 
     23 O           4.430400   61.137300   68.864900 O.2       1 <1>        -0.520700 
     24 H          -0.597700   60.205800   71.155500 H         1 <1>         0.179700 
     25 H           4.358200   60.782800   71.368500 H         1 <1>         0.201400 
     26 H           2.922800   62.775200   67.398900 H         1 <1>         0.001000 
     27 H           4.501700   64.224300   69.613700 H         1 <1>         0.229900 
     28 H           5.005000   63.712300   68.018400 H         1 <1>         0.228300 
     29 H           2.975000   65.936200   68.601400 H         1 <1>         0.099100 
     30 H           5.242000   66.580700   69.258800 H         1 <1>         0.163600 
     31 H           5.901300   66.021700   67.723600 H         1 <1>         0.125600 
     32 H           3.942000   68.339600   68.136700 H         1 <1>         0.186000 
     33 H           5.651400   68.439300   67.697700 H         1 <1>         0.167100 
     34 H           2.328200   67.362400   66.468000 H         1 <1>         0.194600 
     35 H           2.950600   66.789500   64.917300 H         1 <1>         0.159500 
     36 H           4.166800   64.966600   65.955800 H         1 <1>         0.119600 
     37 H           2.467400   64.924300   66.421400 H         1 <1>         0.172400 
     38 H           3.308600   69.548600   66.016400 H         1 <1>         0.276900 
     39 H           5.048500   69.721900   65.859900 H         1 <1>         0.253200 
     40 H           2.108800   69.861800   63.984700 H         1 <1>         0.178000 
     41 H           2.016200   69.899400   61.517400 H         1 <1>         0.180700 
     42 H           3.971800   69.159000   60.179900 H         1 <1>         0.184500 
     43 H           6.032500   68.377100   61.323000 H         1 <1>         0.175800 
     44 H           6.142000   68.331100   63.795000 H         1 <1>         0.203100 
     45 C           0.425300   61.318500   68.837900 C.3       1 <1>        -0.247100 
     46 H           0.955400   60.868900   67.979400 H         1 <1>         0.066200 
     47 H          -0.586400   60.881600   68.837800 H         1 <1>         0.102600 
     48 H           3.152100   59.725300   73.274800 H         1 <1>         0.156700 
     49 H           0.651800   59.464700   73.174000 H         1 <1>         0.159900 
     50 C           0.332700   62.840900   68.634800 C.3       1 <1>         0.036700 
     51 C           1.619000   63.648100   68.927000 C.3       1 <1>        -0.153300 
     52 H           0.007700   63.033800   67.596900 H         1 <1>         0.002700 
     53 H          -0.466000   63.247900   69.282400 H         1 <1>         0.039100 
     54 H           1.680600   63.836500   70.014700 H         1 <1>         0.069100 
     55 H           1.447100   64.635100   68.471000 H         1 <1>        -0.009300 
     56 H           5.086400   67.329000   65.720200 H         1 <1>         0.390100 
@<TRIPOS>BOND
     1    1    2 2    
     2    1    6 1    
     3    1   48 1    
     4    2    3 1    
     5    2   49 1    
     6    3    4 2    
     7    3   24 1    
     8    4    5 1    
     9    4   45 1    
    10    5    6 2    
    11    5    7 1    
    12    6   25 1    
    13    7    8 1    
    14    7   23 2    
    15    8    9 1    
    16    8   26 1    
    17    8   51 1    
    18    9   10 1    
    19    9   27 1    
    20    9   28 1    
    21   10   11 1    
    22   10   15 1    
    23   10   29 1    
    24   11   12 1    
    25   11   30 1    
    26   11   31 1    
    27   12   13 1    
    28   12   32 1    
    29   12   33 1    
    30   13   14 1    
    31   13   16 1    
    32   13   56 1    
    33   14   15 1    
    34   14   34 1    
    35   14   35 1    
    36   15   36 1    
    37   15   37 1    
    38   16   17 1    
    39   16   38 1    
    40   16   39 1    
    41   17   18 1    
    42   17   22 2    
    43   18   19 2    
    44   18   40 1    
    45   19   20 1    
    46   19   41 1    
    47   20   21 2    
    48   20   42 1    
    49   21   22 1    
    50   21   43 1    
    51   22   44 1    
    52   45   46 1    
    53   45   47 1    
    54   45   50 1    
    55   50   51 1    
    56   50   52 1    
    57   50   53 1    
    58   51   54 1    
    59   51   55 1    
@<TRIPOS>SUBSTRUCTURE
     1 ****        1 TEMP              0 ****  ****    0 ROOT 
@<TRIPOS>SET
UNITY_3DHIT     STATIC     ATOMS    <user>   **** Atoms matching 3D or FLEX Search
0
@<TRIPOS>UNITY_ATOM_ATTR
13 1
AtomExpr +1
@<TRIPOS>UNITY_BOND_ATTR
1 1
S I
6 1
S I
10 1
S I
42 1
S N
43 1
S I
47 1
S I
