#	Name:			3-13o
#	Creating user name:	jeff
#	Creation time:		Thu Dec 19 21:51:55 2002

#	Modifying user name:	jeff
#	Modification time:	Thu Dec 19 21:51:56 2002

@<TRIPOS>MOLECULE
3-13o
   61    64     1     0     1
SMALL
USER_CHARGES
****
From 3DB ct
@<TRIPOS>ATOM
      1 C           4.901200   63.657000   67.124500 C.3       1 <1>        -0.429200 
      2 C           4.385500   65.095300   67.167900 C.3       1 <1>         0.258200 
      3 C           5.277000   66.262800   67.639800 C.3       1 <1>        -0.314300 
      4 C           4.585700   67.625300   67.481800 C.3       1 <1>        -0.117600 
      5 N           4.192500   67.807300   66.080500 N.4       1 <1>         0.144800 
      6 C           3.199600   66.822100   65.639200 C.3       1 <1>        -0.213100 
      7 C           3.822900   65.410200   65.756800 C.3       1 <1>        -0.343000 
      8 C           4.330200   69.150900   65.515100 C.3       1 <1>        -0.595900 
      9 C           4.261200   69.199200   64.002100 C.2       1 <1>         0.206800 
     10 C           3.058300   69.612200   63.410300 C.2       1 <1>        -0.208400 
     11 C           2.913700   69.607300   62.021400 C.2       1 <1>        -0.118000 
     12 C           3.968500   69.192800   61.210100 C.2       1 <1>        -0.091100 
     13 C           5.169800   68.782800   61.785500 C.2       1 <1>        -0.070200 
     14 C           5.316600   68.786600   63.173700 C.2       1 <1>        -0.336200 
     15 H           5.538300   63.391100   67.987300 H         1 <1>         0.132800 
     16 H           5.511800   63.470100   66.224000 H         1 <1>         0.141700 
     17 H           3.531000   65.041100   67.868900 H         1 <1>         0.075900 
     18 H           5.582400   66.119700   68.690600 H         1 <1>         0.171400 
     19 H           6.206800   66.271700   67.039800 H         1 <1>         0.117900 
     20 H           3.714500   67.700400   68.159000 H         1 <1>         0.178300 
     21 H           5.282900   68.421400   67.792300 H         1 <1>         0.162100 
     22 H           2.272700   66.889500   66.238400 H         1 <1>         0.209200 
     23 H           2.902800   66.996500   64.592800 H         1 <1>         0.181000 
     24 H           4.650400   65.344100   65.024700 H         1 <1>         0.137400 
     25 H           3.077700   64.657900   65.449200 H         1 <1>         0.195200 
     26 H           3.573700   69.840000   65.931700 H         1 <1>         0.278200 
     27 H           5.314300   69.545100   65.823400 H         1 <1>         0.251700 
     28 H           2.206200   69.931000   64.044400 H         1 <1>         0.171700 
     29 H           1.955500   69.924800   61.567900 H         1 <1>         0.184600 
     30 H           3.851200   69.184900   60.109400 H         1 <1>         0.183600 
     31 H           6.007200   68.444900   61.145300 H         1 <1>         0.175600 
     32 H           6.268100   68.442500   63.627900 H         1 <1>         0.205200 
     33 C           3.650500   62.752200   67.118800 C.3       1 <1>        -0.145400 
     34 C           3.144700   62.870300   68.582200 C.3       1 <1>        -0.002600 
     35 C           3.435100   61.524900   69.075000 C.2       1 <1>         0.688300 
     36 O           4.412600   60.810700   68.875300 O.2       1 <1>        -0.534600 
     37 C           2.336000   61.261000   69.991000 C.2       1 <1>        -0.469700 
     38 C           2.181600   60.057400   70.705200 C.2       1 <1>        -0.067500 
     39 C           1.093700   59.881400   71.562700 C.2       1 <1>         0.183100 
     40 C           0.145100   60.903000   71.721100 C.2       1 <1>         0.355300 
     41 C           0.302700   62.103900   71.018200 C.2       1 <1>        -0.411100 
     42 C           1.393200   62.291300   70.161800 C.2       1 <1>         0.133700 
     43 H           2.890400   63.029800   66.377700 H         1 <1>         0.043200 
     44 H           3.924900   61.731600   66.803600 H         1 <1>         0.127800 
     45 H           2.920400   59.242700   70.579800 H         1 <1>         0.195300 
     46 H          -0.438000   62.916400   71.149300 H         1 <1>         0.227700 
     47 H           4.917000   67.435200   65.697600 H         1 <1>         0.411800 
     48 C           1.718200   63.346100   69.081900 C.3       1 <1>        -0.215700 
     49 C          -1.946100   61.649900   72.749800 C.3       1 <1>         0.085100 
     50 O          -0.912400   60.689000   72.569800 O.3       1 <1>        -0.395000 
     51 H          -2.471500   61.867600   71.807800 H         1 <1>         0.040000 
     52 H          -2.658000   61.201100   73.457300 H         1 <1>         0.094000 
     53 H          -1.562800   62.587700   73.178900 H         1 <1>         0.041800 
     54 C           1.806300   57.615900   72.165800 C.3       1 <1>         0.032200 
     55 O           0.912100   58.717900   72.271200 O.3       1 <1>        -0.373600 
     56 H           2.823000   57.878400   72.494800 H         1 <1>         0.059100 
     57 H           1.409600   56.837500   72.833000 H         1 <1>         0.106400 
     58 H           1.846600   57.215700   71.141500 H         1 <1>         0.058500 
     59 H           3.871200   63.433400   69.203400 H         1 <1>         0.048400 
     60 H           1.756100   64.362600   69.500500 H         1 <1>         0.076100 
     61 H           0.935900   63.334800   68.306100 H         1 <1>         0.102600 
@<TRIPOS>BOND
     1    1    2 1    
     2    1   15 1    
     3    1   16 1    
     4    1   33 1    
     5    2    3 1    
     6    2    7 1    
     7    2   17 1    
     8    3    4 1    
     9    3   18 1    
    10    3   19 1    
    11    4    5 1    
    12    4   20 1    
    13    4   21 1    
    14    5    6 1    
    15    5    8 1    
    16    5   47 1    
    17    6    7 1    
    18    6   22 1    
    19    6   23 1    
    20    7   24 1    
    21    7   25 1    
    22    8    9 1    
    23    8   26 1    
    24    8   27 1    
    25    9   10 1    
    26    9   14 2    
    27   10   11 2    
    28   10   28 1    
    29   11   12 1    
    30   11   29 1    
    31   12   13 2    
    32   12   30 1    
    33   13   14 1    
    34   13   31 1    
    35   14   32 1    
    36   33   34 1    
    37   33   43 1    
    38   33   44 1    
    39   34   35 1    
    40   34   48 1    
    41   34   59 1    
    42   35   36 2    
    43   35   37 1    
    44   37   38 2    
    45   37   42 1    
    46   38   39 1    
    47   38   45 1    
    48   39   40 2    
    49   39   55 1    
    50   40   41 1    
    51   40   50 1    
    52   41   42 2    
    53   41   46 1    
    54   42   48 1    
    55   48   60 1    
    56   48   61 1    
    57   50   49 1    
    58   49   51 1    
    59   49   52 1    
    60   49   53 1    
    61   55   54 1    
    62   54   56 1    
    63   54   57 1    
    64   54   58 1    
@<TRIPOS>SUBSTRUCTURE
     1 ****        1 TEMP              0 ****  ****    0 ROOT 
@<TRIPOS>SET
UNITY_3DHIT     STATIC     ATOMS    <user>   **** Atoms matching 3D or FLEX Search
0
@<TRIPOS>UNITY_ATOM_ATTR
5 1
AtomExpr +1
@<TRIPOS>UNITY_BOND_ATTR
26 1
S N
27 1
S N
31 1
S N
44 1
S I
48 1
S I
52 1
S I
