#	Name:			3-13k
#	Creating user name:	jeff
#	Creation time:		Thu Dec 19 21:51:50 2002

#	Modifying user name:	jeff
#	Modification time:	Thu Dec 19 21:51:51 2002

@<TRIPOS>MOLECULE
3-13k
   58    61     1     0     1
SMALL
USER_CHARGES
****
From 3DB ct
@<TRIPOS>ATOM
      1 C           1.184000   59.883200   71.529200 C.2       1 <1>        -0.200000 
      2 C           0.189000   60.891800   71.661000 C.2       1 <1>        -0.280100 
      3 C           0.316100   62.107200   70.971000 C.2       1 <1>         0.436700 
      4 C           1.422000   62.300600   70.156100 C.2       1 <1>        -0.308100 
      5 C           2.381100   61.305700   70.040500 C.2       1 <1>        -0.221100 
      6 C           2.295600   60.095700   70.707500 C.2       1 <1>         0.264400 
      7 C           3.417400   61.770300   69.124000 C.2       1 <1>         0.581700 
      8 C           3.003100   63.111700   68.536200 C.3       1 <1>         0.205300 
      9 C           1.771100   63.528300   69.372800 C.3       1 <1>         0.015800 
     10 C           4.152900   64.122700   68.576900 C.3       1 <1>        -0.622900 
     11 C           3.809600   65.519600   68.023000 C.3       1 <1>         0.312000 
     12 C           5.011300   66.460900   68.193300 C.3       1 <1>        -0.284600 
     13 C           4.743100   67.835600   67.580200 C.3       1 <1>        -0.102200 
     14 N           4.401900   67.723900   66.150800 N.4       1 <1>         0.217600 
     15 C           3.194400   66.895500   65.980500 C.3       1 <1>        -0.207100 
     16 C           3.399900   65.486200   66.544900 C.3       1 <1>        -0.341900 
     17 C           4.202300   69.076800   65.586300 C.3       1 <1>        -0.654100 
     18 C           4.133600   69.090600   64.071900 C.2       1 <1>         0.228200 
     19 C           2.976400   69.532700   63.413800 C.2       1 <1>        -0.223400 
     20 C           2.919600   69.555800   62.018800 C.2       1 <1>        -0.115100 
     21 C           4.017600   69.140400   61.267400 C.2       1 <1>        -0.092900 
     22 C           5.174300   68.701600   61.909000 C.2       1 <1>        -0.089600 
     23 C           5.233300   68.677400   63.303600 C.2       1 <1>        -0.314900 
     24 O           4.430400   61.137300   68.864900 O.2       1 <1>        -0.501300 
     25 H           2.695200   62.913400   67.502200 H         1 <1>        -0.011000 
     26 H           0.945900   63.831700   68.720400 H         1 <1>         0.025500 
     27 H           2.000800   64.345600   70.064900 H         1 <1>         0.049500 
     28 H           4.501700   64.224300   69.613700 H         1 <1>         0.192100 
     29 H           5.005000   63.712300   68.018400 H         1 <1>         0.148300 
     30 H           2.975000   65.936200   68.601400 H         1 <1>         0.029200 
     31 H           5.242000   66.580700   69.258800 H         1 <1>         0.147600 
     32 H           5.901300   66.021700   67.723600 H         1 <1>         0.118900 
     33 H           3.942000   68.339600   68.136700 H         1 <1>         0.174400 
     34 H           5.651400   68.439300   67.697700 H         1 <1>         0.146200 
     35 H           2.328200   67.362400   66.468000 H         1 <1>         0.200700 
     36 H           2.950600   66.789500   64.917300 H         1 <1>         0.173900 
     37 H           4.166800   64.966600   65.955800 H         1 <1>         0.139700 
     38 H           2.467400   64.924300   66.421400 H         1 <1>         0.200200 
     39 H           3.308600   69.548600   66.016400 H         1 <1>         0.283200 
     40 H           5.048500   69.721900   65.859900 H         1 <1>         0.260300 
     41 H           2.108800   69.861800   63.984700 H         1 <1>         0.179900 
     42 H           2.016200   69.899400   61.517400 H         1 <1>         0.184700 
     43 H           3.971800   69.159000   60.179900 H         1 <1>         0.185900 
     44 H           6.032500   68.377100   61.323000 H         1 <1>         0.181100 
     45 H           6.142000   68.331100   63.795000 H         1 <1>         0.195600 
     46 C           4.292000   59.078000   71.539400 C.3       1 <1>         0.096600 
     47 O           3.224900   59.077700   70.588000 O.3       1 <1>        -0.404900 
     48 H           3.911500   58.962400   72.565300 H         1 <1>         0.034600 
     49 H           4.941800   58.227900   71.294100 H         1 <1>         0.092300 
     50 H           4.876300   60.008900   71.481100 H         1 <1>         0.044900 
     51 C          -1.773500   62.988300   71.845400 C.3       1 <1>         0.025600 
     52 O          -0.597600   63.123500   71.055800 O.3       1 <1>        -0.404400 
     53 H          -1.535200   62.842400   72.909800 H         1 <1>         0.064000 
     54 H          -2.330800   63.928000   71.730400 H         1 <1>         0.100300 
     55 H          -2.403700   62.155300   71.498400 H         1 <1>         0.065600 
     56 H           1.081200   58.921000   72.068600 H         1 <1>         0.222000 
     57 H          -0.681400   60.699700   72.316400 H         1 <1>         0.192300 
     58 H           5.086400   67.329000   65.720200 H         1 <1>         0.384900 
@<TRIPOS>BOND
     1    1    2 2    
     2    1    6 1    
     3    1   56 1    
     4    2    3 1    
     5    2   57 1    
     6    3    4 2    
     7    3   52 1    
     8    4    5 1    
     9    4    9 1    
    10    5    6 2    
    11    5    7 1    
    12    6   47 1    
    13    7    8 1    
    14    7   24 2    
    15    8    9 1    
    16    8   10 1    
    17    8   25 1    
    18    9   26 1    
    19    9   27 1    
    20   10   11 1    
    21   10   28 1    
    22   10   29 1    
    23   11   12 1    
    24   11   16 1    
    25   11   30 1    
    26   12   13 1    
    27   12   31 1    
    28   12   32 1    
    29   13   14 1    
    30   13   33 1    
    31   13   34 1    
    32   14   15 1    
    33   14   17 1    
    34   14   58 1    
    35   15   16 1    
    36   15   35 1    
    37   15   36 1    
    38   16   37 1    
    39   16   38 1    
    40   17   18 1    
    41   17   39 1    
    42   17   40 1    
    43   18   19 1    
    44   18   23 2    
    45   19   20 2    
    46   19   41 1    
    47   20   21 1    
    48   20   42 1    
    49   21   22 2    
    50   21   43 1    
    51   22   23 1    
    52   22   44 1    
    53   23   45 1    
    54   47   46 1    
    55   46   48 1    
    56   46   49 1    
    57   46   50 1    
    58   52   51 1    
    59   51   53 1    
    60   51   54 1    
    61   51   55 1    
@<TRIPOS>SUBSTRUCTURE
     1 ****        1 TEMP              0 ****  ****    0 ROOT 
@<TRIPOS>SET
UNITY_3DHIT     STATIC     ATOMS    <user>   **** Atoms matching 3D or FLEX Search
0
@<TRIPOS>UNITY_ATOM_ATTR
14 1
AtomExpr +1
@<TRIPOS>UNITY_BOND_ATTR
1 1
S I
6 1
S I
10 1
S I
44 1
S N
45 1
S I
49 1
S I
