#	Name:			3-13e_E2020
#	Creating user name:	jeff
#	Creation time:		Thu Dec 19 21:51:43 2002

#	Modifying user name:	jeff
#	Modification time:	Thu Dec 19 21:51:44 2002

@<TRIPOS>MOLECULE
3-13e_E2020
   58    61     1     0     1
SMALL
USER_CHARGES
****
From 3DB ct
@<TRIPOS>ATOM
      1 C           1.184000   59.883200   71.529200 C.2       1 <1>         0.207300 
      2 C           0.189000   60.891800   71.661000 C.2       1 <1>         0.330100 
      3 C           0.316100   62.107200   70.971000 C.2       1 <1>        -0.291600 
      4 C           1.422000   62.300600   70.156100 C.2       1 <1>        -0.069400 
      5 C           2.381100   61.305700   70.040500 C.2       1 <1>        -0.437200 
      6 C           2.295600   60.095700   70.707500 C.2       1 <1>        -0.078100 
      7 C           3.417400   61.770300   69.124000 C.2       1 <1>         0.705200 
      8 C           3.003100   63.111700   68.536200 C.3       1 <1>         0.065900 
      9 C           1.771100   63.528300   69.372800 C.3       1 <1>         0.052800 
     10 C           4.152900   64.122700   68.576900 C.3       1 <1>        -0.554500 
     11 C           3.809600   65.519600   68.023000 C.3       1 <1>         0.291100 
     12 C           5.011300   66.460900   68.193300 C.3       1 <1>        -0.240800 
     13 C           4.743100   67.835600   67.580200 C.3       1 <1>        -0.116100 
     14 N           4.401900   67.723900   66.150800 N.4       1 <1>         0.212200 
     15 C           3.194400   66.895500   65.980500 C.3       1 <1>        -0.235700 
     16 C           3.399900   65.486200   66.544900 C.3       1 <1>        -0.340000 
     17 C           4.202300   69.076800   65.586300 C.3       1 <1>        -0.737700 
     18 C           4.133600   69.090600   64.071900 C.2       1 <1>         0.246200 
     19 C           2.976400   69.532700   63.413800 C.2       1 <1>        -0.220700 
     20 C           2.919600   69.555800   62.018800 C.2       1 <1>        -0.124500 
     21 C           4.017600   69.140400   61.267400 C.2       1 <1>        -0.081200 
     22 C           5.174300   68.701600   61.909000 C.2       1 <1>        -0.101300 
     23 C           5.233300   68.677400   63.303600 C.2       1 <1>        -0.305900 
     24 O           4.430400   61.137300   68.864900 O.2       1 <1>        -0.545600 
     25 O           0.963500   58.732700   72.250100 O.3       1 <1>        -0.387200 
     26 C           1.943300   57.701100   72.150300 C.3       1 <1>         0.077200 
     27 O          -0.860900   60.583200   72.494400 O.3       1 <1>        -0.389000 
     28 C          -1.887800   61.561700   72.642900 C.3       1 <1>         0.102600 
     29 H          -0.416500   62.904000   71.055500 H         1 <1>         0.185400 
     30 H           3.080900   59.361400   70.570100 H         1 <1>         0.193600 
     31 H           2.695200   62.913400   67.502200 H         1 <1>         0.009700 
     32 H           0.945900   63.831700   68.720400 H         1 <1>         0.016500 
     33 H           2.000800   64.345600   70.064900 H         1 <1>         0.038900 
     34 H           4.501700   64.224300   69.613700 H         1 <1>         0.177900 
     35 H           5.005000   63.712300   68.018400 H         1 <1>         0.141100 
     36 H           2.975000   65.936200   68.601400 H         1 <1>         0.023900 
     37 H           5.242000   66.580700   69.258800 H         1 <1>         0.138400 
     38 H           5.901300   66.021700   67.723600 H         1 <1>         0.107500 
     39 H           3.942000   68.339600   68.136700 H         1 <1>         0.180600 
     40 H           5.651400   68.439300   67.697700 H         1 <1>         0.150000 
     41 H           2.328200   67.362400   66.468000 H         1 <1>         0.212800 
     42 H           2.950600   66.789500   64.917300 H         1 <1>         0.187400 
     43 H           4.166800   64.966600   65.955800 H         1 <1>         0.141800 
     44 H           2.467400   64.924300   66.421400 H         1 <1>         0.199200 
     45 H           3.308600   69.548600   66.016400 H         1 <1>         0.306100 
     46 H           5.048500   69.721900   65.859900 H         1 <1>         0.286200 
     47 H           2.108800   69.861800   63.984700 H         1 <1>         0.180300 
     48 H           2.016200   69.899400   61.517400 H         1 <1>         0.187000 
     49 H           3.971800   69.159000   60.179900 H         1 <1>         0.183800 
     50 H           6.032500   68.377100   61.323000 H         1 <1>         0.183500 
     51 H           6.142000   68.331100   63.795000 H         1 <1>         0.195400 
     52 H           1.616600   56.870300   72.782900 H         1 <1>         0.098000 
     53 H           2.019100   57.328700   71.123500 H         1 <1>         0.046400 
     54 H           2.914100   58.043000   72.523600 H         1 <1>         0.048700 
     55 H          -2.639700   61.153000   73.324800 H         1 <1>         0.092400 
     56 H          -1.494400   62.479500   73.091900 H         1 <1>         0.037800 
     57 H          -2.380300   61.763800   71.686200 H         1 <1>         0.040700 
     58 H           5.086400   67.329000   65.720200 H         1 <1>         0.397000 
@<TRIPOS>BOND
     1    1    2 2    
     2    1    6 1    
     3    1   25 1    
     4    2    3 1    
     5    2   27 1    
     6    3    4 2    
     7    3   29 1    
     8    4    5 1    
     9    4    9 1    
    10    5    6 2    
    11    5    7 1    
    12    6   30 1    
    13    7    8 1    
    14    7   24 2    
    15    8    9 1    
    16    8   10 1    
    17    8   31 1    
    18    9   32 1    
    19    9   33 1    
    20   10   11 1    
    21   10   34 1    
    22   10   35 1    
    23   11   12 1    
    24   11   16 1    
    25   11   36 1    
    26   12   13 1    
    27   12   37 1    
    28   12   38 1    
    29   13   14 1    
    30   13   39 1    
    31   13   40 1    
    32   14   15 1    
    33   14   17 1    
    34   14   58 1    
    35   15   16 1    
    36   15   41 1    
    37   15   42 1    
    38   16   43 1    
    39   16   44 1    
    40   17   18 1    
    41   17   45 1    
    42   17   46 1    
    43   18   19 1    
    44   18   23 2    
    45   19   20 2    
    46   19   47 1    
    47   20   21 1    
    48   20   48 1    
    49   21   22 2    
    50   21   49 1    
    51   22   23 1    
    52   22   50 1    
    53   23   51 1    
    54   25   26 1    
    55   26   52 1    
    56   26   53 1    
    57   26   54 1    
    58   27   28 1    
    59   28   55 1    
    60   28   56 1    
    61   28   57 1    
@<TRIPOS>SUBSTRUCTURE
     1 ****        1 TEMP              0 ****  ****    0 ROOT 
@<TRIPOS>SET
UNITY_3DHIT     STATIC     ATOMS    <user>   **** Atoms matching 3D or FLEX Search
0
@<TRIPOS>UNITY_ATOM_ATTR
14 1
AtomExpr +1
@<TRIPOS>UNITY_BOND_ATTR
1 1
S I
6 1
S I
10 1
S I
44 1
S N
45 1
S I
49 1
S I
