#	Name:			3-13b
#	Creating user name:	jeff
#	Creation time:		Thu Dec 19 21:52:05 2002

#	Modifying user name:	jeff
#	Modification time:	Thu Dec 19 21:52:05 2002

@<TRIPOS>MOLECULE
3-13b
   45    47     1     0     1
SMALL
USER_CHARGES
****
From 3DB ct
@<TRIPOS>ATOM
      1 C           1.184000   59.883200   71.529200 C.2       1 <1>         0.204400 
      2 C           0.189000   60.891800   71.661000 C.2       1 <1>         0.341900 
      3 C           0.316100   62.107200   70.971000 C.2       1 <1>        -0.301500 
      4 C           1.422000   62.300600   70.156100 C.2       1 <1>        -0.059100 
      5 C           2.381100   61.305700   70.040500 C.2       1 <1>        -0.455600 
      6 C           2.295600   60.095700   70.707500 C.2       1 <1>        -0.067500 
      7 C           3.417400   61.770300   69.124000 C.2       1 <1>         0.739000 
      8 C           3.003100   63.111700   68.536200 C.3       1 <1>         0.002500 
      9 C           1.771100   63.528300   69.372800 C.3       1 <1>         0.064000 
     10 C           4.152900   64.122700   68.576900 C.3       1 <1>        -0.624100 
     11 C           3.809600   65.519600   68.023000 C.3       1 <1>         0.370400 
     12 C           5.011300   66.460900   68.193300 C.3       1 <1>        -0.258600 
     13 C           4.743100   67.835600   67.580200 C.3       1 <1>         0.003700 
     14 N           4.401900   67.723900   66.150800 N.4       1 <1>        -0.231500 
     15 C           3.194400   66.895500   65.980500 C.3       1 <1>        -0.066900 
     16 C           3.399900   65.486200   66.544900 C.3       1 <1>        -0.368900 
     17 O           4.430400   61.137300   68.864900 O.2       1 <1>        -0.546900 
     18 O           0.963500   58.732700   72.250100 O.3       1 <1>        -0.392900 
     19 C           1.943300   57.701100   72.150300 C.3       1 <1>         0.086200 
     20 O          -0.860900   60.583200   72.494400 O.3       1 <1>        -0.384200 
     21 C          -1.887800   61.561700   72.642900 C.3       1 <1>         0.089800 
     22 H          -0.416500   62.904000   71.055500 H         1 <1>         0.185600 
     23 H           3.080900   59.361400   70.570100 H         1 <1>         0.188800 
     24 H           2.695200   62.913400   67.502200 H         1 <1>         0.031000 
     25 H           0.945900   63.831700   68.720400 H         1 <1>         0.022100 
     26 H           2.000800   64.345600   70.064900 H         1 <1>         0.039100 
     27 H           4.501700   64.224300   69.613700 H         1 <1>         0.204200 
     28 H           5.005000   63.712300   68.018400 H         1 <1>         0.156000 
     29 H           2.975000   65.936200   68.601400 H         1 <1>         0.012300 
     30 H           5.242000   66.580700   69.258800 H         1 <1>         0.132800 
     31 H           5.901300   66.021700   67.723600 H         1 <1>         0.125500 
     32 H           3.942000   68.339600   68.136700 H         1 <1>         0.161700 
     33 H           5.651400   68.439300   67.697700 H         1 <1>         0.127400 
     34 H           2.328200   67.362400   66.468000 H         1 <1>         0.178900 
     35 H           2.950600   66.789500   64.917300 H         1 <1>         0.154700 
     36 H           4.166800   64.966600   65.955800 H         1 <1>         0.163400 
     37 H           2.467400   64.924300   66.421400 H         1 <1>         0.193800 
     38 H           1.616600   56.870300   72.782900 H         1 <1>         0.097500 
     39 H           2.019100   57.328700   71.123500 H         1 <1>         0.045100 
     40 H           2.914100   58.043000   72.523600 H         1 <1>         0.047100 
     41 H          -2.639700   61.153000   73.324800 H         1 <1>         0.095500 
     42 H          -1.494400   62.479500   73.091900 H         1 <1>         0.040900 
     43 H          -2.380300   61.763800   71.686200 H         1 <1>         0.044500 
     44 H           5.086400   67.329000   65.720200 H         1 <1>         0.442700 
     45 H           4.259100   68.543500   65.807500 H         1 <1>         0.387100 
@<TRIPOS>BOND
     1    1    2 2    
     2    1    6 1    
     3    1   18 1    
     4    2    3 1    
     5    2   20 1    
     6    3    4 2    
     7    3   22 1    
     8    4    5 1    
     9    4    9 1    
    10    5    6 2    
    11    5    7 1    
    12    6   23 1    
    13    7    8 1    
    14    7   17 2    
    15    8    9 1    
    16    8   10 1    
    17    8   24 1    
    18    9   25 1    
    19    9   26 1    
    20   10   11 1    
    21   10   27 1    
    22   10   28 1    
    23   11   12 1    
    24   11   16 1    
    25   11   29 1    
    26   12   13 1    
    27   12   30 1    
    28   12   31 1    
    29   13   14 1    
    30   13   32 1    
    31   13   33 1    
    32   14   15 1    
    33   14   44 1    
    34   14   45 1    
    35   15   16 1    
    36   15   34 1    
    37   15   35 1    
    38   16   36 1    
    39   16   37 1    
    40   18   19 1    
    41   19   38 1    
    42   19   39 1    
    43   19   40 1    
    44   20   21 1    
    45   21   41 1    
    46   21   42 1    
    47   21   43 1    
@<TRIPOS>SUBSTRUCTURE
     1 ****        1 TEMP              0 ****  ****    0 ROOT 
@<TRIPOS>SET
UNITY_3DHIT     STATIC     ATOMS    <user>   **** Atoms matching 3D or FLEX Search
0
@<TRIPOS>UNITY_ATOM_ATTR
14 1
AtomExpr +1
@<TRIPOS>UNITY_BOND_ATTR
1 1
S I
6 1
S I
10 1
S I
