#	Name:			3-13l
#	Creating user name:	jeff
#	Creation time:		Thu Dec 19 21:51:51 2002

#	Modifying user name:	jeff
#	Modification time:	Thu Dec 19 21:51:52 2002

@<TRIPOS>MOLECULE
3-13l
   58    61     1     0     1
SMALL
USER_CHARGES
****
From 3DB ct
@<TRIPOS>ATOM
      1 C           1.184000   59.883200   71.529200 C.2       1 <1>        -0.212700 
      2 C           0.189000   60.891800   71.661000 C.2       1 <1>         0.279800 
      3 C           0.316100   62.107200   70.971000 C.2       1 <1>         0.031700 
      4 C           1.422000   62.300600   70.156100 C.2       1 <1>         0.024300 
      5 C           2.381100   61.305700   70.040500 C.2       1 <1>        -0.348500 
      6 C           2.295600   60.095700   70.707500 C.2       1 <1>        -0.058700 
      7 C           3.417400   61.770300   69.124000 C.2       1 <1>         0.669700 
      8 C           3.003100   63.111700   68.536200 C.3       1 <1>        -0.053100 
      9 C           1.771100   63.528300   69.372800 C.3       1 <1>        -0.021000 
     10 C           4.152900   64.122700   68.576900 C.3       1 <1>        -0.523300 
     11 C           3.809600   65.519600   68.023000 C.3       1 <1>         0.308800 
     12 C           5.011300   66.460900   68.193300 C.3       1 <1>        -0.305100 
     13 C           4.743100   67.835600   67.580200 C.3       1 <1>        -0.077200 
     14 N           4.401900   67.723900   66.150800 N.4       1 <1>         0.213300 
     15 C           3.194400   66.895500   65.980500 C.3       1 <1>        -0.200600 
     16 C           3.399900   65.486200   66.544900 C.3       1 <1>        -0.331300 
     17 C           4.202300   69.076800   65.586300 C.3       1 <1>        -0.722400 
     18 C           4.133600   69.090600   64.071900 C.2       1 <1>         0.233100 
     19 C           2.976400   69.532700   63.413800 C.2       1 <1>        -0.209800 
     20 C           2.919600   69.555800   62.018800 C.2       1 <1>        -0.122700 
     21 C           4.017600   69.140400   61.267400 C.2       1 <1>        -0.080300 
     22 C           5.174300   68.701600   61.909000 C.2       1 <1>        -0.094800 
     23 C           5.233300   68.677400   63.303600 C.2       1 <1>        -0.313800 
     24 O           4.430400   61.137300   68.864900 O.2       1 <1>        -0.524600 
     25 O          -0.860900   60.583200   72.494400 O.3       1 <1>        -0.405300 
     26 C          -1.887800   61.561700   72.642900 C.3       1 <1>         0.017400 
     27 H           3.080900   59.361400   70.570100 H         1 <1>         0.202000 
     28 H           2.695200   62.913400   67.502200 H         1 <1>         0.057000 
     29 H           0.945900   63.831700   68.720400 H         1 <1>         0.041100 
     30 H           2.000800   64.345600   70.064900 H         1 <1>         0.080000 
     31 H           4.501700   64.224300   69.613700 H         1 <1>         0.174000 
     32 H           5.005000   63.712300   68.018400 H         1 <1>         0.149800 
     33 H           2.975000   65.936200   68.601400 H         1 <1>         0.024400 
     34 H           5.242000   66.580700   69.258800 H         1 <1>         0.151500 
     35 H           5.901300   66.021700   67.723600 H         1 <1>         0.116700 
     36 H           3.942000   68.339600   68.136700 H         1 <1>         0.170200 
     37 H           5.651400   68.439300   67.697700 H         1 <1>         0.143800 
     38 H           2.328200   67.362400   66.468000 H         1 <1>         0.202300 
     39 H           2.950600   66.789500   64.917300 H         1 <1>         0.174200 
     40 H           4.166800   64.966600   65.955800 H         1 <1>         0.133500 
     41 H           2.467400   64.924300   66.421400 H         1 <1>         0.196100 
     42 H           3.308600   69.548600   66.016400 H         1 <1>         0.302200 
     43 H           5.048500   69.721900   65.859900 H         1 <1>         0.280100 
     44 H           2.108800   69.861800   63.984700 H         1 <1>         0.177200 
     45 H           2.016200   69.899400   61.517400 H         1 <1>         0.184800 
     46 H           3.971800   69.159000   60.179900 H         1 <1>         0.182200 
     47 H           6.032500   68.377100   61.323000 H         1 <1>         0.181400 
     48 H           6.142000   68.331100   63.795000 H         1 <1>         0.197500 
     49 H          -2.639700   61.153000   73.324800 H         1 <1>         0.107000 
     50 H          -1.494400   62.479500   73.091900 H         1 <1>         0.074200 
     51 H          -2.380300   61.763800   71.686200 H         1 <1>         0.062100 
     52 C          -0.260600   64.345300   71.724100 C.3       1 <1>        -0.030100 
     53 O          -0.595700   63.161200   70.999000 O.3       1 <1>        -0.354000 
     54 H           0.232100   65.084700   71.075700 H         1 <1>         0.064500 
     55 H           0.393300   64.133100   72.583100 H         1 <1>         0.109900 
     56 H          -1.200800   64.780600   72.093100 H         1 <1>         0.097800 
     57 H           1.056800   58.934500   72.087600 H         1 <1>         0.204100 
     58 H           5.086400   67.329000   65.720200 H         1 <1>         0.391700 
@<TRIPOS>BOND
     1    1    2 2    
     2    1    6 1    
     3    1   57 1    
     4    2    3 1    
     5    2   25 1    
     6    3    4 2    
     7    3   53 1    
     8    4    5 1    
     9    4    9 1    
    10    5    6 2    
    11    5    7 1    
    12    6   27 1    
    13    7    8 1    
    14    7   24 2    
    15    8    9 1    
    16    8   10 1    
    17    8   28 1    
    18    9   29 1    
    19    9   30 1    
    20   10   11 1    
    21   10   31 1    
    22   10   32 1    
    23   11   12 1    
    24   11   16 1    
    25   11   33 1    
    26   12   13 1    
    27   12   34 1    
    28   12   35 1    
    29   13   14 1    
    30   13   36 1    
    31   13   37 1    
    32   14   15 1    
    33   14   17 1    
    34   14   58 1    
    35   15   16 1    
    36   15   38 1    
    37   15   39 1    
    38   16   40 1    
    39   16   41 1    
    40   17   18 1    
    41   17   42 1    
    42   17   43 1    
    43   18   19 1    
    44   18   23 2    
    45   19   20 2    
    46   19   44 1    
    47   20   21 1    
    48   20   45 1    
    49   21   22 2    
    50   21   46 1    
    51   22   23 1    
    52   22   47 1    
    53   23   48 1    
    54   25   26 1    
    55   26   49 1    
    56   26   50 1    
    57   26   51 1    
    58   53   52 1    
    59   52   54 1    
    60   52   55 1    
    61   52   56 1    
@<TRIPOS>SUBSTRUCTURE
     1 ****        1 TEMP              0 ****  ****    0 ROOT 
@<TRIPOS>SET
UNITY_3DHIT     STATIC     ATOMS    <user>   **** Atoms matching 3D or FLEX Search
0
@<TRIPOS>UNITY_ATOM_ATTR
14 1
AtomExpr +1
@<TRIPOS>UNITY_BOND_ATTR
1 1
S I
6 1
S I
10 1
S I
44 1
S N
45 1
S I
49 1
S I
