#	Name:			3-13c
#	Creating user name:	jeff
#	Creation time:		Thu Dec 19 21:51:41 2002

#	Modifying user name:	jeff
#	Modification time:	Thu Dec 19 21:51:42 2002

@<TRIPOS>MOLECULE
3-13c
   53    56     1     0     1
SMALL
USER_CHARGES
****
From 3DB ct
@<TRIPOS>ATOM
      1 C           2.123900   59.426400   71.807900 C.2       1 <1>        -0.204200 
      2 C           0.788000   59.824000   71.939400 C.2       1 <1>        -0.046100 
      3 C           0.290900   60.855100   71.141700 C.2       1 <1>        -0.260600 
      4 C           1.105900   61.509100   70.209900 C.2       1 <1>         0.204900 
      5 C           2.443700   61.117900   70.084700 C.2       1 <1>        -0.315100 
      6 C           2.946800   60.068800   70.885500 C.2       1 <1>        -0.020100 
      7 C           3.417400   61.770300   69.124000 C.2       1 <1>         0.566700 
      8 C           2.996500   63.094200   68.506500 C.3       1 <1>         0.151700 
      9 C           4.152900   64.122700   68.576900 C.3       1 <1>        -0.716700 
     10 C           3.809600   65.519600   68.023000 C.3       1 <1>         0.387100 
     11 C           5.011300   66.460900   68.193300 C.3       1 <1>        -0.298800 
     12 C           4.743100   67.835600   67.580200 C.3       1 <1>        -0.141900 
     13 N           4.401900   67.723900   66.150800 N.4       1 <1>         0.193300 
     14 C           3.194400   66.895500   65.980500 C.3       1 <1>        -0.267300 
     15 C           3.399900   65.486200   66.544900 C.3       1 <1>        -0.205900 
     16 C           4.202300   69.076800   65.586300 C.3       1 <1>        -0.640800 
     17 C           4.133600   69.090600   64.071900 C.2       1 <1>         0.212200 
     18 C           2.976400   69.532700   63.413800 C.2       1 <1>        -0.218000 
     19 C           2.919600   69.555800   62.018800 C.2       1 <1>        -0.119700 
     20 C           4.017600   69.140400   61.267400 C.2       1 <1>        -0.077700 
     21 C           5.174300   68.701600   61.909000 C.2       1 <1>        -0.109400 
     22 C           5.233300   68.677400   63.303600 C.2       1 <1>        -0.294600 
     23 O           4.430400   61.137300   68.864900 O.2       1 <1>        -0.515400 
     24 H          -0.771200   61.158400   71.246300 H         1 <1>         0.180000 
     25 H           4.002000   59.747100   70.800900 H         1 <1>         0.166500 
     26 H           2.837700   62.811400   67.450100 H         1 <1>         0.020900 
     27 H           4.501700   64.224300   69.613700 H         1 <1>         0.202000 
     28 H           5.005000   63.712300   68.018400 H         1 <1>         0.178300 
     29 H           2.975000   65.936200   68.601400 H         1 <1>        -0.001000 
     30 H           5.242000   66.580700   69.258800 H         1 <1>         0.154600 
     31 H           5.901300   66.021700   67.723600 H         1 <1>         0.120500 
     32 H           3.942000   68.339600   68.136700 H         1 <1>         0.183500 
     33 H           5.651400   68.439300   67.697700 H         1 <1>         0.163700 
     34 H           2.328200   67.362400   66.468000 H         1 <1>         0.214200 
     35 H           2.950600   66.789500   64.917300 H         1 <1>         0.182500 
     36 H           4.166800   64.966600   65.955800 H         1 <1>         0.102700 
     37 H           2.467400   64.924300   66.421400 H         1 <1>         0.155700 
     38 H           3.308600   69.548600   66.016400 H         1 <1>         0.285200 
     39 H           5.048500   69.721900   65.859900 H         1 <1>         0.258700 
     40 H           2.108800   69.861800   63.984700 H         1 <1>         0.180400 
     41 H           2.016200   69.899400   61.517400 H         1 <1>         0.184400 
     42 H           3.971800   69.159000   60.179900 H         1 <1>         0.182700 
     43 H           6.032500   68.377100   61.323000 H         1 <1>         0.184800 
     44 H           6.142000   68.331100   63.795000 H         1 <1>         0.192900 
     45 C           1.677400   63.667400   69.084900 C.3       1 <1>         0.041500 
     46 C           0.574900   62.618500   69.311900 C.3       1 <1>        -0.435500 
     47 H           1.894000   64.148400   70.057600 H         1 <1>         0.051300 
     48 H           1.295500   64.461900   68.423200 H         1 <1>         0.002200 
     49 H           0.249800   62.187300   68.348400 H         1 <1>         0.130000 
     50 H          -0.312000   63.084300   69.771000 H         1 <1>         0.151400 
     51 H           2.525500   58.606300   72.434000 H         1 <1>         0.173900 
     52 H           0.126300   59.319200   72.669500 H         1 <1>         0.156100 
     53 H           5.086400   67.329000   65.720200 H         1 <1>         0.394200 
@<TRIPOS>BOND
     1    1    2 2    
     2    1    6 1    
     3    1   51 1    
     4    2    3 1    
     5    2   52 1    
     6    3    4 2    
     7    3   24 1    
     8    4    5 1    
     9    4   46 1    
    10    5    6 2    
    11    5    7 1    
    12    6   25 1    
    13    7    8 1    
    14    7   23 2    
    15    8    9 1    
    16    8   26 1    
    17    8   45 1    
    18    9   10 1    
    19    9   27 1    
    20    9   28 1    
    21   10   11 1    
    22   10   15 1    
    23   10   29 1    
    24   11   12 1    
    25   11   30 1    
    26   11   31 1    
    27   12   13 1    
    28   12   32 1    
    29   12   33 1    
    30   13   14 1    
    31   13   16 1    
    32   13   53 1    
    33   14   15 1    
    34   14   34 1    
    35   14   35 1    
    36   15   36 1    
    37   15   37 1    
    38   16   17 1    
    39   16   38 1    
    40   16   39 1    
    41   17   18 1    
    42   17   22 2    
    43   18   19 2    
    44   18   40 1    
    45   19   20 1    
    46   19   41 1    
    47   20   21 2    
    48   20   42 1    
    49   21   22 1    
    50   21   43 1    
    51   22   44 1    
    52   45   46 1    
    53   45   47 1    
    54   45   48 1    
    55   46   49 1    
    56   46   50 1    
@<TRIPOS>SUBSTRUCTURE
     1 ****        1 TEMP              0 ****  ****    0 ROOT 
@<TRIPOS>SET
UNITY_3DHIT     STATIC     ATOMS    <user>   **** Atoms matching 3D or FLEX Search
0
@<TRIPOS>UNITY_ATOM_ATTR
13 1
AtomExpr +1
@<TRIPOS>UNITY_BOND_ATTR
1 1
S I
6 1
S I
10 1
S I
42 1
S N
43 1
S N
47 1
S N
