#	Name:			3-16h
#	Creating user name:	jeff
#	Creation time:		Thu Dec 19 21:52:06 2002

#	Modifying user name:	jeff
#	Modification time:	Thu Dec 19 21:52:07 2002

@<TRIPOS>MOLECULE
3-16h
   61    64     1     0     1
SMALL
USER_CHARGES
****
From 3DB ct
@<TRIPOS>ATOM
      1 C           3.922800   69.253300   65.604300 C.3       1 <1>        -0.000100 
      2 C           4.391200   69.809200   62.862100 C.2       1 <1>         0.031900 
      3 C           3.188300   70.222200   62.270300 C.2       1 <1>        -0.221100 
      4 C           3.043700   70.217300   60.881400 C.2       1 <1>        -0.142900 
      5 C           4.098500   69.802800   60.070100 C.2       1 <1>        -0.074500 
      6 C           5.299800   69.392800   60.645500 C.2       1 <1>        -0.138500 
      7 C           5.446600   69.396600   62.033700 C.2       1 <1>        -0.240400 
      8 H           2.821600   69.336900   65.566700 H         1 <1>         0.130000 
      9 H           4.247500   69.890900   66.453700 H         1 <1>         0.142800 
     10 H           2.336200   70.541000   62.904400 H         1 <1>         0.191200 
     11 H           2.085500   70.534800   60.427900 H         1 <1>         0.181900 
     12 H           3.981200   69.794900   58.969400 H         1 <1>         0.171600 
     13 H           6.137200   69.054900   60.005300 H         1 <1>         0.177500 
     14 H           6.269600   69.116700   62.416800 H         1 <1>         0.172700 
     15 C           4.630300   69.922600   64.381700 C.3       1 <1>        -0.319100 
     16 H           4.431200   70.985100   64.625500 H         1 <1>         0.182600 
     17 H           5.719900   69.833600   64.545100 H         1 <1>         0.119800 
     18 C           1.184000   59.883200   71.529200 C.2       1 <1>         0.228100 
     19 C           0.189000   60.891800   71.661000 C.2       1 <1>         0.326300 
     20 C           0.316100   62.107200   70.971000 C.2       1 <1>        -0.323200 
     21 C           1.422000   62.300600   70.156100 C.2       1 <1>         0.000700 
     22 C           2.381100   61.305700   70.040500 C.2       1 <1>        -0.409900 
     23 C           2.295600   60.095700   70.707500 C.2       1 <1>        -0.108100 
     24 C           3.417400   61.770300   69.124000 C.2       1 <1>         0.692900 
     25 C           3.003100   63.111700   68.536200 C.3       1 <1>         0.102500 
     26 C           1.771100   63.528300   69.372800 C.3       1 <1>        -0.134700 
     27 C           4.152900   64.122700   68.576900 C.3       1 <1>        -0.648000 
     28 C           3.809600   65.519600   68.023000 C.3       1 <1>         0.342200 
     29 C           5.011300   66.460900   68.193300 C.3       1 <1>        -0.221200 
     30 C           4.743100   67.835600   67.580200 C.3       1 <1>        -0.231100 
     31 N           4.401900   67.723900   66.150800 N.4       1 <1>        -0.031100 
     32 C           3.194400   66.895500   65.980500 C.3       1 <1>        -0.258100 
     33 C           3.399900   65.486200   66.544900 C.3       1 <1>        -0.287500 
     34 O           4.430400   61.137300   68.864900 O.2       1 <1>        -0.535400 
     35 O           0.963500   58.732700   72.250100 O.3       1 <1>        -0.393600 
     36 C           1.943300   57.701100   72.150300 C.3       1 <1>         0.099800 
     37 O          -0.860900   60.583200   72.494400 O.3       1 <1>        -0.400300 
     38 C          -1.887800   61.561700   72.642900 C.3       1 <1>         0.096600 
     39 H          -0.416500   62.904000   71.055500 H         1 <1>         0.200200 
     40 H           3.080900   59.361400   70.570100 H         1 <1>         0.198700 
     41 H           2.695200   62.913400   67.502200 H         1 <1>         0.023500 
     42 H           0.945900   63.831700   68.720400 H         1 <1>         0.061700 
     43 H           2.000800   64.345600   70.064900 H         1 <1>         0.087500 
     44 H           4.501700   64.224300   69.613700 H         1 <1>         0.198900 
     45 H           5.005000   63.712300   68.018400 H         1 <1>         0.159700 
     46 H           2.975000   65.936200   68.601400 H         1 <1>         0.028400 
     47 H           5.242000   66.580700   69.258800 H         1 <1>         0.141200 
     48 H           5.901300   66.021700   67.723600 H         1 <1>         0.110700 
     49 H           3.942000   68.339600   68.136700 H         1 <1>         0.212000 
     50 H           5.651400   68.439300   67.697700 H         1 <1>         0.201300 
     51 H           2.328200   67.362400   66.468000 H         1 <1>         0.206000 
     52 H           2.950600   66.789500   64.917300 H         1 <1>         0.192800 
     53 H           4.166800   64.966600   65.955800 H         1 <1>         0.141700 
     54 H           2.467400   64.924300   66.421400 H         1 <1>         0.181500 
     55 H           1.616600   56.870300   72.782900 H         1 <1>         0.091300 
     56 H           2.019100   57.328700   71.123500 H         1 <1>         0.042200 
     57 H           2.914100   58.043000   72.523600 H         1 <1>         0.042000 
     58 H          -2.639700   61.153000   73.324800 H         1 <1>         0.097500 
     59 H          -1.494400   62.479500   73.091900 H         1 <1>         0.038400 
     60 H          -2.380300   61.763800   71.686200 H         1 <1>         0.041700 
     61 H           5.086400   67.329000   65.720200 H         1 <1>         0.450800 
@<TRIPOS>BOND
     1    1    8 1    
     2    1    9 1    
     3    1   15 1    
     4   31    1 1    
     5    2    3 1    
     6    2    7 2    
     7   15    2 1    
     8    3    4 2    
     9    3   10 1    
    10    4    5 1    
    11    4   11 1    
    12    6    5 2    
    13    5   12 1    
    14    7    6 1    
    15    6   13 1    
    16    7   14 1    
    17   15   16 1    
    18   15   17 1    
    19   19   18 2    
    20   23   18 1    
    21   18   35 1    
    22   20   19 1    
    23   19   37 1    
    24   21   20 2    
    25   20   39 1    
    26   21   22 1    
    27   26   21 1    
    28   22   23 2    
    29   24   22 1    
    30   23   40 1    
    31   25   24 1    
    32   24   34 2    
    33   25   26 1    
    34   27   25 1    
    35   25   41 1    
    36   26   42 1    
    37   26   43 1    
    38   28   27 1    
    39   27   44 1    
    40   27   45 1    
    41   29   28 1    
    42   28   33 1    
    43   28   46 1    
    44   30   29 1    
    45   29   47 1    
    46   29   48 1    
    47   30   31 1    
    48   30   49 1    
    49   30   50 1    
    50   31   32 1    
    51   31   61 1    
    52   32   33 1    
    53   32   51 1    
    54   32   52 1    
    55   33   53 1    
    56   33   54 1    
    57   35   36 1    
    58   36   55 1    
    59   36   56 1    
    60   36   57 1    
    61   37   38 1    
    62   38   58 1    
    63   38   59 1    
    64   38   60 1    
@<TRIPOS>SUBSTRUCTURE
     1 ****       18 TEMP              0 ****  ****    0 ROOT 
@<TRIPOS>SET
UNITY_3DHIT     STATIC     ATOMS    <user>   **** Atoms matching 3D or FLEX Search
0
@<TRIPOS>UNITY_ATOM_ATTR
31 1
AtomExpr +1
@<TRIPOS>UNITY_BOND_ATTR
6 1
S N
8 1
S N
12 1
S N
19 1
S I
24 1
S N
28 1
S N
