#	Name:			3-18
#	Creating user name:	jeff
#	Creation time:		Thu Dec 19 21:51:45 2002

#	Modifying user name:	jeff
#	Modification time:	Thu Dec 19 21:51:45 2002

@<TRIPOS>MOLECULE
3-18
   57    60     1     0     1
SMALL
USER_CHARGES
****
From 3DB ct
@<TRIPOS>ATOM
      1 C           1.184000   59.883200   71.529200 C.2       1 <1>        -0.051200 
      2 C           0.189000   60.891800   71.661000 C.2       1 <1>         0.407000 
      3 C           0.316100   62.107200   70.971000 C.2       1 <1>        -0.386500 
      4 C           1.422000   62.300600   70.156100 C.2       1 <1>         0.016700 
      5 C           2.381100   61.305700   70.040500 C.2       1 <1>        -0.134500 
      6 C           2.295600   60.095700   70.707500 C.2       1 <1>        -0.055500 
      7 C           3.417400   61.770300   69.124000 C.2       1 <1>        -0.204400 
      8 C           3.003100   63.111700   68.536200 C.2       1 <1>         0.151800 
      9 C           1.771100   63.528300   69.372800 C.3       1 <1>        -0.182300 
     10 C           4.152900   64.122700   68.576900 C.3       1 <1>        -0.734400 
     11 C           3.809600   65.519600   68.023000 C.3       1 <1>         0.375300 
     12 C           5.011300   66.460900   68.193300 C.3       1 <1>        -0.345000 
     13 C           4.743100   67.835600   67.580200 C.3       1 <1>        -0.111500 
     14 N           4.401900   67.723900   66.150800 N.4       1 <1>         0.156000 
     15 C           3.194400   66.895500   65.980500 C.3       1 <1>        -0.130700 
     16 C           3.399900   65.486200   66.544900 C.3       1 <1>        -0.283100 
     17 C           4.202300   69.076800   65.586300 C.3       1 <1>        -0.601200 
     18 C           4.133600   69.090600   64.071900 C.2       1 <1>         0.184600 
     19 C           2.976400   69.532700   63.413800 C.2       1 <1>        -0.193500 
     20 C           2.919600   69.555800   62.018800 C.2       1 <1>        -0.136600 
     21 C           4.017600   69.140400   61.267400 C.2       1 <1>        -0.078000 
     22 C           5.174300   68.701600   61.909000 C.2       1 <1>        -0.107100 
     23 C           5.233300   68.677400   63.303600 C.2       1 <1>        -0.290700 
     24 O           0.963500   58.732700   72.250100 O.3       1 <1>        -0.366200 
     25 C           1.943300   57.701100   72.150300 C.3       1 <1>         0.025000 
     26 O          -0.860900   60.583200   72.494400 O.3       1 <1>        -0.310800 
     27 C          -1.887800   61.561700   72.642900 C.3       1 <1>        -0.037800 
     28 H          -0.416500   62.904000   71.055500 H         1 <1>         0.215200 
     29 H           3.080900   59.361400   70.570100 H         1 <1>         0.210500 
     30 H           0.945900   63.831700   68.720400 H         1 <1>         0.088000 
     31 H           2.000800   64.345600   70.064900 H         1 <1>         0.132100 
     32 H           4.501700   64.224300   69.613700 H         1 <1>         0.210600 
     33 H           5.005000   63.712300   68.018400 H         1 <1>         0.198900 
     34 H           2.975000   65.936200   68.601400 H         1 <1>         0.045800 
     35 H           5.242000   66.580700   69.258800 H         1 <1>         0.169700 
     36 H           5.901300   66.021700   67.723600 H         1 <1>         0.128600 
     37 H           3.942000   68.339600   68.136700 H         1 <1>         0.173300 
     38 H           5.651400   68.439300   67.697700 H         1 <1>         0.158500 
     39 H           2.328200   67.362400   66.468000 H         1 <1>         0.179100 
     40 H           2.950600   66.789500   64.917300 H         1 <1>         0.157600 
     41 H           4.166800   64.966600   65.955800 H         1 <1>         0.109700 
     42 H           2.467400   64.924300   66.421400 H         1 <1>         0.154900 
     43 H           3.308600   69.548600   66.016400 H         1 <1>         0.275800 
     44 H           5.048500   69.721900   65.859900 H         1 <1>         0.249200 
     45 H           2.108800   69.861800   63.984700 H         1 <1>         0.171500 
     46 H           2.016200   69.899400   61.517400 H         1 <1>         0.189900 
     47 H           3.971800   69.159000   60.179900 H         1 <1>         0.184600 
     48 H           6.032500   68.377100   61.323000 H         1 <1>         0.183400 
     49 H           6.142000   68.331100   63.795000 H         1 <1>         0.193600 
     50 H           1.616600   56.870300   72.782900 H         1 <1>         0.099300 
     51 H           2.019100   57.328700   71.123500 H         1 <1>         0.056400 
     52 H           2.914100   58.043000   72.523600 H         1 <1>         0.057100 
     53 H          -2.639700   61.153000   73.324800 H         1 <1>         0.119200 
     54 H          -1.494400   62.479500   73.091900 H         1 <1>         0.073800 
     55 H          -2.380300   61.763800   71.686200 H         1 <1>         0.063600 
     56 H           4.196000   61.244900   68.981700 H         1 <1>         0.206100 
     57 H           5.086400   67.329000   65.720200 H         1 <1>         0.390800 
@<TRIPOS>BOND
     1    1    2 2    
     2    1    6 1    
     3    1   24 1    
     4    2    3 1    
     5    2   26 1    
     6    3    4 2    
     7    3   28 1    
     8    4    5 1    
     9    4    9 1    
    10    5    6 2    
    11    5    7 1    
    12    6   29 1    
    13    7    8 2    
    14    7   56 1    
    15    8    9 1    
    16    8   10 1    
    17    9   30 1    
    18    9   31 1    
    19   10   11 1    
    20   10   32 1    
    21   10   33 1    
    22   11   12 1    
    23   11   16 1    
    24   11   34 1    
    25   12   13 1    
    26   12   35 1    
    27   12   36 1    
    28   13   14 1    
    29   13   37 1    
    30   13   38 1    
    31   14   15 1    
    32   14   17 1    
    33   14   57 1    
    34   15   16 1    
    35   15   39 1    
    36   15   40 1    
    37   16   41 1    
    38   16   42 1    
    39   17   18 1    
    40   17   43 1    
    41   17   44 1    
    42   18   19 1    
    43   18   23 2    
    44   19   20 2    
    45   19   45 1    
    46   20   21 1    
    47   20   46 1    
    48   21   22 2    
    49   21   47 1    
    50   22   23 1    
    51   22   48 1    
    52   23   49 1    
    53   24   25 1    
    54   25   50 1    
    55   25   51 1    
    56   25   52 1    
    57   26   27 1    
    58   27   53 1    
    59   27   54 1    
    60   27   55 1    
@<TRIPOS>SUBSTRUCTURE
     1 ****        1 TEMP              0 ****  ****    0 ROOT 
@<TRIPOS>SET
UNITY_3DHIT     STATIC     ATOMS    <user>   **** Atoms matching 3D or FLEX Search
0
@<TRIPOS>UNITY_ATOM_ATTR
14 1
AtomExpr +1
@<TRIPOS>UNITY_BOND_ATTR
1 1
S I
6 1
S I
10 1
S I
13 1
S I
43 1
S N
44 1
S N
48 1
S N
