#	Name:			1-107146
#	Creating user name:	jeff
#	Creation time:		Thu Dec  4 18:13:20 2003

#	Modifying user name:	jeff
#	Modification time:	Thu Dec  4 18:13:20 2003

@<TRIPOS>MOLECULE
1-107146
   53    55     1     0     1
SMALL
USER_CHARGES
****
From 3DB ct
@<TRIPOS>ATOM
      1 C          12.200000    3.860000   13.273000 C.ar      1 <1>        -0.354700 
      2 C          10.845000    3.466000   13.630000 C.ar      1 <1>         0.685600 
      3 N          10.144000    2.594000   12.896000 N.ar      1 <1>        -0.667500 
      4 C          10.698000    1.979000   11.824000 C.ar      1 <1>         0.764200 
      5 N          12.040000    2.147000   11.544000 N.ar      1 <1>        -0.674700 
      6 C          12.771000    3.054000   12.316000 C.ar      1 <1>         0.616300 
      7 N          14.087000    3.062000   11.948000 N.ar      1 <1>        -0.452700 
      8 C          14.842000    3.979000   12.621000 C.ar      1 <1>         0.173400 
      9 H          15.775000    3.943000   12.445000 H         1 <1>         0.100100 
     10 C          14.331000    4.935000   13.523000 C.ar      1 <1>         0.190900 
     11 N          12.974000    4.870000   13.860000 N.ar      1 <1>        -0.214700 
     12 C          15.283000    5.941000   14.271000 C.3       1 <1>        -0.281400 
     13 H          14.782000    6.692000   14.565000 H         1 <1>         0.120400 
     14 H          15.679000    5.509000   15.019000 H         1 <1>         0.108800 
     15 N          16.369000    6.388000   13.305000 N.pl3     1 <1>        -0.010000 
     16 C          16.036000    7.098000   12.249000 C.ar      1 <1>        -0.170500 
     17 C          14.739000    7.659000   12.082000 C.ar      1 <1>        -0.060900 
     18 H          13.910000    7.495000   12.794000 H         1 <1>         0.080500 
     19 C          14.455000    8.476000   10.990000 C.ar      1 <1>        -0.130700 
     20 H          13.448000    8.926000   10.866000 H         1 <1>         0.167000 
     21 C          15.417000    8.725000   10.019000 C.ar      1 <1>        -0.080900 
     22 C          16.672000    8.201000   10.095000 C.ar      1 <1>        -0.199700 
     23 H          17.387000    8.367000    9.278000 H         1 <1>         0.174700 
     24 C          17.003000    7.433000   11.280000 C.ar      1 <1>         0.307400 
     25 F          18.309000    7.061000   11.229000 F         1 <1>        -0.283000 
     26 C          15.038000    9.192000    8.706000 C.2       1 <1>         0.622800 
     27 N          13.876000    9.215000    7.933000 N.am      1 <1>        -0.573900 
     28 H          13.008000    8.974000    8.374000 H         1 <1>         0.309700 
     29 C          13.668000    9.748000    6.772000 C.3       1 <1>         0.054800 
     30 H          14.043000    9.200000    6.093000 H         1 <1>         0.048000 
     31 C          12.067000    9.842000    6.620000 C.2       1 <1>         0.515700 
     32 O          11.642000   10.618000    5.756000 O.3       1 <1>        -0.669700 
     33 O          11.412000    9.154000    7.415000 O.2       1 <1>        -0.709900 
     34 C          14.101000   10.761000    6.744000 C.3       1 <1>        -0.046100 
     35 H          13.458000   11.370000    6.400000 H         1 <1>         0.039100 
     36 H          14.535000   11.038000    7.542000 H         1 <1>         0.036800 
     37 C          15.414000   11.006000    5.875000 C.3       1 <1>        -0.132600 
     38 H          15.935000   11.857000    6.356000 H         1 <1>        -0.006200 
     39 H          16.091000   10.146000    6.058000 H         1 <1>         0.006600 
     40 C          15.584000   11.244000    4.348000 C.2       1 <1>         0.605700 
     41 O          15.511000   10.321000    3.540000 O.2       1 <1>        -0.745800 
     42 O          15.805000   12.448000    4.127000 O.3       1 <1>        -0.720500 
     43 O          16.090000    9.530000    8.230000 O.2       1 <1>        -0.502200 
     44 C          17.663000    6.065000   13.521000 C.3       1 <1>        -0.144900 
     45 H          17.744000    5.479000   14.437000 H         1 <1>         0.053800 
     46 H          18.036000    5.479000   12.680000 H         1 <1>         0.072900 
     47 H          18.253000    6.976000   13.619000 H         1 <1>         0.089200 
     48 N          10.000000    1.203000   11.073000 N.pl3     1 <1>        -0.784700 
     49 H           9.131000    1.063000   11.257000 H         1 <1>         0.359600 
     50 H          10.381000    0.801000   10.364000 H         1 <1>         0.369000 
     51 N          10.182000    3.960000   14.711000 N.pl3     1 <1>        -0.766900 
     52 H          10.582000    4.562000   15.248000 H         1 <1>         0.363400 
     53 H           9.344000    3.684000   14.890000 H         1 <1>         0.348300 
@<TRIPOS>BOND
     1    1    2 ar   
     2    2    3 ar   
     3    3    4 ar   
     4    4    5 ar   
     5    5    6 ar   
     6    6    1 ar   
     7    6    7 ar   
     8    7    8 ar   
     9    8    9 1    
    10    8   10 ar   
    11   10   11 ar   
    12   11    1 ar   
    13   10   12 1    
    14   12   13 1    
    15   12   14 1    
    16   12   15 1    
    17   15   16 1    
    18   16   17 ar   
    19   17   18 1    
    20   17   19 ar   
    21   19   20 1    
    22   19   21 ar   
    23   21   22 ar   
    24   22   23 1    
    25   22   24 ar   
    26   24   16 ar   
    27   24   25 1    
    28   21   26 1    
    29   26   27 am   
    30   27   28 1    
    31   27   29 1    
    32   29   30 1    
    33   29   31 1    
    34   31   32 1    
    35   31   33 2    
    36   29   34 1    
    37   34   35 1    
    38   34   36 1    
    39   34   37 1    
    40   37   38 1    
    41   37   39 1    
    42   37   40 1    
    43   40   41 2    
    44   40   42 1    
    45   26   43 2    
    46   15   44 1    
    47   44   45 1    
    48   44   46 1    
    49   44   47 1    
    50    4   48 1    
    51   48   49 1    
    52   48   50 1    
    53    2   51 1    
    54   51   52 1    
    55   51   53 1    
@<TRIPOS>SUBSTRUCTURE
     1 ****        1 TEMP              0 ****  ****    0 ROOT 
@<TRIPOS>SET
UNITY_3DHIT     STATIC     ATOMS    <user>   **** Atoms matching 3D or FLEX Search
0
@<TRIPOS>UNITY_ATOM_ATTR
32 1
AtomExpr -1
42 1
AtomExpr -1
