#	Name:			1-127977
#	Creating user name:	jeff
#	Creation time:		Thu Dec  4 18:13:21 2003

#	Modifying user name:	jeff
#	Modification time:	Thu Dec  4 18:13:21 2003

@<TRIPOS>MOLECULE
1-127977
   60    62     1     0     1
SMALL
USER_CHARGES
****
From 3DB ct
@<TRIPOS>ATOM
      1 C          12.200000    3.860000   13.273000 C.ar      1 <1>        -0.332600 
      2 C          10.845000    3.466000   13.630000 C.ar      1 <1>         0.666100 
      3 N          10.144000    2.594000   12.896000 N.ar      1 <1>        -0.654600 
      4 C          10.698000    1.979000   11.824000 C.ar      1 <1>         0.743600 
      5 N          12.040000    2.147000   11.544000 N.ar      1 <1>        -0.660600 
      6 C          12.771000    3.054000   12.316000 C.ar      1 <1>         0.611500 
      7 N          14.087000    3.062000   11.948000 N.ar      1 <1>        -0.455900 
      8 C          14.842000    3.979000   12.621000 C.ar      1 <1>         0.195100 
      9 H          15.775000    3.943000   12.445000 H         1 <1>         0.089700 
     10 C          14.331000    4.935000   13.523000 C.ar      1 <1>         0.141000 
     11 N          12.974000    4.870000   13.860000 N.ar      1 <1>        -0.230100 
     12 C          15.283000    5.941000   14.271000 C.3       1 <1>        -0.204000 
     13 H          14.782000    6.692000   14.565000 H         1 <1>         0.104200 
     14 H          15.679000    5.509000   15.019000 H         1 <1>         0.119200 
     15 N          16.369000    6.388000   13.305000 N.pl3     1 <1>        -0.173100 
     16 C          16.036000    7.098000   12.249000 C.ar      1 <1>         0.195300 
     17 C          14.739000    7.659000   12.082000 C.ar      1 <1>        -0.248800 
     18 H          13.910000    7.495000   12.794000 H         1 <1>         0.124600 
     19 C          14.455000    8.476000   10.990000 C.ar      1 <1>        -0.023500 
     20 H          13.448000    8.926000   10.866000 H         1 <1>         0.116300 
     21 C          15.417000    8.725000   10.019000 C.ar      1 <1>        -0.151800 
     22 C          16.672000    8.201000   10.095000 C.ar      1 <1>        -0.054900 
     23 H          17.387000    8.367000    9.278000 H         1 <1>         0.123500 
     24 C          17.003000    7.433000   11.280000 C.ar      1 <1>        -0.212100 
     25 H          18.042000    7.062000   11.310000 H         1 <1>         0.109300 
     26 C          15.038000    9.192000    8.706000 C.2       1 <1>         0.656400 
     27 N          13.876000    9.215000    7.933000 N.am      1 <1>        -0.793300 
     28 H          13.008000    8.974000    8.374000 H         1 <1>         0.363000 
     29 C          13.668000    9.748000    6.772000 C.3       1 <1>         0.256500 
     30 H          14.043000    9.200000    6.093000 H         1 <1>         0.016100 
     31 C          12.067000    9.842000    6.620000 C.2       1 <1>         0.564100 
     32 O          11.642000   10.618000    5.756000 O.3       1 <1>        -0.747000 
     33 O          11.412000    9.154000    7.415000 O.2       1 <1>        -0.553700 
     34 C          14.101000   10.761000    6.744000 C.3       1 <1>        -0.143000 
     35 H          13.458000   11.370000    6.400000 H         1 <1>         0.059700 
     36 H          14.535000   11.038000    7.542000 H         1 <1>         0.061400 
     37 C          15.414000   11.006000    5.875000 C.3       1 <1>        -0.085500 
     38 H          15.935000   11.857000    6.356000 H         1 <1>         0.033900 
     39 H          16.091000   10.146000    6.058000 H         1 <1>         0.066900 
     40 C          15.584000   11.244000    4.348000 C.3       1 <1>        -0.100000 
     41 H          14.916000   11.848000    4.045000 H         1 <1>         0.077300 
     42 H          16.583000   11.689000    4.192000 H         1 <1>         0.031900 
     43 C          15.461000    9.949000    3.527000 C.3       1 <1>         0.080600 
     44 H          16.260000    9.253000    3.833000 H         1 <1>         0.034700 
     45 H          14.502000    9.456000    3.776000 H         1 <1>         0.085800 
     46 N          15.600000   10.231000    2.098000 N.4       1 <1>        -0.369300 
     47 H          15.514000    9.377000    1.572000 H         1 <1>         0.275600 
     48 H          14.826000   10.813000    1.815000 H         1 <1>         0.364300 
     49 H          16.386000   10.636000    1.926000 H         1 <1>         0.283000 
     50 O          16.090000    9.530000    8.230000 O.2       1 <1>        -0.491500 
     51 C          17.663000    6.065000   13.521000 C.3       1 <1>        -0.051400 
     52 H          17.744000    5.479000   14.437000 H         1 <1>         0.061800 
     53 H          18.036000    5.479000   12.680000 H         1 <1>         0.047900 
     54 H          18.253000    6.976000   13.619000 H         1 <1>         0.049600 
     55 N          10.000000    1.203000   11.073000 N.pl3     1 <1>        -0.749000 
     56 H           9.131000    1.063000   11.257000 H         1 <1>         0.357600 
     57 H          10.381000    0.801000   10.364000 H         1 <1>         0.365000 
     58 N          10.182000    3.960000   14.711000 N.pl3     1 <1>        -0.757500 
     59 H          10.582000    4.562000   15.248000 H         1 <1>         0.356300 
     60 H           9.344000    3.684000   14.890000 H         1 <1>         0.354500 
@<TRIPOS>BOND
     1    1    2 ar   
     2    2    3 ar   
     3    3    4 ar   
     4    4    5 ar   
     5    5    6 ar   
     6    6    1 ar   
     7    6    7 ar   
     8    7    8 ar   
     9    8    9 1    
    10    8   10 ar   
    11   10   11 ar   
    12   11    1 ar   
    13   10   12 1    
    14   12   13 1    
    15   12   14 1    
    16   12   15 1    
    17   15   16 1    
    18   16   17 ar   
    19   17   18 1    
    20   17   19 ar   
    21   19   20 1    
    22   19   21 ar   
    23   21   22 ar   
    24   22   23 1    
    25   22   24 ar   
    26   24   25 1    
    27   24   16 ar   
    28   21   26 1    
    29   26   27 am   
    30   27   28 1    
    31   27   29 1    
    32   29   30 1    
    33   29   31 1    
    34   31   32 1    
    35   31   33 2    
    36   29   34 1    
    37   34   35 1    
    38   34   36 1    
    39   34   37 1    
    40   37   38 1    
    41   37   39 1    
    42   37   40 1    
    43   40   41 1    
    44   40   42 1    
    45   40   43 1    
    46   43   44 1    
    47   43   45 1    
    48   43   46 1    
    49   46   47 1    
    50   46   48 1    
    51   46   49 1    
    52   26   50 2    
    53   15   51 1    
    54   51   52 1    
    55   51   53 1    
    56   51   54 1    
    57    4   55 1    
    58   55   56 1    
    59   55   57 1    
    60    2   58 1    
    61   58   59 1    
    62   58   60 1    
@<TRIPOS>SUBSTRUCTURE
     1 ****        1 TEMP              0 ****  ****    0 ROOT 
@<TRIPOS>SET
UNITY_3DHIT     STATIC     ATOMS    <user>   **** Atoms matching 3D or FLEX Search
0
@<TRIPOS>UNITY_ATOM_ATTR
32 1
AtomExpr -1
46 1
AtomExpr +1
