#	Name:			1-122870
#	Creating user name:	jeff
#	Creation time:		Thu Dec  4 18:13:20 2003

#	Modifying user name:	jeff
#	Modification time:	Thu Dec  4 18:13:21 2003

@<TRIPOS>MOLECULE
1-122870
   55    57     1     0     1
SMALL
USER_CHARGES
****
From 3DB ct
@<TRIPOS>ATOM
      1 N          10.085000    2.669000   12.777000 N.ar      1 <1>        -0.660900 
      2 C          10.738000    1.967000   11.862000 C.ar      1 <1>         0.813400 
      3 N          12.030000    2.113000   11.598000 N.ar      1 <1>        -0.648800 
      4 C          12.720000    3.013000   12.307000 C.ar      1 <1>         0.444300 
      5 C          12.174000    3.808000   13.327000 C.ar      1 <1>        -0.611000 
      6 C          10.782000    3.579000   13.485000 C.ar      1 <1>         0.850100 
      7 N           9.994000    4.272000   14.394000 N.pl3     1 <1>        -0.929300 
      8 H          10.146000    4.022000   15.368000 H         1 <1>         0.342300 
      9 H           9.996000    5.282000   14.277000 H         1 <1>         0.353200 
     10 C          13.053000    4.726000   14.044000 C.ar      1 <1>         0.196700 
     11 C          14.398000    4.902000   13.624000 C.ar      1 <1>        -0.092900 
     12 C          14.886000    4.063000   12.616000 C.ar      1 <1>        -0.077900 
     13 H          15.930000    4.122000   12.305000 H         1 <1>         0.141300 
     14 C          14.057000    3.140000   11.985000 C.ar      1 <1>        -0.189000 
     15 H          14.480000    2.513000   11.200000 H         1 <1>         0.131400 
     16 C          15.355000    5.904000   14.260000 C.3       1 <1>         0.236900 
     17 H          15.860000    5.396000   15.090000 H         1 <1>         0.010300 
     18 H          14.819000    6.774000   14.648000 H         1 <1>         0.037000 
     19 N          16.319000    6.407000   13.287000 N.pl3     1 <1>        -0.746800 
     20 H          17.240000    5.971000   13.302000 H         1 <1>         0.348600 
     21 C          15.987000    7.168000   12.184000 C.ar      1 <1>         0.381000 
     22 C          16.977000    7.441000   11.230000 C.ar      1 <1>        -0.337500 
     23 H          17.980000    7.033000   11.353000 H         1 <1>         0.110000 
     24 C          16.712000    8.234000   10.106000 C.ar      1 <1>        -0.003200 
     25 H          17.509000    8.415000    9.387000 H         1 <1>         0.127300 
     26 C          15.441000    8.780000    9.911000 C.ar      1 <1>        -0.148300 
     27 C          14.450000    8.540000   10.867000 C.ar      1 <1>        -0.060500 
     28 H          13.459000    8.978000   10.781000 H         1 <1>         0.143500 
     29 C          14.727000    7.744000   11.990000 C.ar      1 <1>        -0.246300 
     30 H          13.925000    7.591000   12.709000 H         1 <1>         0.106400 
     31 C          15.038000    9.192000    8.706000 C.2       1 <1>         0.585100 
     32 N          13.876000    9.215000    7.933000 N.am      1 <1>        -0.536500 
     33 H          13.008000    8.974000    8.374000 H         1 <1>         0.311600 
     34 C          13.668000    9.748000    6.772000 C.3       1 <1>         0.037600 
     35 H          14.101000   10.761000    6.744000 H         1 <1>         0.051600 
     36 C          12.067000    9.842000    6.620000 C.2       1 <1>         0.524900 
     37 O          11.642000   10.618000    5.756000 O.3       1 <1>        -0.676900 
     38 O          11.412000    9.154000    7.415000 O.2       1 <1>        -0.710700 
     39 C          14.217000    8.860000    5.616000 C.3       1 <1>        -0.049800 
     40 H          13.933000    7.819000    5.864000 H         1 <1>         0.034600 
     41 H          13.568000    9.111000    4.752000 H         1 <1>         0.042800 
     42 C          15.661000    8.754000    5.039000 C.3       1 <1>        -0.145400 
     43 H          16.023000    9.729000    4.681000 H         1 <1>         0.009600 
     44 H          16.345000    8.401000    5.826000 H         1 <1>         0.000000 
     45 C          15.637000    7.706000    3.870000 C.2       1 <1>         0.607100 
     46 O          14.719000    7.822000    3.051000 O.2       1 <1>        -0.717900 
     47 O          16.552000    6.875000    3.896000 O.3       1 <1>        -0.748600 
     48 O          16.090000    9.530000    8.230000 O.2       1 <1>        -0.506100 
     49 C          12.538000    5.497000   15.238000 C.3       1 <1>        -0.187200 
     50 H          11.953000    4.850000   15.895000 H         1 <1>         0.042800 
     51 H          11.942000    6.354000   14.911000 H         1 <1>         0.075400 
     52 H          13.339000    5.858000   15.888000 H         1 <1>         0.036500 
     53 N          10.043000    1.043000   11.146000 N.pl3     1 <1>        -0.865000 
     54 H          10.515000    0.495000   10.443000 H         1 <1>         0.383400 
     55 H           9.058000    0.910000   11.324000 H         1 <1>         0.379800 
@<TRIPOS>BOND
     1    1    2 ar   
     2    2    3 ar   
     3    3    4 ar   
     4    4    5 ar   
     5    5    6 ar   
     6    6    1 ar   
     7    6    7 1    
     8    7    8 1    
     9    7    9 1    
    10    5   10 ar   
    11   10   11 ar   
    12   11   12 ar   
    13   12   13 1    
    14   12   14 ar   
    15   14   15 1    
    16   14    4 ar   
    17   11   16 1    
    18   16   17 1    
    19   16   18 1    
    20   16   19 1    
    21   19   20 1    
    22   19   21 1    
    23   21   22 ar   
    24   22   23 1    
    25   22   24 ar   
    26   24   25 1    
    27   24   26 ar   
    28   26   27 ar   
    29   27   28 1    
    30   27   29 ar   
    31   29   30 1    
    32   29   21 ar   
    33   26   31 1    
    34   31   32 am   
    35   32   33 1    
    36   32   34 1    
    37   34   35 1    
    38   34   36 1    
    39   36   37 1    
    40   36   38 2    
    41   34   39 1    
    42   39   40 1    
    43   39   41 1    
    44   39   42 1    
    45   42   43 1    
    46   42   44 1    
    47   42   45 1    
    48   45   46 2    
    49   45   47 1    
    50   31   48 2    
    51   10   49 1    
    52   49   50 1    
    53   49   51 1    
    54   49   52 1    
    55    2   53 1    
    56   53   54 1    
    57   53   55 1    
@<TRIPOS>SUBSTRUCTURE
     1 ****        1 TEMP              0 ****  ****    0 ROOT 
@<TRIPOS>SET
UNITY_3DHIT     STATIC     ATOMS    <user>   **** Atoms matching 3D or FLEX Search
0
@<TRIPOS>UNITY_ATOM_ATTR
37 1
AtomExpr -1
47 1
AtomExpr -1
