#	Name:			1-131463
#	Creating user name:	jeff
#	Creation time:		Thu Dec  4 18:13:21 2003

#	Modifying user name:	jeff
#	Modification time:	Thu Dec  4 18:13:21 2003

@<TRIPOS>MOLECULE
1-131463
   38    40     1     0     1
SMALL
USER_CHARGES
****
From 3DB ct
@<TRIPOS>ATOM
      1 C          12.200000    3.860000   13.273000 C.ar      1 <1>        -0.309700 
      2 C          10.845000    3.466000   13.630000 C.ar      1 <1>         0.661100 
      3 N          10.144000    2.594000   12.896000 N.ar      1 <1>        -0.657700 
      4 C          10.698000    1.979000   11.824000 C.ar      1 <1>         0.732400 
      5 N          12.040000    2.147000   11.544000 N.ar      1 <1>        -0.662500 
      6 C          12.771000    3.054000   12.316000 C.ar      1 <1>         0.591400 
      7 N          14.087000    3.062000   11.948000 N.ar      1 <1>        -0.448200 
      8 C          14.842000    3.979000   12.621000 C.ar      1 <1>         0.185300 
      9 H          15.775000    3.943000   12.445000 H         1 <1>         0.092800 
     10 C          14.331000    4.935000   13.523000 C.ar      1 <1>         0.166100 
     11 N          12.974000    4.870000   13.860000 N.ar      1 <1>        -0.245600 
     12 C          15.283000    5.941000   14.271000 C.3       1 <1>        -0.196300 
     13 H          14.782000    6.692000   14.565000 H         1 <1>         0.103900 
     14 H          15.679000    5.509000   15.019000 H         1 <1>         0.093900 
     15 N          16.369000    6.388000   13.305000 N.pl3     1 <1>        -0.111700 
     16 C          16.036000    7.098000   12.249000 C.ar      1 <1>        -0.013800 
     17 C          14.739000    7.659000   12.082000 C.ar      1 <1>        -0.150900 
     18 H          13.910000    7.495000   12.794000 H         1 <1>         0.084600 
     19 C          14.455000    8.476000   10.990000 C.ar      1 <1>        -0.149900 
     20 H          13.448000    8.926000   10.866000 H         1 <1>         0.133100 
     21 C          15.417000    8.725000   10.019000 C.ar      1 <1>         0.053500 
     22 C          16.672000    8.201000   10.095000 C.ar      1 <1>        -0.131100 
     23 H          17.387000    8.367000    9.278000 H         1 <1>         0.130900 
     24 C          17.003000    7.433000   11.280000 C.ar      1 <1>        -0.170800 
     25 H          18.042000    7.062000   11.310000 H         1 <1>         0.078500 
     26 C          14.954000    9.651000    8.917000 C.2       1 <1>         0.508800 
     27 O          13.685000   10.210000    9.076000 O.3       1 <1>        -0.676700 
     28 O          15.730000    9.933000    8.014000 O.2       1 <1>        -0.677000 
     29 C          17.663000    6.065000   13.521000 C.3       1 <1>         0.003600 
     30 H          17.744000    5.479000   14.437000 H         1 <1>         0.019700 
     31 H          18.036000    5.479000   12.680000 H         1 <1>         0.036300 
     32 H          18.253000    6.976000   13.619000 H         1 <1>         0.027000 
     33 N          10.000000    1.203000   11.073000 N.pl3     1 <1>        -0.758300 
     34 H           9.131000    1.063000   11.257000 H         1 <1>         0.352600 
     35 H          10.381000    0.801000   10.364000 H         1 <1>         0.362600 
     36 N          10.182000    3.960000   14.711000 N.pl3     1 <1>        -0.771500 
     37 H          10.582000    4.562000   15.248000 H         1 <1>         0.362600 
     38 H           9.344000    3.684000   14.890000 H         1 <1>         0.351100 
@<TRIPOS>BOND
     1    1    2 ar   
     2    2    3 ar   
     3    3    4 ar   
     4    4    5 ar   
     5    5    6 ar   
     6    6    1 ar   
     7    6    7 ar   
     8    7    8 ar   
     9    8    9 1    
    10    8   10 ar   
    11   10   11 ar   
    12   11    1 ar   
    13   10   12 1    
    14   12   13 1    
    15   12   14 1    
    16   12   15 1    
    17   15   16 1    
    18   16   17 ar   
    19   17   18 1    
    20   17   19 ar   
    21   19   20 1    
    22   19   21 ar   
    23   21   22 ar   
    24   22   23 1    
    25   22   24 ar   
    26   24   25 1    
    27   24   16 ar   
    28   21   26 1    
    29   26   27 1    
    30   26   28 2    
    31   15   29 1    
    32   29   30 1    
    33   29   31 1    
    34   29   32 1    
    35    4   33 1    
    36   33   34 1    
    37   33   35 1    
    38    2   36 1    
    39   36   37 1    
    40   36   38 1    
@<TRIPOS>SUBSTRUCTURE
     1 ****        1 TEMP              0 ****  ****    0 ROOT 
@<TRIPOS>SET
UNITY_3DHIT     STATIC     ATOMS    <user>   **** Atoms matching 3D or FLEX Search
0
@<TRIPOS>UNITY_ATOM_ATTR
27 1
AtomExpr -1
