#	Name:			1-137545
#	Creating user name:	jeff
#	Creation time:		Thu Dec  4 18:13:21 2003

#	Modifying user name:	jeff
#	Modification time:	Thu Dec  4 18:13:21 2003

@<TRIPOS>MOLECULE
1-137545
   44    46     1     0     1
SMALL
USER_CHARGES
****
From 3DB ct
@<TRIPOS>ATOM
      1 C          12.200000    3.860000   13.273000 C.ar      1 <1>        -0.291400 
      2 C          10.845000    3.466000   13.630000 C.ar      1 <1>         0.658100 
      3 N          10.144000    2.594000   12.896000 N.ar      1 <1>        -0.657900 
      4 C          10.698000    1.979000   11.824000 C.ar      1 <1>         0.737700 
      5 N          12.040000    2.147000   11.544000 N.ar      1 <1>        -0.660300 
      6 C          12.771000    3.054000   12.316000 C.ar      1 <1>         0.582000 
      7 N          14.087000    3.062000   11.948000 N.ar      1 <1>        -0.440800 
      8 C          14.842000    3.979000   12.621000 C.ar      1 <1>         0.188200 
      9 H          15.775000    3.943000   12.445000 H         1 <1>         0.094900 
     10 C          14.331000    4.935000   13.523000 C.ar      1 <1>         0.194500 
     11 N          12.974000    4.870000   13.860000 N.ar      1 <1>        -0.265400 
     12 C          15.283000    5.941000   14.271000 C.3       1 <1>        -0.160300 
     13 H          14.782000    6.692000   14.565000 H         1 <1>         0.087300 
     14 H          15.679000    5.509000   15.019000 H         1 <1>         0.067400 
     15 N          16.369000    6.388000   13.305000 N.pl3     1 <1>        -0.124100 
     16 C          16.036000    7.098000   12.249000 C.ar      1 <1>        -0.312100 
     17 C          14.739000    7.659000   12.082000 C.ar      1 <1>         0.255900 
     18 C          14.455000    8.476000   10.990000 C.ar      1 <1>        -0.338500 
     19 H          13.448000    8.926000   10.866000 H         1 <1>         0.177500 
     20 C          15.417000    8.725000   10.019000 C.ar      1 <1>         0.121500 
     21 C          16.672000    8.201000   10.095000 C.ar      1 <1>        -0.305000 
     22 H          17.387000    8.367000    9.278000 H         1 <1>         0.171200 
     23 C          17.003000    7.433000   11.280000 C.ar      1 <1>         0.204800 
     24 C          18.487000    7.018000   11.114000 C.3       1 <1>        -0.169400 
     25 H          18.928000    7.550000   10.254000 H         1 <1>         0.044400 
     26 H          19.160000    7.281000   11.938000 H         1 <1>         0.038200 
     27 H          18.603000    5.950000   10.869000 H         1 <1>         0.028300 
     28 C          14.954000    9.651000    8.917000 C.2       1 <1>         0.540400 
     29 O          13.685000   10.210000    9.076000 O.3       1 <1>        -0.684200 
     30 O          15.730000    9.933000    8.014000 O.2       1 <1>        -0.681200 
     31 C          13.619000    7.929000   13.118000 C.3       1 <1>        -0.227100 
     32 H          12.948000    8.727000   12.757000 H         1 <1>         0.053200 
     33 H          12.948000    7.094000   13.311000 H         1 <1>         0.057100 
     34 H          13.998000    8.343000   14.064000 H         1 <1>         0.042100 
     35 C          17.663000    6.065000   13.521000 C.3       1 <1>        -0.044700 
     36 H          17.744000    5.479000   14.437000 H         1 <1>         0.038700 
     37 H          18.036000    5.479000   12.680000 H         1 <1>         0.027900 
     38 H          18.253000    6.976000   13.619000 H         1 <1>         0.061100 
     39 N          10.000000    1.203000   11.073000 N.pl3     1 <1>        -0.765000 
     40 H           9.131000    1.063000   11.257000 H         1 <1>         0.353100 
     41 H          10.381000    0.801000   10.364000 H         1 <1>         0.364400 
     42 N          10.182000    3.960000   14.711000 N.pl3     1 <1>        -0.773700 
     43 H          10.582000    4.562000   15.248000 H         1 <1>         0.361000 
     44 H           9.344000    3.684000   14.890000 H         1 <1>         0.350100 
@<TRIPOS>BOND
     1    1    2 ar   
     2    2    3 ar   
     3    3    4 ar   
     4    4    5 ar   
     5    5    6 ar   
     6    6    1 ar   
     7    6    7 ar   
     8    7    8 ar   
     9    8    9 1    
    10    8   10 ar   
    11   10   11 ar   
    12   11    1 ar   
    13   10   12 1    
    14   12   13 1    
    15   12   14 1    
    16   12   15 1    
    17   15   16 1    
    18   16   17 ar   
    19   17   18 ar   
    20   18   19 1    
    21   18   20 ar   
    22   20   21 ar   
    23   21   22 1    
    24   21   23 ar   
    25   23   16 ar   
    26   23   24 1    
    27   24   25 1    
    28   24   26 1    
    29   24   27 1    
    30   20   28 1    
    31   28   29 1    
    32   28   30 2    
    33   17   31 1    
    34   31   32 1    
    35   31   33 1    
    36   31   34 1    
    37   15   35 1    
    38   35   36 1    
    39   35   37 1    
    40   35   38 1    
    41    4   39 1    
    42   39   40 1    
    43   39   41 1    
    44    2   42 1    
    45   42   43 1    
    46   42   44 1    
@<TRIPOS>SUBSTRUCTURE
     1 ****        1 TEMP              0 ****  ****    0 ROOT 
@<TRIPOS>SET
UNITY_3DHIT     STATIC     ATOMS    <user>   **** Atoms matching 3D or FLEX Search
0
@<TRIPOS>UNITY_ATOM_ATTR
29 1
AtomExpr -1
