#	Name:			1-144698
#	Creating user name:	jeff
#	Creation time:		Thu Dec  4 18:13:21 2003

#	Modifying user name:	jeff
#	Modification time:	Thu Dec  4 18:13:21 2003

@<TRIPOS>MOLECULE
1-144698
   56    58     1     0     1
SMALL
USER_CHARGES
****
From 3DB ct
@<TRIPOS>ATOM
      1 C          12.200000    3.860000   13.273000 C.ar      1 <1>        -0.319800 
      2 C          10.845000    3.466000   13.630000 C.ar      1 <1>         0.665600 
      3 N          10.144000    2.594000   12.896000 N.ar      1 <1>        -0.662200 
      4 C          10.698000    1.979000   11.824000 C.ar      1 <1>         0.765800 
      5 N          12.040000    2.147000   11.544000 N.ar      1 <1>        -0.668800 
      6 C          12.771000    3.054000   12.316000 C.ar      1 <1>         0.592800 
      7 N          14.087000    3.062000   11.948000 N.ar      1 <1>        -0.436300 
      8 C          14.842000    3.979000   12.621000 C.ar      1 <1>         0.179100 
      9 H          15.775000    3.943000   12.445000 H         1 <1>         0.095300 
     10 C          14.331000    4.935000   13.523000 C.ar      1 <1>         0.192500 
     11 N          12.974000    4.870000   13.860000 N.ar      1 <1>        -0.241600 
     12 C          15.283000    5.941000   14.271000 C.3       1 <1>        -0.268900 
     13 H          14.782000    6.692000   14.565000 H         1 <1>         0.114300 
     14 H          15.679000    5.509000   15.019000 H         1 <1>         0.120600 
     15 N          16.369000    6.388000   13.305000 N.pl3     1 <1>        -0.215000 
     16 C          16.036000    7.098000   12.249000 C.ar      1 <1>         0.290300 
     17 C          14.739000    7.659000   12.082000 C.ar      1 <1>        -0.224400 
     18 H          13.910000    7.495000   12.794000 H         1 <1>         0.110700 
     19 C          14.455000    8.476000   10.990000 C.ar      1 <1>         0.004700 
     20 H          13.448000    8.926000   10.866000 H         1 <1>         0.155500 
     21 C          15.417000    8.725000   10.019000 C.ar      1 <1>        -0.168500 
     22 C          16.672000    8.201000   10.095000 C.ar      1 <1>         0.085100 
     23 H          17.387000    8.367000    9.278000 H         1 <1>         0.128300 
     24 C          17.003000    7.433000   11.280000 C.ar      1 <1>        -0.473200 
     25 C          18.486000    6.874000   10.985000 C.3       1 <1>         1.030000 
     26 F          19.073000    7.461000    9.936000 F         1 <1>        -0.323100 
     27 F          19.424000    7.043000   11.902000 F         1 <1>        -0.326700 
     28 F          18.500000    5.589000   10.641000 F         1 <1>        -0.325000 
     29 C          15.038000    9.192000    8.706000 C.2       1 <1>         0.577100 
     30 N          13.876000    9.215000    7.933000 N.am      1 <1>        -0.527300 
     31 H          13.008000    8.974000    8.374000 H         1 <1>         0.294300 
     32 C          13.668000    9.748000    6.772000 C.3       1 <1>         0.061300 
     33 H          14.043000    9.200000    6.093000 H         1 <1>         0.047300 
     34 C          12.067000    9.842000    6.620000 C.2       1 <1>         0.513000 
     35 O          11.642000   10.618000    5.756000 O.3       1 <1>        -0.668200 
     36 O          11.412000    9.154000    7.415000 O.2       1 <1>        -0.710100 
     37 C          14.101000   10.761000    6.744000 C.3       1 <1>        -0.064300 
     38 H          13.458000   11.370000    6.400000 H         1 <1>         0.046600 
     39 H          14.535000   11.038000    7.542000 H         1 <1>         0.041000 
     40 C          15.414000   11.006000    5.875000 C.3       1 <1>        -0.145500 
     41 H          15.935000   11.857000    6.356000 H         1 <1>        -0.002800 
     42 H          16.091000   10.146000    6.058000 H         1 <1>         0.010800 
     43 C          15.584000   11.244000    4.348000 C.2       1 <1>         0.609700 
     44 O          15.511000   10.321000    3.540000 O.2       1 <1>        -0.743500 
     45 O          15.805000   12.448000    4.127000 O.3       1 <1>        -0.721100 
     46 O          16.090000    9.530000    8.230000 O.2       1 <1>        -0.484300 
     47 C          17.663000    6.065000   13.521000 C.3       1 <1>        -0.049100 
     48 H          17.744000    5.479000   14.437000 H         1 <1>         0.047200 
     49 H          18.036000    5.479000   12.680000 H         1 <1>         0.037300 
     50 H          18.253000    6.976000   13.619000 H         1 <1>         0.066900 
     51 N          10.000000    1.203000   11.073000 N.pl3     1 <1>        -0.784700 
     52 H           9.131000    1.063000   11.257000 H         1 <1>         0.358200 
     53 H          10.381000    0.801000   10.364000 H         1 <1>         0.369200 
     54 N          10.182000    3.960000   14.711000 N.pl3     1 <1>        -0.756200 
     55 H          10.582000    4.562000   15.248000 H         1 <1>         0.355600 
     56 H           9.344000    3.684000   14.890000 H         1 <1>         0.344800 
@<TRIPOS>BOND
     1    1    2 ar   
     2    2    3 ar   
     3    3    4 ar   
     4    4    5 ar   
     5    5    6 ar   
     6    6    1 ar   
     7    6    7 ar   
     8    7    8 ar   
     9    8    9 1    
    10    8   10 ar   
    11   10   11 ar   
    12   11    1 ar   
    13   10   12 1    
    14   12   13 1    
    15   12   14 1    
    16   12   15 1    
    17   15   16 1    
    18   16   17 ar   
    19   17   18 1    
    20   17   19 ar   
    21   19   20 1    
    22   19   21 ar   
    23   21   22 ar   
    24   22   23 1    
    25   22   24 ar   
    26   24   16 ar   
    27   24   25 1    
    28   25   26 1    
    29   25   27 1    
    30   25   28 1    
    31   21   29 1    
    32   29   30 am   
    33   30   31 1    
    34   30   32 1    
    35   32   33 1    
    36   32   34 1    
    37   34   35 1    
    38   34   36 2    
    39   32   37 1    
    40   37   38 1    
    41   37   39 1    
    42   37   40 1    
    43   40   41 1    
    44   40   42 1    
    45   40   43 1    
    46   43   44 2    
    47   43   45 1    
    48   29   46 2    
    49   15   47 1    
    50   47   48 1    
    51   47   49 1    
    52   47   50 1    
    53    4   51 1    
    54   51   52 1    
    55   51   53 1    
    56    2   54 1    
    57   54   55 1    
    58   54   56 1    
@<TRIPOS>SUBSTRUCTURE
     1 ****        1 TEMP              0 ****  ****    0 ROOT 
@<TRIPOS>SET
UNITY_3DHIT     STATIC     ATOMS    <user>   **** Atoms matching 3D or FLEX Search
0
@<TRIPOS>UNITY_ATOM_ATTR
35 1
AtomExpr -1
45 1
AtomExpr -1
