#	Name:			1-184692
#	Creating user name:	jeff
#	Creation time:		Thu Dec  4 18:13:22 2003

#	Modifying user name:	jeff
#	Modification time:	Thu Dec  4 18:13:22 2003

@<TRIPOS>MOLECULE
1-184692
   58    60     1     0     1
SMALL
USER_CHARGES
****
From 3DB ct
@<TRIPOS>ATOM
      1 N          10.098000    2.623000   12.804000 N.ar      1 <1>        -0.699000 
      2 C          10.747000    1.978000   11.846000 C.ar      1 <1>         0.839200 
      3 N          12.037000    2.141000   11.586000 N.ar      1 <1>        -0.670300 
      4 C          12.715000    3.040000   12.306000 C.ar      1 <1>         0.421700 
      5 C          12.159000    3.829000   13.328000 C.ar      1 <1>        -0.397600 
      6 C          10.796000    3.500000   13.550000 C.ar      1 <1>         0.675300 
      7 N          10.029000    4.044000   14.564000 N.pl3     1 <1>        -0.714400 
      8 H          10.427000    4.029000   15.496000 H         1 <1>         0.309500 
      9 H           9.063000    3.728000   14.551000 H         1 <1>         0.301100 
     10 C          13.008000    4.829000   13.976000 C.ar      1 <1>        -0.106800 
     11 C          14.385000    4.920000   13.632000 C.ar      1 <1>         0.048300 
     12 C          14.883000    4.082000   12.630000 C.ar      1 <1>        -0.114500 
     13 H          15.928000    4.142000   12.326000 H         1 <1>         0.146400 
     14 C          14.051000    3.175000   11.982000 C.ar      1 <1>        -0.186100 
     15 H          14.475000    2.555000   11.192000 H         1 <1>         0.135800 
     16 C          15.363000    5.903000   14.257000 C.3       1 <1>         0.198800 
     17 H          15.872000    5.422000   15.103000 H         1 <1>         0.002300 
     18 H          14.822000    6.754000   14.682000 H         1 <1>         0.044600 
     19 N          16.344000    6.321000   13.273000 N.pl3     1 <1>        -0.705200 
     20 H          17.311000    6.064000   13.456000 H         1 <1>         0.337000 
     21 C          16.068000    7.117000   12.182000 C.ar      1 <1>         0.350300 
     22 C          14.784000    7.662000   12.049000 C.ar      1 <1>        -0.259800 
     23 H          14.022000    7.452000   12.798000 H         1 <1>         0.120300 
     24 C          14.444000    8.478000   10.962000 C.ar      1 <1>        -0.044800 
     25 H          13.433000    8.877000   10.895000 H         1 <1>         0.134700 
     26 C          15.393000    8.778000    9.982000 C.ar      1 <1>        -0.168600 
     27 C          16.678000    8.241000   10.098000 C.ar      1 <1>         0.011300 
     28 H          17.438000    8.420000    9.342000 H         1 <1>         0.123300 
     29 C          17.007000    7.425000   11.191000 C.ar      1 <1>        -0.329100 
     30 H          18.019000    7.028000   11.238000 H         1 <1>         0.107800 
     31 C          15.038000    9.192000    8.706000 C.2       1 <1>         0.591800 
     32 N          13.876000    9.215000    7.933000 N.am      1 <1>        -0.534100 
     33 H          13.008000    8.974000    8.374000 H         1 <1>         0.315000 
     34 C          13.668000    9.748000    6.772000 C.3       1 <1>         0.023300 
     35 H          14.101000   10.761000    6.744000 H         1 <1>         0.055400 
     36 C          12.067000    9.842000    6.620000 C.2       1 <1>         0.525400 
     37 O          11.642000   10.618000    5.756000 O.3       1 <1>        -0.677700 
     38 O          11.412000    9.154000    7.415000 O.2       1 <1>        -0.708100 
     39 C          14.217000    8.860000    5.616000 C.3       1 <1>        -0.032800 
     40 H          13.933000    7.819000    5.864000 H         1 <1>         0.029900 
     41 H          13.568000    9.111000    4.752000 H         1 <1>         0.039500 
     42 C          15.661000    8.754000    5.039000 C.3       1 <1>        -0.160200 
     43 H          16.023000    9.729000    4.681000 H         1 <1>         0.013100 
     44 H          16.345000    8.401000    5.826000 H         1 <1>         0.004000 
     45 C          15.637000    7.706000    3.870000 C.2       1 <1>         0.609700 
     46 O          14.719000    7.822000    3.051000 O.2       1 <1>        -0.718800 
     47 O          16.552000    6.875000    3.896000 O.3       1 <1>        -0.748200 
     48 O          16.090000    9.530000    8.230000 O.2       1 <1>        -0.506800 
     49 C          12.424000    5.840000   14.954000 C.3       1 <1>         0.129400 
     50 H          13.207000    6.334000   15.536000 H         1 <1>        -0.021500 
     51 H          11.834000    5.338000   15.722000 H         1 <1>        -0.018300 
     52 C          11.620000    6.929000   14.253000 C.3       1 <1>        -0.102200 
     53 H          11.224000    7.636000   14.989000 H         1 <1>         0.005400 
     54 H          10.776000    6.525000   13.687000 H         1 <1>         0.046500 
     55 H          12.246000    7.490000   13.551000 H         1 <1>         0.044300 
     56 N          10.052000    1.086000   11.089000 N.pl3     1 <1>        -0.896600 
     57 H          10.523000    0.579000   10.354000 H         1 <1>         0.397000 
     58 H           9.069000    0.939000   11.265000 H         1 <1>         0.384200 
@<TRIPOS>BOND
     1    1    2 ar   
     2    2    3 ar   
     3    3    4 ar   
     4    4    5 ar   
     5    5    6 ar   
     6    6    1 ar   
     7    6    7 1    
     8    7    8 1    
     9    7    9 1    
    10    5   10 ar   
    11   10   11 ar   
    12   11   12 ar   
    13   12   13 1    
    14   12   14 ar   
    15   14   15 1    
    16   14    4 ar   
    17   11   16 1    
    18   16   17 1    
    19   16   18 1    
    20   16   19 1    
    21   19   20 1    
    22   19   21 1    
    23   21   22 ar   
    24   22   23 1    
    25   22   24 ar   
    26   24   25 1    
    27   24   26 ar   
    28   26   27 ar   
    29   27   28 1    
    30   27   29 ar   
    31   29   30 1    
    32   29   21 ar   
    33   26   31 1    
    34   31   32 am   
    35   32   33 1    
    36   32   34 1    
    37   34   35 1    
    38   34   36 1    
    39   36   37 1    
    40   36   38 2    
    41   34   39 1    
    42   39   40 1    
    43   39   41 1    
    44   39   42 1    
    45   42   43 1    
    46   42   44 1    
    47   42   45 1    
    48   45   46 2    
    49   45   47 1    
    50   31   48 2    
    51   10   49 1    
    52   49   50 1    
    53   49   51 1    
    54   49   52 1    
    55   52   53 1    
    56   52   54 1    
    57   52   55 1    
    58    2   56 1    
    59   56   57 1    
    60   56   58 1    
@<TRIPOS>SUBSTRUCTURE
     1 ****        1 TEMP              0 ****  ****    0 ROOT 
@<TRIPOS>SET
UNITY_3DHIT     STATIC     ATOMS    <user>   **** Atoms matching 3D or FLEX Search
0
@<TRIPOS>UNITY_ATOM_ATTR
37 1
AtomExpr -1
47 1
AtomExpr -1
