#	Name:			1-232965
#	Creating user name:	jeff
#	Creation time:		Thu Dec  4 18:13:22 2003

#	Modifying user name:	jeff
#	Modification time:	Thu Dec  4 18:13:22 2003

@<TRIPOS>MOLECULE
1-232965
   32    34     1     0     1
SMALL
USER_CHARGES
****
From 3DB ct
@<TRIPOS>ATOM
      1 N          10.148000    2.594000   12.869000 N.ar      1 <1>        -0.632400 
      2 C          10.771000    1.956000   11.882000 C.ar      1 <1>         0.744100 
      3 N          12.041000    2.154000   11.543000 N.ar      1 <1>        -0.670500 
      4 C          12.732000    3.054000   12.235000 C.ar      1 <1>         0.627400 
      5 C          12.198000    3.792000   13.299000 C.ar      1 <1>        -0.281000 
      6 C          10.867000    3.489000   13.569000 C.ar      1 <1>         0.582100 
      7 N          10.172000    4.170000   14.561000 N.pl3     1 <1>        -0.708800 
      8 H          10.705000    4.508000   15.357000 H         1 <1>         0.342600 
      9 H           9.216000    3.878000   14.736000 H         1 <1>         0.346700 
     10 N          12.935000    4.713000   14.002000 N.ar      1 <1>        -0.216100 
     11 C          14.223000    4.888000   13.620000 C.ar      1 <1>         0.087800 
     12 C          14.737000    4.154000   12.564000 C.ar      1 <1>         0.178600 
     13 H          15.766000    4.277000   12.237000 H         1 <1>         0.108600 
     14 N          14.006000    3.240000   11.871000 N.ar      1 <1>        -0.456100 
     15 C          15.072000    5.887000   14.363000 C.3       1 <1>        -0.254200 
     16 H          15.230000    5.534000   15.388000 H         1 <1>         0.127500 
     17 H          14.534000    6.840000   14.415000 H         1 <1>         0.108500 
     18 S          16.685000    6.158000   13.534000 S.3       1 <1>        -0.025700 
     19 C          16.186000    7.169000   12.149000 C.ar      1 <1>        -0.076700 
     20 C          14.864000    7.630000   12.102000 C.ar      1 <1>        -0.044500 
     21 H          14.162000    7.382000   12.897000 H         1 <1>         0.098800 
     22 C          14.425000    8.420000   11.038000 C.ar      1 <1>        -0.142300 
     23 H          13.397000    8.779000   11.014000 H         1 <1>         0.106600 
     24 C          15.301000    8.750000   10.006000 C.ar      1 <1>        -0.051900 
     25 H          14.960000    9.367000    9.177000 H         1 <1>         0.095900 
     26 C          16.613000    8.281000   10.034000 C.ar      1 <1>        -0.143200 
     27 H          17.297000    8.531000    9.225000 H         1 <1>         0.110900 
     28 C          17.053000    7.489000   11.099000 C.ar      1 <1>        -0.038800 
     29 H          18.077000    7.122000   11.081000 H         1 <1>         0.101500 
     30 N          10.059000    1.042000   11.169000 N.pl3     1 <1>        -0.751800 
     31 H          10.502000    0.540000   10.414000 H         1 <1>         0.370500 
     32 H           9.091000    0.873000   11.399000 H         1 <1>         0.356000 
@<TRIPOS>BOND
     1    1    2 ar   
     2    2    3 ar   
     3    3    4 ar   
     4    4    5 ar   
     5    5    6 ar   
     6    6    1 ar   
     7    6    7 1    
     8    7    8 1    
     9    7    9 1    
    10    5   10 ar   
    11   10   11 ar   
    12   11   12 ar   
    13   12   13 1    
    14   12   14 ar   
    15   14    4 ar   
    16   11   15 1    
    17   15   16 1    
    18   15   17 1    
    19   15   18 1    
    20   18   19 1    
    21   19   20 ar   
    22   20   21 1    
    23   20   22 ar   
    24   22   23 1    
    25   22   24 ar   
    26   24   25 1    
    27   24   26 ar   
    28   26   27 1    
    29   26   28 ar   
    30   28   29 1    
    31   28   19 ar   
    32    2   30 1    
    33   30   31 1    
    34   30   32 1    
@<TRIPOS>SUBSTRUCTURE
     1 ****        1 TEMP              0 ****  ****    0 ROOT 
@<TRIPOS>SET
UNITY_3DHIT     STATIC     ATOMS    <user>   **** Atoms matching 3D or FLEX Search
0
