#	Name:			1-233904
#	Creating user name:	jeff
#	Creation time:		Thu Dec  4 18:13:22 2003

#	Modifying user name:	jeff
#	Modification time:	Thu Dec  4 18:13:22 2003

@<TRIPOS>MOLECULE
1-233904
   36    38     1     0     1
SMALL
USER_CHARGES
****
From 3DB ct
@<TRIPOS>ATOM
      1 C          12.200000    3.860000   13.273000 C.ar      1 <1>        -0.325400 
      2 C          10.845000    3.466000   13.630000 C.ar      1 <1>         0.631400 
      3 N          10.144000    2.594000   12.896000 N.ar      1 <1>        -0.652100 
      4 C          10.698000    1.979000   11.824000 C.ar      1 <1>         0.757000 
      5 N          12.040000    2.147000   11.544000 N.ar      1 <1>        -0.670400 
      6 C          12.771000    3.054000   12.316000 C.ar      1 <1>         0.618500 
      7 N          14.087000    3.062000   11.948000 N.ar      1 <1>        -0.454400 
      8 C          14.842000    3.979000   12.621000 C.ar      1 <1>         0.194900 
      9 H          15.775000    3.943000   12.445000 H         1 <1>         0.092300 
     10 C          14.331000    4.935000   13.523000 C.ar      1 <1>         0.096400 
     11 N          12.974000    4.870000   13.860000 N.ar      1 <1>        -0.205800 
     12 C          15.283000    5.941000   14.271000 C.3       1 <1>        -0.165400 
     13 H          14.782000    6.692000   14.565000 H         1 <1>         0.096700 
     14 H          15.679000    5.509000   15.019000 H         1 <1>         0.110000 
     15 N          16.369000    6.388000   13.305000 N.pl3     1 <1>        -0.172900 
     16 C          16.036000    7.098000   12.249000 C.ar      1 <1>         0.117200 
     17 C          14.739000    7.659000   12.082000 C.ar      1 <1>        -0.134100 
     18 H          13.910000    7.495000   12.794000 H         1 <1>         0.088500 
     19 C          14.455000    8.476000   10.990000 C.ar      1 <1>        -0.088800 
     20 H          13.448000    8.926000   10.866000 H         1 <1>         0.106900 
     21 C          15.417000    8.725000   10.019000 C.ar      1 <1>        -0.141300 
     22 H          15.135000    9.347000    9.146000 H         1 <1>         0.100900 
     23 C          16.672000    8.201000   10.095000 C.ar      1 <1>        -0.066600 
     24 H          17.387000    8.367000    9.278000 H         1 <1>         0.102600 
     25 C          17.003000    7.433000   11.280000 C.ar      1 <1>        -0.188100 
     26 H          18.042000    7.062000   11.310000 H         1 <1>         0.099700 
     27 C          17.663000    6.065000   13.521000 C.3       1 <1>        -0.021700 
     28 H          17.744000    5.479000   14.437000 H         1 <1>         0.049800 
     29 H          18.036000    5.479000   12.680000 H         1 <1>         0.044900 
     30 H          18.253000    6.976000   13.619000 H         1 <1>         0.041900 
     31 N          10.000000    1.203000   11.073000 N.pl3     1 <1>        -0.760900 
     32 H           9.131000    1.063000   11.257000 H         1 <1>         0.359900 
     33 H          10.381000    0.801000   10.364000 H         1 <1>         0.370000 
     34 N          10.182000    3.960000   14.711000 N.pl3     1 <1>        -0.726700 
     35 H          10.582000    4.562000   15.248000 H         1 <1>         0.344700 
     36 H           9.344000    3.684000   14.890000 H         1 <1>         0.350100 
@<TRIPOS>BOND
     1    1    2 ar   
     2    2    3 ar   
     3    3    4 ar   
     4    4    5 ar   
     5    5    6 ar   
     6    6    1 ar   
     7    6    7 ar   
     8    7    8 ar   
     9    8    9 1    
    10    8   10 ar   
    11   10   11 ar   
    12   11    1 ar   
    13   10   12 1    
    14   12   13 1    
    15   12   14 1    
    16   12   15 1    
    17   15   16 1    
    18   16   17 ar   
    19   17   18 1    
    20   17   19 ar   
    21   19   20 1    
    22   19   21 ar   
    23   21   22 1    
    24   21   23 ar   
    25   23   24 1    
    26   23   25 ar   
    27   25   26 1    
    28   25   16 ar   
    29   15   27 1    
    30   27   28 1    
    31   27   29 1    
    32   27   30 1    
    33    4   31 1    
    34   31   32 1    
    35   31   33 1    
    36    2   34 1    
    37   34   35 1    
    38   34   36 1    
@<TRIPOS>SUBSTRUCTURE
     1 ****        1 TEMP              0 ****  ****    0 ROOT 
@<TRIPOS>SET
UNITY_3DHIT     STATIC     ATOMS    <user>   **** Atoms matching 3D or FLEX Search
0
