#	Name:			1-233912
#	Creating user name:	jeff
#	Creation time:		Thu Dec  4 18:13:22 2003

#	Modifying user name:	jeff
#	Modification time:	Thu Dec  4 18:13:22 2003

@<TRIPOS>MOLECULE
1-233912
   32    34     1     0     1
SMALL
USER_CHARGES
****
From 3DB ct
@<TRIPOS>ATOM
      1 N          10.194000    2.645000   12.909000 N.ar      1 <1>        -0.640300 
      2 C          10.783000    1.984000   11.917000 C.ar      1 <1>         0.742100 
      3 N          12.047000    2.156000   11.544000 N.ar      1 <1>        -0.662500 
      4 C          12.770000    3.052000   12.208000 C.ar      1 <1>         0.614600 
      5 C          12.275000    3.814000   13.274000 C.ar      1 <1>        -0.282400 
      6 C          10.945000    3.537000   13.580000 C.ar      1 <1>         0.604500 
      7 N          10.284000    4.241000   14.579000 N.pl3     1 <1>        -0.717300 
      8 H          10.841000    4.588000   15.356000 H         1 <1>         0.344200 
      9 H           9.329000    3.967000   14.781000 H         1 <1>         0.347000 
     10 N          13.044000    4.732000   13.945000 N.ar      1 <1>        -0.231600 
     11 C          14.325000    4.880000   13.527000 C.ar      1 <1>         0.053500 
     12 C          14.801000    4.124000   12.471000 C.ar      1 <1>         0.202200 
     13 H          15.822000    4.230000   12.116000 H         1 <1>         0.109400 
     14 N          14.038000    3.212000   11.810000 N.ar      1 <1>        -0.459300 
     15 C          15.213000    5.882000   14.221000 C.3       1 <1>        -0.008800 
     16 H          15.630000    5.419000   15.123000 H         1 <1>         0.086400 
     17 H          14.615000    6.759000   14.496000 H         1 <1>         0.078900 
     18 O          16.257000    6.268000   13.317000 O.3       1 <1>        -0.305100 
     19 C          15.905000    7.084000   12.278000 C.ar      1 <1>         0.296200 
     20 C          16.926000    7.324000   11.352000 C.ar      1 <1>        -0.259300 
     21 H          17.907000    6.873000   11.493000 H         1 <1>         0.139500 
     22 C          16.703000    8.141000   10.243000 C.ar      1 <1>        -0.018100 
     23 H          17.505000    8.322000    9.529000 H         1 <1>         0.098100 
     24 C          15.453000    8.724000   10.051000 C.ar      1 <1>        -0.170300 
     25 H          15.275000    9.362000    9.187000 H         1 <1>         0.112400 
     26 C          14.431000    8.488000   10.968000 C.ar      1 <1>        -0.079500 
     27 H          13.452000    8.943000   10.818000 H         1 <1>         0.112100 
     28 C          14.654000    7.669000   12.080000 C.ar      1 <1>        -0.189100 
     29 H          13.826000    7.513000   12.766000 H         1 <1>         0.106100 
     30 N          10.040000    1.071000   11.236000 N.pl3     1 <1>        -0.748800 
     31 H          10.454000    0.550000   10.476000 H         1 <1>         0.368700 
     32 H           9.076000    0.918000   11.494000 H         1 <1>         0.356500 
@<TRIPOS>BOND
     1    1    2 ar   
     2    2    3 ar   
     3    3    4 ar   
     4    4    5 ar   
     5    5    6 ar   
     6    6    1 ar   
     7    6    7 1    
     8    7    8 1    
     9    7    9 1    
    10    5   10 ar   
    11   10   11 ar   
    12   11   12 ar   
    13   12   13 1    
    14   12   14 ar   
    15   14    4 ar   
    16   11   15 1    
    17   15   16 1    
    18   15   17 1    
    19   15   18 1    
    20   18   19 1    
    21   19   20 ar   
    22   20   21 1    
    23   20   22 ar   
    24   22   23 1    
    25   22   24 ar   
    26   24   25 1    
    27   24   26 ar   
    28   26   27 1    
    29   26   28 ar   
    30   28   29 1    
    31   28   19 ar   
    32    2   30 1    
    33   30   31 1    
    34   30   32 1    
@<TRIPOS>SUBSTRUCTURE
     1 ****        1 TEMP              0 ****  ****    0 ROOT 
@<TRIPOS>SET
UNITY_3DHIT     STATIC     ATOMS    <user>   **** Atoms matching 3D or FLEX Search
0
