#	Name:			1-235776
#	Creating user name:	jeff
#	Creation time:		Thu Dec  4 18:13:22 2003

#	Modifying user name:	jeff
#	Modification time:	Thu Dec  4 18:13:22 2003

@<TRIPOS>MOLECULE
1-235776
   33    35     1     0     1
SMALL
USER_CHARGES
****
From 3DB ct
@<TRIPOS>ATOM
      1 N          10.176000    2.637000   12.899000 N.ar      1 <1>        -0.649000 
      2 C          10.768000    1.982000   11.904000 C.ar      1 <1>         0.754300 
      3 N          12.035000    2.154000   11.539000 N.ar      1 <1>        -0.665600 
      4 C          12.757000    3.042000   12.214000 C.ar      1 <1>         0.607600 
      5 C          12.258000    3.795000   13.286000 C.ar      1 <1>        -0.299400 
      6 C          10.926000    3.521000   13.581000 C.ar      1 <1>         0.616700 
      7 N          10.261000    4.220000   14.581000 N.pl3     1 <1>        -0.721400 
      8 H          10.815000    4.564000   15.361000 H         1 <1>         0.344100 
      9 H           9.304000    3.949000   14.776000 H         1 <1>         0.349100 
     10 N          13.027000    4.703000   13.971000 N.ar      1 <1>        -0.221200 
     11 C          14.314000    4.843000   13.567000 C.ar      1 <1>         0.081100 
     12 C          14.790000    4.103000   12.499000 C.ar      1 <1>         0.209000 
     13 H          15.811000    4.215000   12.145000 H         1 <1>         0.088200 
     14 N          14.027000    3.202000   11.824000 N.ar      1 <1>        -0.455000 
     15 C          15.201000    5.850000   14.267000 C.3       1 <1>        -0.063000 
     16 H          15.635000    5.381000   15.158000 H         1 <1>         0.082500 
     17 H          14.582000    6.692000   14.600000 H         1 <1>         0.091100 
     18 N          16.247000    6.328000   13.370000 N.pl3     1 <1>        -0.492300 
     19 H          17.154000    5.871000   13.450000 H         1 <1>         0.304700 
     20 C          16.018000    7.131000   12.270000 C.ar      1 <1>         0.262600 
     21 C          14.740000    7.676000   12.084000 C.ar      1 <1>        -0.166600 
     22 H          13.955000    7.486000   12.814000 H         1 <1>         0.100800 
     23 C          14.437000    8.467000   10.970000 C.ar      1 <1>        -0.070000 
     24 H          13.436000    8.879000   10.854000 H         1 <1>         0.105200 
     25 C          15.413000    8.722000   10.013000 C.ar      1 <1>        -0.181500 
     26 H          15.182000    9.336000    9.145000 H         1 <1>         0.107300 
     27 C          16.686000    8.183000   10.172000 C.ar      1 <1>        -0.009700 
     28 H          17.455000    8.375000    9.425000 H         1 <1>         0.094700 
     29 C          16.981000    7.391000   11.288000 C.ar      1 <1>        -0.292300 
     30 H          17.988000    6.987000   11.368000 H         1 <1>         0.118300 
     31 N          10.026000    1.076000   11.213000 N.pl3     1 <1>        -0.760200 
     32 H          10.441000    0.560000   10.451000 H         1 <1>         0.370600 
     33 H           9.062000    0.921000   11.469000 H         1 <1>         0.359200 
@<TRIPOS>BOND
     1    1    2 ar   
     2    2    3 ar   
     3    3    4 ar   
     4    4    5 ar   
     5    5    6 ar   
     6    6    1 ar   
     7    6    7 1    
     8    7    8 1    
     9    7    9 1    
    10    5   10 ar   
    11   10   11 ar   
    12   11   12 ar   
    13   12   13 1    
    14   12   14 ar   
    15   14    4 ar   
    16   11   15 1    
    17   15   16 1    
    18   15   17 1    
    19   15   18 1    
    20   18   19 1    
    21   18   20 1    
    22   20   21 ar   
    23   21   22 1    
    24   21   23 ar   
    25   23   24 1    
    26   23   25 ar   
    27   25   26 1    
    28   25   27 ar   
    29   27   28 1    
    30   27   29 ar   
    31   29   30 1    
    32   29   20 ar   
    33    2   31 1    
    34   31   32 1    
    35   31   33 1    
@<TRIPOS>SUBSTRUCTURE
     1 ****        1 TEMP              0 ****  ****    0 ROOT 
@<TRIPOS>SET
UNITY_3DHIT     STATIC     ATOMS    <user>   **** Atoms matching 3D or FLEX Search
0
