#	Name:			1-235777
#	Creating user name:	jeff
#	Creation time:		Thu Dec  4 18:13:22 2003

#	Modifying user name:	jeff
#	Modification time:	Thu Dec  4 18:13:22 2003

@<TRIPOS>MOLECULE
1-235777
   39    42     1     0     1
SMALL
USER_CHARGES
****
From 3DB ct
@<TRIPOS>ATOM
      1 N          10.173000    2.645000   12.889000 N.ar      1 <1>        -0.655900 
      2 C          10.770000    1.991000   11.896000 C.ar      1 <1>         0.751400 
      3 N          12.038000    2.162000   11.538000 N.ar      1 <1>        -0.661200 
      4 C          12.760000    3.043000   12.222000 C.ar      1 <1>         0.593900 
      5 C          12.256000    3.800000   13.288000 C.ar      1 <1>        -0.302800 
      6 C          10.914000    3.545000   13.560000 C.ar      1 <1>         0.646400 
      7 N          10.271000    4.175000   14.619000 N.pl3     1 <1>        -0.750600 
      8 H          10.591000    5.105000   14.875000 H         1 <1>         0.354700 
      9 H           9.284000    3.976000   14.741000 H         1 <1>         0.355200 
     10 N          13.022000    4.706000   13.977000 N.ar      1 <1>        -0.245900 
     11 C          14.316000    4.840000   13.581000 C.ar      1 <1>         0.136900 
     12 C          14.800000    4.086000   12.527000 C.ar      1 <1>         0.200300 
     13 H          15.830000    4.178000   12.191000 H         1 <1>         0.085000 
     14 N          14.036000    3.192000   11.845000 N.ar      1 <1>        -0.446200 
     15 C          15.230000    5.821000   14.294000 C.3       1 <1>        -0.132100 
     16 H          15.717000    5.296000   15.124000 H         1 <1>         0.092900 
     17 H          14.617000    6.640000   14.688000 H         1 <1>         0.099900 
     18 N          16.240000    6.353000   13.383000 N.pl3     1 <1>        -0.424900 
     19 H          17.192000    6.099000   13.639000 H         1 <1>         0.298900 
     20 C          15.989000    7.129000   12.263000 C.ar      1 <1>         0.200100 
     21 C          14.712000    7.674000   12.043000 C.ar      1 <1>        -0.215400 
     22 H          13.898000    7.498000   12.743000 H         1 <1>         0.124500 
     23 C          14.433000    8.460000   10.925000 C.ar      1 <1>        -0.048500 
     24 H          13.434000    8.867000   10.783000 H         1 <1>         0.109900 
     25 C          15.431000    8.721000    9.996000 C.ar      1 <1>        -0.292100 
     26 H          15.191000    9.337000    9.130000 H         1 <1>         0.136500 
     27 C          16.719000    8.202000   10.169000 C.ar      1 <1>         0.233500 
     28 C          17.018000    7.399000   11.304000 C.ar      1 <1>        -0.129600 
     29 C          18.345000    6.910000   11.408000 C.ar      1 <1>        -0.082100 
     30 H          18.648000    6.289000   12.248000 H         1 <1>         0.081100 
     31 C          19.321000    7.198000   10.448000 C.ar      1 <1>        -0.139000 
     32 H          20.329000    6.804000   10.564000 H         1 <1>         0.109600 
     33 C          19.003000    7.984000    9.351000 C.ar      1 <1>        -0.052200 
     34 H          19.759000    8.211000    8.601000 H         1 <1>         0.099000 
     35 C          17.710000    8.483000    9.213000 C.ar      1 <1>        -0.229600 
     36 H          17.480000    9.099000    8.343000 H         1 <1>         0.126900 
     37 N          10.031000    1.086000   11.201000 N.pl3     1 <1>        -0.755100 
     38 H          10.450000    0.570000   10.441000 H         1 <1>         0.368400 
     39 H           9.064000    0.933000   11.449000 H         1 <1>         0.358300 
@<TRIPOS>BOND
     1    1    2 ar   
     2    2    3 ar   
     3    3    4 ar   
     4    4    5 ar   
     5    5    6 ar   
     6    6    1 ar   
     7    6    7 1    
     8    7    8 1    
     9    7    9 1    
    10    5   10 ar   
    11   10   11 ar   
    12   11   12 ar   
    13   12   13 1    
    14   12   14 ar   
    15   14    4 ar   
    16   11   15 1    
    17   15   16 1    
    18   15   17 1    
    19   15   18 1    
    20   18   19 1    
    21   18   20 1    
    22   20   21 ar   
    23   21   22 1    
    24   21   23 ar   
    25   23   24 1    
    26   23   25 ar   
    27   25   26 1    
    28   25   27 ar   
    29   27   28 ar   
    30   28   20 ar   
    31   28   29 ar   
    32   29   30 1    
    33   29   31 ar   
    34   31   32 1    
    35   31   33 ar   
    36   33   34 1    
    37   33   35 ar   
    38   35   36 1    
    39   35   27 ar   
    40    2   37 1    
    41   37   38 1    
    42   37   39 1    
@<TRIPOS>SUBSTRUCTURE
     1 ****        1 TEMP              0 ****  ****    0 ROOT 
@<TRIPOS>SET
UNITY_3DHIT     STATIC     ATOMS    <user>   **** Atoms matching 3D or FLEX Search
0
