#	Name:			1-236642
#	Creating user name:	jeff
#	Creation time:		Thu Dec  4 18:13:22 2003

#	Modifying user name:	jeff
#	Modification time:	Thu Dec  4 18:13:22 2003

@<TRIPOS>MOLECULE
1-236642
   43    45     1     0     1
SMALL
USER_CHARGES
****
From 3DB ct
@<TRIPOS>ATOM
      1 C          12.200000    3.860000   13.273000 C.ar      1 <1>        -0.304100 
      2 C          10.845000    3.466000   13.630000 C.ar      1 <1>         0.619100 
      3 N          10.144000    2.594000   12.896000 N.ar      1 <1>        -0.645100 
      4 C          10.698000    1.979000   11.824000 C.ar      1 <1>         0.749500 
      5 N          12.040000    2.147000   11.544000 N.ar      1 <1>        -0.666900 
      6 C          12.771000    3.054000   12.316000 C.ar      1 <1>         0.612800 
      7 N          14.087000    3.062000   11.948000 N.ar      1 <1>        -0.455400 
      8 C          14.842000    3.979000   12.621000 C.ar      1 <1>         0.209300 
      9 H          15.775000    3.943000   12.445000 H         1 <1>         0.088200 
     10 C          14.331000    4.935000   13.523000 C.ar      1 <1>         0.065700 
     11 N          12.974000    4.870000   13.860000 N.ar      1 <1>        -0.213800 
     12 C          15.283000    5.941000   14.271000 C.3       1 <1>        -0.042500 
     13 H          14.782000    6.692000   14.565000 H         1 <1>         0.086300 
     14 H          15.679000    5.509000   15.019000 H         1 <1>         0.079500 
     15 N          16.369000    6.388000   13.305000 N.pl3     1 <1>        -0.482900 
     16 H          17.232000    6.173000   13.449000 H         1 <1>         0.304200 
     17 C          16.036000    7.098000   12.249000 C.ar      1 <1>         0.257500 
     18 C          14.739000    7.659000   12.082000 C.ar      1 <1>        -0.143300 
     19 H          13.910000    7.495000   12.794000 H         1 <1>         0.096900 
     20 C          14.455000    8.476000   10.990000 C.ar      1 <1>        -0.089700 
     21 H          13.448000    8.926000   10.866000 H         1 <1>         0.116400 
     22 C          15.417000    8.725000   10.019000 C.ar      1 <1>        -0.149200 
     23 C          16.672000    8.201000   10.095000 C.ar      1 <1>        -0.029600 
     24 H          17.387000    8.367000    9.278000 H         1 <1>         0.128300 
     25 C          17.003000    7.433000   11.280000 C.ar      1 <1>        -0.278500 
     26 H          18.042000    7.062000   11.310000 H         1 <1>         0.121100 
     27 C          14.954000    9.651000    8.917000 C.2       1 <1>         0.520400 
     28 O          15.959000   10.318000    8.214000 O.2       1 <1>        -0.441700 
     29 N          13.763000    9.697000    8.640000 N.am      1 <1>        -0.278500 
     30 C          12.651000    8.733000    8.752000 C.3       1 <1>        -0.100000 
     31 H          12.196000    8.574000    7.758000 H         1 <1>         0.074300 
     32 H          12.994000    7.749000    9.094000 H         1 <1>         0.077200 
     33 H          11.866000    9.119000    9.423000 H         1 <1>         0.059200 
     34 C          13.413000   10.787000    7.694000 C.3       1 <1>        -0.069100 
     35 H          12.342000   11.031000    7.787000 H         1 <1>         0.051200 
     36 H          13.972000   11.705000    7.927000 H         1 <1>         0.084600 
     37 H          13.618000   10.505000    6.647000 H         1 <1>         0.043000 
     38 N          10.000000    1.203000   11.073000 N.pl3     1 <1>        -0.753100 
     39 H           9.131000    1.063000   11.257000 H         1 <1>         0.358300 
     40 H          10.381000    0.801000   10.364000 H         1 <1>         0.368800 
     41 N          10.182000    3.960000   14.711000 N.pl3     1 <1>        -0.721100 
     42 H          10.582000    4.562000   15.248000 H         1 <1>         0.344200 
     43 H           9.344000    3.684000   14.890000 H         1 <1>         0.348400 
@<TRIPOS>BOND
     1    1    2 ar   
     2    2    3 ar   
     3    3    4 ar   
     4    4    5 ar   
     5    5    6 ar   
     6    6    1 ar   
     7    6    7 ar   
     8    7    8 ar   
     9    8    9 1    
    10    8   10 ar   
    11   10   11 ar   
    12   11    1 ar   
    13   10   12 1    
    14   12   13 1    
    15   12   14 1    
    16   12   15 1    
    17   15   16 1    
    18   15   17 1    
    19   17   18 ar   
    20   18   19 1    
    21   18   20 ar   
    22   20   21 1    
    23   20   22 ar   
    24   22   23 ar   
    25   23   24 1    
    26   23   25 ar   
    27   25   26 1    
    28   25   17 ar   
    29   22   27 1    
    30   27   28 2    
    31   27   29 am   
    32   29   30 1    
    33   30   31 1    
    34   30   32 1    
    35   30   33 1    
    36   29   34 1    
    37   34   35 1    
    38   34   36 1    
    39   34   37 1    
    40    4   38 1    
    41   38   39 1    
    42   38   40 1    
    43    2   41 1    
    44   41   42 1    
    45   41   43 1    
@<TRIPOS>SUBSTRUCTURE
     1 ****        1 TEMP              0 ****  ****    0 ROOT 
@<TRIPOS>SET
UNITY_3DHIT     STATIC     ATOMS    <user>   **** Atoms matching 3D or FLEX Search
0
