#	Name:			1-235791
#	Creating user name:	jeff
#	Creation time:		Thu Dec  4 18:13:22 2003

#	Modifying user name:	jeff
#	Modification time:	Thu Dec  4 18:13:22 2003

@<TRIPOS>MOLECULE
1-235791
   38    40     1     0     1
SMALL
USER_CHARGES
****
From 3DB ct
@<TRIPOS>ATOM
      1 C          12.200000    3.860000   13.273000 C.ar      1 <1>        -0.298500 
      2 C          10.845000    3.466000   13.630000 C.ar      1 <1>         0.617500 
      3 N          10.144000    2.594000   12.896000 N.ar      1 <1>        -0.643900 
      4 C          10.698000    1.979000   11.824000 C.ar      1 <1>         0.748600 
      5 N          12.040000    2.147000   11.544000 N.ar      1 <1>        -0.664900 
      6 C          12.771000    3.054000   12.316000 C.ar      1 <1>         0.609700 
      7 N          14.087000    3.062000   11.948000 N.ar      1 <1>        -0.453000 
      8 C          14.842000    3.979000   12.621000 C.ar      1 <1>         0.209200 
      9 H          15.775000    3.943000   12.445000 H         1 <1>         0.088300 
     10 C          14.331000    4.935000   13.523000 C.ar      1 <1>         0.067000 
     11 N          12.974000    4.870000   13.860000 N.ar      1 <1>        -0.217500 
     12 C          15.283000    5.941000   14.271000 C.3       1 <1>        -0.046000 
     13 H          14.782000    6.692000   14.565000 H         1 <1>         0.086100 
     14 H          15.679000    5.509000   15.019000 H         1 <1>         0.081100 
     15 N          16.369000    6.388000   13.305000 N.pl3     1 <1>        -0.481500 
     16 H          17.232000    6.173000   13.449000 H         1 <1>         0.303300 
     17 C          16.036000    7.098000   12.249000 C.ar      1 <1>         0.293200 
     18 C          14.739000    7.659000   12.082000 C.ar      1 <1>        -0.181300 
     19 H          14.058000    7.479000   12.719000 H         1 <1>         0.105100 
     20 C          14.455000    8.476000   10.990000 C.ar      1 <1>        -0.049800 
     21 H          13.448000    8.926000   10.866000 H         1 <1>         0.108900 
     22 C          15.417000    8.725000   10.019000 C.ar      1 <1>        -0.239900 
     23 C          16.672000    8.201000   10.095000 C.ar      1 <1>         0.036800 
     24 H          17.387000    8.367000    9.278000 H         1 <1>         0.114900 
     25 C          17.003000    7.433000   11.280000 C.ar      1 <1>        -0.322200 
     26 H          17.904000    7.155000   11.393000 H         1 <1>         0.128500 
     27 C          14.954000    9.651000    8.917000 C.2       1 <1>         0.511900 
     28 C          13.572000   10.304000    8.794000 C.3       1 <1>        -0.274000 
     29 H          13.827000   11.374000    8.703000 H         1 <1>         0.068000 
     30 H          13.245000    9.976000    7.793000 H         1 <1>         0.078600 
     31 H          12.717000   10.219000    9.471000 H         1 <1>         0.077500 
     32 O          15.730000    9.933000    8.014000 O.2       1 <1>        -0.405800 
     33 N          10.000000    1.203000   11.073000 N.pl3     1 <1>        -0.752800 
     34 H           9.131000    1.063000   11.257000 H         1 <1>         0.358400 
     35 H          10.381000    0.801000   10.364000 H         1 <1>         0.369200 
     36 N          10.182000    3.960000   14.711000 N.pl3     1 <1>        -0.722900 
     37 H          10.582000    4.562000   15.248000 H         1 <1>         0.343500 
     38 H           9.344000    3.684000   14.890000 H         1 <1>         0.348700 
@<TRIPOS>BOND
     1    1    2 ar   
     2    2    3 ar   
     3    3    4 ar   
     4    4    5 ar   
     5    5    6 ar   
     6    6    1 ar   
     7    6    7 ar   
     8    7    8 ar   
     9    8    9 1    
    10    8   10 ar   
    11   10   11 ar   
    12   11    1 ar   
    13   10   12 1    
    14   12   13 1    
    15   12   14 1    
    16   12   15 1    
    17   15   16 1    
    18   15   17 1    
    19   17   18 ar   
    20   18   19 1    
    21   18   20 ar   
    22   20   21 1    
    23   20   22 ar   
    24   22   23 ar   
    25   23   24 1    
    26   23   25 ar   
    27   25   26 1    
    28   25   17 ar   
    29   22   27 1    
    30   27   28 1    
    31   28   29 1    
    32   28   30 1    
    33   28   31 1    
    34   27   32 2    
    35    4   33 1    
    36   33   34 1    
    37   33   35 1    
    38    2   36 1    
    39   36   37 1    
    40   36   38 1    
@<TRIPOS>SUBSTRUCTURE
     1 ****        1 TEMP              0 ****  ****    0 ROOT 
@<TRIPOS>SET
UNITY_3DHIT     STATIC     ATOMS    <user>   **** Atoms matching 3D or FLEX Search
0
