#	Name:			1-233910
#	Creating user name:	jeff
#	Creation time:		Thu Dec  4 18:13:22 2003

#	Modifying user name:	jeff
#	Modification time:	Thu Dec  4 18:13:22 2003

@<TRIPOS>MOLECULE
1-233910
   40    42     1     0     1
SMALL
USER_CHARGES
****
From 3DB ct
@<TRIPOS>ATOM
      1 C          12.200000    3.860000   13.273000 C.ar      1 <1>        -0.293400 
      2 C          10.845000    3.466000   13.630000 C.ar      1 <1>         0.618800 
      3 N          10.144000    2.594000   12.896000 N.ar      1 <1>        -0.645300 
      4 C          10.698000    1.979000   11.824000 C.ar      1 <1>         0.747700 
      5 N          12.040000    2.147000   11.544000 N.ar      1 <1>        -0.664400 
      6 C          12.771000    3.054000   12.316000 C.ar      1 <1>         0.603000 
      7 N          14.087000    3.062000   11.948000 N.ar      1 <1>        -0.451200 
      8 C          14.842000    3.979000   12.621000 C.ar      1 <1>         0.209100 
      9 H          15.775000    3.943000   12.445000 H         1 <1>         0.086700 
     10 C          14.331000    4.935000   13.523000 C.ar      1 <1>         0.075700 
     11 N          12.974000    4.870000   13.860000 N.ar      1 <1>        -0.225500 
     12 C          15.283000    5.941000   14.271000 C.3       1 <1>        -0.049000 
     13 H          14.782000    6.692000   14.565000 H         1 <1>         0.081100 
     14 H          15.679000    5.509000   15.019000 H         1 <1>         0.078900 
     15 N          16.369000    6.388000   13.305000 N.pl3     1 <1>        -0.456000 
     16 H          17.232000    6.173000   13.449000 H         1 <1>         0.293500 
     17 C          16.036000    7.098000   12.249000 C.ar      1 <1>         0.186800 
     18 C          14.739000    7.659000   12.082000 C.ar      1 <1>        -0.091400 
     19 H          13.921000    7.522000   12.803000 H         1 <1>         0.104700 
     20 C          14.455000    8.476000   10.990000 C.ar      1 <1>        -0.282100 
     21 H          13.448000    8.926000   10.866000 H         1 <1>         0.141800 
     22 C          15.417000    8.725000   10.019000 C.ar      1 <1>         0.297500 
     23 C          16.672000    8.201000   10.095000 C.ar      1 <1>        -0.153600 
     24 H          17.454000    8.383000    9.332000 H         1 <1>         0.161000 
     25 C          17.003000    7.433000   11.280000 C.ar      1 <1>        -0.247200 
     26 H          18.033000    7.034000   11.368000 H         1 <1>         0.127600 
     27 N          15.100000    9.573000    8.897000 N.am      1 <1>        -0.693700 
     28 H          14.129000    9.789000    8.755000 H         1 <1>         0.338500 
     29 C          15.978000   10.277000    8.090000 C.2       1 <1>         0.680500 
     30 O          17.198000   10.240000    8.169000 O.2       1 <1>        -0.457100 
     31 C          15.291000   11.141000    7.032000 C.3       1 <1>        -0.334300 
     32 H          16.053000   11.656000    6.434000 H         1 <1>         0.095700 
     33 H          14.680000   10.518000    6.361000 H         1 <1>         0.089100 
     34 H          14.648000   11.898000    7.507000 H         1 <1>         0.087800 
     35 N          10.000000    1.203000   11.073000 N.pl3     1 <1>        -0.754200 
     36 H           9.131000    1.063000   11.257000 H         1 <1>         0.357500 
     37 H          10.381000    0.801000   10.364000 H         1 <1>         0.368900 
     38 N          10.182000    3.960000   14.711000 N.pl3     1 <1>        -0.727500 
     39 H          10.582000    4.562000   15.248000 H         1 <1>         0.345200 
     40 H           9.344000    3.684000   14.890000 H         1 <1>         0.348900 
@<TRIPOS>BOND
     1    1    2 ar   
     2    2    3 ar   
     3    3    4 ar   
     4    4    5 ar   
     5    5    6 ar   
     6    6    1 ar   
     7    6    7 ar   
     8    7    8 ar   
     9    8    9 1    
    10    8   10 ar   
    11   10   11 ar   
    12   11    1 ar   
    13   10   12 1    
    14   12   13 1    
    15   12   14 1    
    16   12   15 1    
    17   15   16 1    
    18   15   17 1    
    19   17   18 ar   
    20   18   19 1    
    21   18   20 ar   
    22   20   21 1    
    23   20   22 ar   
    24   22   23 ar   
    25   23   24 1    
    26   23   25 ar   
    27   25   26 1    
    28   25   17 ar   
    29   22   27 1    
    30   27   28 1    
    31   27   29 am   
    32   29   30 2    
    33   29   31 1    
    34   31   32 1    
    35   31   33 1    
    36   31   34 1    
    37    4   35 1    
    38   35   36 1    
    39   35   37 1    
    40    2   38 1    
    41   38   39 1    
    42   38   40 1    
@<TRIPOS>SUBSTRUCTURE
     1 ****        1 TEMP              0 ****  ****    0 ROOT 
@<TRIPOS>SET
UNITY_3DHIT     STATIC     ATOMS    <user>   **** Atoms matching 3D or FLEX Search
0
