#	Name:			1-241522
#	Creating user name:	jeff
#	Creation time:		Thu Dec  4 18:13:23 2003

#	Modifying user name:	jeff
#	Modification time:	Thu Dec  4 18:13:23 2003

@<TRIPOS>MOLECULE
1-241522
   46    48     1     0     1
SMALL
USER_CHARGES
****
From 3DB ct
@<TRIPOS>ATOM
      1 C          12.200000    3.860000   13.273000 C.ar      1 <1>        -0.302500 
      2 C          10.845000    3.466000   13.630000 C.ar      1 <1>         0.617700 
      3 N          10.144000    2.594000   12.896000 N.ar      1 <1>        -0.643700 
      4 C          10.698000    1.979000   11.824000 C.ar      1 <1>         0.748600 
      5 N          12.040000    2.147000   11.544000 N.ar      1 <1>        -0.666100 
      6 C          12.771000    3.054000   12.316000 C.ar      1 <1>         0.612600 
      7 N          14.087000    3.062000   11.948000 N.ar      1 <1>        -0.454100 
      8 C          14.842000    3.979000   12.621000 C.ar      1 <1>         0.207100 
      9 H          15.775000    3.943000   12.445000 H         1 <1>         0.089300 
     10 C          14.331000    4.935000   13.523000 C.ar      1 <1>         0.067100 
     11 N          12.974000    4.870000   13.860000 N.ar      1 <1>        -0.214200 
     12 C          15.283000    5.941000   14.271000 C.3       1 <1>        -0.045300 
     13 H          14.782000    6.692000   14.565000 H         1 <1>         0.087400 
     14 H          15.679000    5.509000   15.019000 H         1 <1>         0.080600 
     15 N          16.369000    6.388000   13.305000 N.pl3     1 <1>        -0.487300 
     16 H          17.232000    6.173000   13.449000 H         1 <1>         0.304700 
     17 C          16.036000    7.098000   12.249000 C.ar      1 <1>         0.292100 
     18 C          14.739000    7.659000   12.082000 C.ar      1 <1>        -0.185300 
     19 H          13.910000    7.495000   12.794000 H         1 <1>         0.103400 
     20 C          14.455000    8.476000   10.990000 C.ar      1 <1>        -0.032600 
     21 H          13.448000    8.926000   10.866000 H         1 <1>         0.101700 
     22 C          15.417000    8.725000   10.019000 C.ar      1 <1>        -0.259300 
     23 C          16.672000    8.201000   10.095000 C.ar      1 <1>         0.035700 
     24 H          17.387000    8.367000    9.278000 H         1 <1>         0.115600 
     25 C          17.003000    7.433000   11.280000 C.ar      1 <1>        -0.306800 
     26 H          18.042000    7.062000   11.310000 H         1 <1>         0.124600 
     27 C          14.954000    9.651000    8.917000 C.2       1 <1>         0.646300 
     28 O          15.959000   10.318000    8.214000 O.2       1 <1>        -0.450200 
     29 N          13.763000    9.697000    8.640000 N.am      1 <1>        -0.706800 
     30 H          13.198000    9.084000    8.981000 H         1 <1>         0.343400 
     31 C          13.391000   10.820000    7.729000 C.3       1 <1>         0.108300 
     32 H          12.349000   11.109000    7.963000 H         1 <1>         0.032500 
     33 H          13.988000   11.710000    7.994000 H         1 <1>         0.061900 
     34 C          13.502000   10.576000    6.208000 C.3       1 <1>         0.064100 
     35 H          14.541000   10.304000    5.950000 H         1 <1>         0.023400 
     36 H          12.882000    9.712000    5.918000 H         1 <1>         0.000600 
     37 C          13.086000   11.787000    5.359000 C.3       1 <1>        -0.185000 
     38 H          13.184000   11.570000    4.283000 H         1 <1>         0.040900 
     39 H          12.039000   12.069000    5.551000 H         1 <1>         0.038400 
     40 H          13.719000   12.661000    5.583000 H         1 <1>         0.046900 
     41 N          10.000000    1.203000   11.073000 N.pl3     1 <1>        -0.752400 
     42 H           9.131000    1.063000   11.257000 H         1 <1>         0.358100 
     43 H          10.381000    0.801000   10.364000 H         1 <1>         0.369000 
     44 N          10.182000    3.960000   14.711000 N.pl3     1 <1>        -0.721800 
     45 H          10.582000    4.562000   15.248000 H         1 <1>         0.343400 
     46 H           9.344000    3.684000   14.890000 H         1 <1>         0.348000 
@<TRIPOS>BOND
     1    1    2 ar   
     2    2    3 ar   
     3    3    4 ar   
     4    4    5 ar   
     5    5    6 ar   
     6    6    1 ar   
     7    6    7 ar   
     8    7    8 ar   
     9    8    9 1    
    10    8   10 ar   
    11   10   11 ar   
    12   11    1 ar   
    13   10   12 1    
    14   12   13 1    
    15   12   14 1    
    16   12   15 1    
    17   15   16 1    
    18   15   17 1    
    19   17   18 ar   
    20   18   19 1    
    21   18   20 ar   
    22   20   21 1    
    23   20   22 ar   
    24   22   23 ar   
    25   23   24 1    
    26   23   25 ar   
    27   25   26 1    
    28   25   17 ar   
    29   22   27 1    
    30   27   28 2    
    31   27   29 am   
    32   29   30 1    
    33   29   31 1    
    34   31   32 1    
    35   31   33 1    
    36   31   34 1    
    37   34   35 1    
    38   34   36 1    
    39   34   37 1    
    40   37   38 1    
    41   37   39 1    
    42   37   40 1    
    43    4   41 1    
    44   41   42 1    
    45   41   43 1    
    46    2   44 1    
    47   44   45 1    
    48   44   46 1    
@<TRIPOS>SUBSTRUCTURE
     1 ****        1 TEMP              0 ****  ****    0 ROOT 
@<TRIPOS>SET
UNITY_3DHIT     STATIC     ATOMS    <user>   **** Atoms matching 3D or FLEX Search
0
