#	Name:			1-351521
#	Creating user name:	jeff
#	Creation time:		Thu Dec  4 18:13:23 2003

#	Modifying user name:	jeff
#	Modification time:	Thu Dec  4 18:13:23 2003

@<TRIPOS>MOLECULE
1-351521
   44    46     1     0     1
SMALL
USER_CHARGES
****
From 3DB ct
@<TRIPOS>ATOM
      1 N          10.195000    2.752000   13.004000 N.ar      1 <1>        -0.648500 
      2 C          10.647000    1.824000   12.171000 C.ar      1 <1>         0.794100 
      3 N          11.879000    1.805000   11.681000 N.ar      1 <1>        -0.649700 
      4 C          12.722000    2.773000   12.056000 C.ar      1 <1>         0.469000 
      5 C          12.396000    3.807000   12.948000 C.ar      1 <1>        -0.662100 
      6 C          11.047000    3.725000   13.383000 C.ar      1 <1>         0.871700 
      7 N          10.465000    4.646000   14.241000 N.pl3     1 <1>        -0.948200 
      8 H          10.829000    4.633000   15.190000 H         1 <1>         0.355900 
      9 H          10.437000    5.597000   13.883000 H         1 <1>         0.357700 
     10 C          13.422000    4.785000   13.287000 C.ar      1 <1>         0.286100 
     11 C          14.696000    4.724000   12.665000 C.ar      1 <1>        -0.074800 
     12 C          14.960000    3.674000   11.782000 C.ar      1 <1>        -0.097400 
     13 H          15.931000    3.588000   11.293000 H         1 <1>         0.133200 
     14 C          13.986000    2.720000   11.500000 C.ar      1 <1>        -0.210300 
     15 H          14.231000    1.915000   10.808000 H         1 <1>         0.131700 
     16 C          15.801000    5.748000   12.883000 C.3       1 <1>        -0.176500 
     17 H          16.780000    5.305000   12.653000 H         1 <1>         0.075000 
     18 H          15.846000    5.981000   13.953000 H         1 <1>         0.056500 
     19 C          15.681000    7.015000   12.057000 C.ar      1 <1>         0.369600 
     20 C          14.443000    7.645000   11.848000 C.ar      1 <1>        -0.465200 
     21 H          13.559000    7.217000   12.313000 H         1 <1>         0.163900 
     22 C          14.354000    8.797000   11.064000 C.ar      1 <1>         0.395900 
     23 C          15.505000    9.314000   10.458000 C.ar      1 <1>        -0.422600 
     24 H          15.404000   10.210000    9.850000 H         1 <1>         0.147600 
     25 C          16.739000    8.690000   10.635000 C.ar      1 <1>         0.415700 
     26 C          16.820000    7.544000   11.430000 C.ar      1 <1>        -0.500400 
     27 H          17.787000    7.060000   11.563000 H         1 <1>         0.178400 
     28 O          17.929000    9.093000   10.092000 O.3       1 <1>        -0.284500 
     29 C          17.891000   10.218000    9.216000 C.3       1 <1>         0.024700 
     30 H          18.910000   10.395000    8.858000 H         1 <1>         0.064800 
     31 H          17.562000   11.118000    9.746000 H         1 <1>         0.034600 
     32 H          17.261000   10.017000    8.343000 H         1 <1>         0.037100 
     33 O          13.207000    9.501000   10.806000 O.3       1 <1>        -0.281900 
     34 C          13.332000   10.655000    9.975000 C.3       1 <1>         0.034600 
     35 H          12.338000   11.100000    9.873000 H         1 <1>         0.062100 
     36 H          13.684000   10.382000    8.974000 H         1 <1>         0.034400 
     37 H          13.984000   11.404000   10.438000 H         1 <1>         0.032800 
     38 C          13.134000    5.877000   14.293000 C.3       1 <1>        -0.244000 
     39 H          12.755000    5.445000   15.223000 H         1 <1>         0.064600 
     40 H          12.421000    6.595000   13.881000 H         1 <1>         0.066500 
     41 H          14.020000    6.438000   14.593000 H         1 <1>         0.080500 
     42 N           9.796000    0.833000   11.791000 N.pl3     1 <1>        -0.828600 
     43 H          10.118000    0.110000   11.164000 H         1 <1>         0.377400 
     44 H           8.850000    0.819000   12.145000 H         1 <1>         0.378600 
@<TRIPOS>BOND
     1    1    2 ar   
     2    2    3 ar   
     3    3    4 ar   
     4    4    5 ar   
     5    5    6 ar   
     6    6    1 ar   
     7    6    7 1    
     8    7    8 1    
     9    7    9 1    
    10    5   10 ar   
    11   10   11 ar   
    12   11   12 ar   
    13   12   13 1    
    14   12   14 ar   
    15   14   15 1    
    16   14    4 ar   
    17   11   16 1    
    18   16   17 1    
    19   16   18 1    
    20   16   19 1    
    21   19   20 ar   
    22   20   21 1    
    23   20   22 ar   
    24   22   23 ar   
    25   23   24 1    
    26   23   25 ar   
    27   25   26 ar   
    28   26   27 1    
    29   26   19 ar   
    30   25   28 1    
    31   28   29 1    
    32   29   30 1    
    33   29   31 1    
    34   29   32 1    
    35   22   33 1    
    36   33   34 1    
    37   34   35 1    
    38   34   36 1    
    39   34   37 1    
    40   10   38 1    
    41   38   39 1    
    42   38   40 1    
    43   38   41 1    
    44    2   42 1    
    45   42   43 1    
    46   42   44 1    
@<TRIPOS>SUBSTRUCTURE
     1 ****        1 TEMP              0 ****  ****    0 ROOT 
@<TRIPOS>SET
UNITY_3DHIT     STATIC     ATOMS    <user>   **** Atoms matching 3D or FLEX Search
0
