#	Name:			1-98535
#	Creating user name:	jeff
#	Creation time:		Thu Dec  4 18:13:23 2003

#	Modifying user name:	jeff
#	Modification time:	Thu Dec  4 18:13:23 2003

@<TRIPOS>MOLECULE
1-98535
   47    49     1     0     1
SMALL
USER_CHARGES
****
From 3DB ct
@<TRIPOS>ATOM
      1 C          12.200000    3.860000   13.273000 C.ar      1 <1>        -0.290600 
      2 C          10.845000    3.466000   13.630000 C.ar      1 <1>         0.660300 
      3 N          10.144000    2.594000   12.896000 N.ar      1 <1>        -0.660200 
      4 C          10.698000    1.979000   11.824000 C.ar      1 <1>         0.751100 
      5 N          12.040000    2.147000   11.544000 N.ar      1 <1>        -0.663200 
      6 C          12.771000    3.054000   12.316000 C.ar      1 <1>         0.583700 
      7 N          14.087000    3.062000   11.948000 N.ar      1 <1>        -0.445500 
      8 C          14.842000    3.979000   12.621000 C.ar      1 <1>         0.206300 
      9 H          15.775000    3.943000   12.445000 H         1 <1>         0.085500 
     10 C          14.331000    4.935000   13.523000 C.ar      1 <1>         0.137300 
     11 N          12.974000    4.870000   13.860000 N.ar      1 <1>        -0.253800 
     12 C          15.283000    5.941000   14.271000 C.3       1 <1>        -0.075600 
     13 H          14.782000    6.692000   14.565000 H         1 <1>         0.088900 
     14 H          15.679000    5.509000   15.019000 H         1 <1>         0.061600 
     15 N          16.369000    6.388000   13.305000 N.pl3     1 <1>        -0.459600 
     16 H          17.232000    6.173000   13.449000 H         1 <1>         0.281100 
     17 C          16.036000    7.098000   12.249000 C.ar      1 <1>         0.244800 
     18 C          14.739000    7.659000   12.082000 C.ar      1 <1>        -0.239900 
     19 H          13.921000    7.522000   12.803000 H         1 <1>         0.114200 
     20 C          14.455000    8.476000   10.990000 C.ar      1 <1>        -0.011300 
     21 H          13.448000    8.926000   10.866000 H         1 <1>         0.128900 
     22 C          15.417000    8.725000   10.019000 C.ar      1 <1>        -0.202100 
     23 C          16.672000    8.201000   10.095000 C.ar      1 <1>         0.059200 
     24 H          17.387000    8.367000    9.278000 H         1 <1>         0.113500 
     25 C          17.003000    7.433000   11.280000 C.ar      1 <1>        -0.354000 
     26 H          18.046000    7.111000   11.411000 H         1 <1>         0.109300 
     27 C          15.038000    9.192000    8.706000 C.2       1 <1>         0.604700 
     28 N          13.876000    9.215000    7.933000 N.am      1 <1>        -0.522500 
     29 H          13.008000    8.974000    8.374000 H         1 <1>         0.300300 
     30 C          13.668000    9.748000    6.772000 C.3       1 <1>         0.110600 
     31 H          14.101000   10.761000    6.744000 H         1 <1>         0.050400 
     32 C          12.067000    9.842000    6.620000 C.2       1 <1>         0.511500 
     33 O          11.642000   10.618000    5.756000 O.3       1 <1>        -0.686000 
     34 O          11.412000    9.154000    7.415000 O.2       1 <1>        -0.717000 
     35 C          14.418000    8.905000    5.728000 C.3       1 <1>        -0.185600 
     36 H          14.466000    7.863000    6.095000 H         1 <1>         0.022100 
     37 H          13.787000    8.845000    4.823000 H         1 <1>         0.033900 
     38 C          15.840000    9.255000    5.167000 C.2       1 <1>         0.584500 
     39 O          16.325000    8.316000    4.516000 O.2       1 <1>        -0.741800 
     40 O          16.308000   10.381000    5.349000 O.3       1 <1>        -0.712800 
     41 O          16.090000    9.530000    8.230000 O.2       1 <1>        -0.507400 
     42 N          10.000000    1.203000   11.073000 N.pl3     1 <1>        -0.783500 
     43 H           9.131000    1.063000   11.257000 H         1 <1>         0.357600 
     44 H          10.381000    0.801000   10.364000 H         1 <1>         0.369400 
     45 N          10.182000    3.960000   14.711000 N.pl3     1 <1>        -0.771000 
     46 H          10.582000    4.562000   15.248000 H         1 <1>         0.364200 
     47 H           9.344000    3.684000   14.890000 H         1 <1>         0.348400 
@<TRIPOS>BOND
     1    1    2 ar   
     2    2    3 ar   
     3    3    4 ar   
     4    4    5 ar   
     5    5    6 ar   
     6    6    1 ar   
     7    6    7 ar   
     8    7    8 ar   
     9    8    9 1    
    10    8   10 ar   
    11   10   11 ar   
    12   11    1 ar   
    13   10   12 1    
    14   12   13 1    
    15   12   14 1    
    16   12   15 1    
    17   15   16 1    
    18   15   17 1    
    19   17   18 ar   
    20   18   19 1    
    21   18   20 ar   
    22   20   21 1    
    23   20   22 ar   
    24   22   23 ar   
    25   23   24 1    
    26   23   25 ar   
    27   25   26 1    
    28   25   17 ar   
    29   22   27 1    
    30   27   28 am   
    31   28   29 1    
    32   28   30 1    
    33   30   31 1    
    34   30   32 1    
    35   32   33 1    
    36   32   34 2    
    37   30   35 1    
    38   35   36 1    
    39   35   37 1    
    40   35   38 1    
    41   38   39 2    
    42   38   40 1    
    43   27   41 2    
    44    4   42 1    
    45   42   43 1    
    46   42   44 1    
    47    2   45 1    
    48   45   46 1    
    49   45   47 1    
@<TRIPOS>SUBSTRUCTURE
     1 ****        1 TEMP              0 ****  ****    0 ROOT 
@<TRIPOS>SET
UNITY_3DHIT     STATIC     ATOMS    <user>   **** Atoms matching 3D or FLEX Search
0
@<TRIPOS>UNITY_ATOM_ATTR
33 1
AtomExpr -1
40 1
AtomExpr -1
