#	Name:			1-Trimetrexate
#	Creating user name:	jeff
#	Creation time:		Thu Dec  4 18:13:23 2003

#	Modifying user name:	jeff
#	Modification time:	Thu Dec  4 18:13:23 2003

@<TRIPOS>MOLECULE
1-Trimetrexate
   50    52     1     0     1
SMALL
USER_CHARGES
****
From 3DB ct
@<TRIPOS>ATOM
      1 N          10.100000    2.614000   12.810000 N.ar      1 <1>        -0.707500 
      2 C          10.755000    1.946000   11.871000 C.ar      1 <1>         0.810100 
      3 N          12.036000    2.134000   11.585000 N.ar      1 <1>        -0.668300 
      4 C          12.709000    3.054000   12.284000 C.ar      1 <1>         0.504500 
      5 C          12.151000    3.842000   13.304000 C.ar      1 <1>        -0.602400 
      6 C          10.780000    3.540000   13.513000 C.ar      1 <1>         0.780000 
      7 N           9.998000    4.174000   14.469000 N.pl3     1 <1>        -0.764500 
      8 H          10.293000    4.019000   15.430000 H         1 <1>         0.323800 
      9 H           9.840000    5.164000   14.300000 H         1 <1>         0.327100 
     10 C          13.001000    4.812000   13.982000 C.ar      1 <1>         0.236500 
     11 C          14.370000    4.931000   13.626000 C.ar      1 <1>        -0.149100 
     12 C          14.866000    4.127000   12.597000 C.ar      1 <1>        -0.015100 
     13 H          15.907000    4.205000   12.285000 H         1 <1>         0.115000 
     14 C          14.041000    3.212000   11.949000 C.ar      1 <1>        -0.278300 
     15 H          14.467000    2.601000   11.153000 H         1 <1>         0.143000 
     16 C          15.334000    5.905000   14.281000 C.3       1 <1>         0.158200 
     17 H          15.837000    5.414000   15.124000 H         1 <1>         0.040400 
     18 H          14.775000    6.746000   14.707000 H         1 <1>         0.058900 
     19 N          16.322000    6.348000   13.313000 N.pl3     1 <1>        -0.634000 
     20 H          17.292000    6.106000   13.510000 H         1 <1>         0.333800 
     21 C          16.047000    7.121000   12.203000 C.ar      1 <1>         0.438500 
     22 C          14.764000    7.669000   12.069000 C.ar      1 <1>        -0.453300 
     23 H          14.007000    7.473000   12.825000 H         1 <1>         0.162400 
     24 C          14.439000    8.475000   10.977000 C.ar      1 <1>         0.393300 
     25 C          15.378000    8.709000    9.971000 C.ar      1 <1>        -0.188700 
     26 C          16.677000    8.197000   10.090000 C.ar      1 <1>         0.308900 
     27 C          16.995000    7.406000   11.205000 C.ar      1 <1>        -0.460800 
     28 H          17.995000    6.996000   11.307000 H         1 <1>         0.143700 
     29 O          17.545000    8.520000    9.079000 O.3       1 <1>        -0.215100 
     30 C          18.852000    7.953000    9.133000 C.3       1 <1>        -0.047800 
     31 H          19.407000    8.314000    8.262000 H         1 <1>         0.075200 
     32 H          18.810000    6.860000    9.071000 H         1 <1>         0.058400 
     33 H          19.388000    8.282000   10.029000 H         1 <1>         0.058300 
     34 O          15.046000    9.504000    8.901000 O.3       1 <1>        -0.228200 
     35 C          16.169000    9.625000    8.020000 C.3       1 <1>         0.026200 
     36 H          15.874000   10.278000    7.193000 H         1 <1>         0.033400 
     37 H          16.451000    8.653000    7.602000 H         1 <1>         0.049600 
     38 H          17.024000   10.085000    8.528000 H         1 <1>         0.037900 
     39 O          13.165000    8.970000   10.878000 O.3       1 <1>        -0.306000 
     40 C          13.043000    9.762000    9.691000 C.3       1 <1>         0.098600 
     41 H          12.013000   10.127000    9.638000 H         1 <1>         0.027700 
     42 H          13.239000    9.165000    8.793000 H         1 <1>         0.030400 
     43 H          13.711000   10.630000    9.726000 H         1 <1>         0.037600 
     44 C          12.432000    5.698000   15.068000 C.3       1 <1>        -0.179300 
     45 H          13.146000    6.422000   15.465000 H         1 <1>         0.033500 
     46 H          12.106000    5.092000   15.918000 H         1 <1>         0.070300 
     47 H          11.604000    6.293000   14.675000 H         1 <1>         0.061100 
     48 N          10.074000    1.010000   11.157000 N.pl3     1 <1>        -0.834600 
     49 H          10.549000    0.488000   10.436000 H         1 <1>         0.379300 
     50 H           9.098000    0.845000   11.352000 H         1 <1>         0.377500 
@<TRIPOS>BOND
     1    1    2 ar   
     2    2    3 ar   
     3    3    4 ar   
     4    4    5 ar   
     5    5    6 ar   
     6    6    1 ar   
     7    6    7 1    
     8    7    8 1    
     9    7    9 1    
    10    5   10 ar   
    11   10   11 ar   
    12   11   12 ar   
    13   12   13 1    
    14   12   14 ar   
    15   14   15 1    
    16   14    4 ar   
    17   11   16 1    
    18   16   17 1    
    19   16   18 1    
    20   16   19 1    
    21   19   20 1    
    22   19   21 1    
    23   21   22 ar   
    24   22   23 1    
    25   22   24 ar   
    26   24   25 ar   
    27   25   26 ar   
    28   26   27 ar   
    29   27   28 1    
    30   27   21 ar   
    31   26   29 1    
    32   29   30 1    
    33   30   31 1    
    34   30   32 1    
    35   30   33 1    
    36   25   34 1    
    37   34   35 1    
    38   35   36 1    
    39   35   37 1    
    40   35   38 1    
    41   24   39 1    
    42   39   40 1    
    43   40   41 1    
    44   40   42 1    
    45   40   43 1    
    46   10   44 1    
    47   44   45 1    
    48   44   46 1    
    49   44   47 1    
    50    2   48 1    
    51   48   49 1    
    52   48   50 1    
@<TRIPOS>SUBSTRUCTURE
     1 ****        1 TEMP              0 ****  ****    0 ROOT 
@<TRIPOS>SET
UNITY_3DHIT     STATIC     ATOMS    <user>   **** Atoms matching 3D or FLEX Search
0
