#	Name:			10-18c
#	Creating user name:	jeff
#	Creation time:		Thu Dec  4 18:13:23 2003

#	Modifying user name:	jeff
#	Modification time:	Thu Dec  4 18:13:23 2003

@<TRIPOS>MOLECULE
10-18c
   26    27     1     0     1
SMALL
USER_CHARGES
****
From 3DB ct
@<TRIPOS>ATOM
      1 N          10.095000    2.572000   12.813000 N.ar      1 <1>        -0.645800 
      2 C          10.755000    1.978000   11.831000 C.ar      1 <1>         0.763800 
      3 N          12.031000    2.198000   11.555000 N.ar      1 <1>        -0.672400 
      4 C          12.695000    3.063000   12.303000 C.ar      1 <1>         0.791700 
      5 C          12.131000    3.766000   13.373000 C.ar      1 <1>        -0.842300 
      6 C          10.768000    3.451000   13.573000 C.ar      1 <1>         0.902400 
      7 N           9.991000    4.018000   14.572000 N.pl3     1 <1>        -0.955700 
      8 H          10.277000    3.787000   15.520000 H         1 <1>         0.358500 
      9 H           9.841000    5.020000   14.481000 H         1 <1>         0.358200 
     10 C          12.987000    4.683000   14.101000 C.ar      1 <1>         0.393300 
     11 C          14.334000    4.833000   13.712000 C.ar      1 <1>        -0.372200 
     12 C          14.753000    4.072000   12.634000 C.ar      1 <1>         0.392500 
     13 H          15.777000    4.126000   12.268000 H         1 <1>         0.089800 
     14 N          13.966000    3.213000   11.947000 N.ar      1 <1>        -0.572800 
     15 C          15.291000    5.766000   14.416000 C.3       1 <1>         0.261700 
     16 H          15.444000    5.430000   15.447000 H         1 <1>         0.000200 
     17 H          14.890000    6.784000   14.406000 H         1 <1>         0.000200 
     18 O          16.571000    5.805000   13.785000 O.3       1 <1>        -0.471000 
     19 H          17.099000    6.434000   14.321000 H         1 <1>         0.286400 
     20 C          12.451000    5.478000   15.269000 C.3       1 <1>        -0.208900 
     21 H          12.108000    4.805000   16.060000 H         1 <1>         0.069800 
     22 H          11.639000    6.133000   14.940000 H         1 <1>         0.070100 
     23 H          13.197000    6.130000   15.729000 H         1 <1>         0.039600 
     24 N          10.080000    1.086000   11.057000 N.pl3     1 <1>        -0.774900 
     25 H          10.554000    0.616000   10.300000 H         1 <1>         0.370400 
     26 H           9.106000    0.899000   11.245000 H         1 <1>         0.367500 
@<TRIPOS>BOND
     1    1    2 ar   
     2    2    3 ar   
     3    3    4 ar   
     4    4    5 ar   
     5    5    6 ar   
     6    6    1 ar   
     7    6    7 1    
     8    7    8 1    
     9    7    9 1    
    10    5   10 ar   
    11   10   11 ar   
    12   11   12 ar   
    13   12   13 1    
    14   12   14 ar   
    15   14    4 ar   
    16   11   15 1    
    17   15   16 1    
    18   15   17 1    
    19   15   18 1    
    20   18   19 1    
    21   10   20 1    
    22   20   21 1    
    23   20   22 1    
    24   20   23 1    
    25    2   24 1    
    26   24   25 1    
    27   24   26 1    
@<TRIPOS>SUBSTRUCTURE
     1 ****        1 TEMP              0 ****  ****    0 ROOT 
@<TRIPOS>SET
UNITY_3DHIT     STATIC     ATOMS    <user>   **** Atoms matching 3D or FLEX Search
0
