#	Name:			10-1a
#	Creating user name:	jeff
#	Creation time:		Thu Dec  4 18:13:23 2003

#	Modifying user name:	jeff
#	Modification time:	Thu Dec  4 18:13:23 2003

@<TRIPOS>MOLECULE
10-1a
   36    38     1     0     1
SMALL
USER_CHARGES
****
From 3DB ct
@<TRIPOS>ATOM
      1 N          10.072000    2.594000   12.832000 N.ar      1 <1>        -0.676700 
      2 C          10.688000    1.969000   11.830000 C.ar      1 <1>         0.825500 
      3 N          11.972000    2.132000   11.512000 N.ar      1 <1>        -0.689600 
      4 C          12.691000    2.991000   12.244000 C.ar      1 <1>         0.515600 
      5 C          12.151000    3.703000   13.320000 C.ar      1 <1>        -0.494300 
      6 C          10.803000    3.436000   13.580000 C.ar      1 <1>         0.674500 
      7 N          10.107000    4.077000   14.590000 N.pl3     1 <1>        -0.743800 
      8 H          10.577000    4.233000   15.476000 H         1 <1>         0.341800 
      9 H           9.132000    3.806000   14.677000 H         1 <1>         0.328600 
     10 C          12.964000    4.616000   14.046000 C.ar      1 <1>         0.145700 
     11 H          12.527000    5.173000   14.872000 H         1 <1>         0.081200 
     12 C          14.308000    4.809000   13.707000 C.ar      1 <1>        -0.298900 
     13 C          14.836000    4.086000   12.638000 C.ar      1 <1>         0.068700 
     14 H          15.877000    4.207000   12.343000 H         1 <1>         0.089500 
     15 C          14.028000    3.193000   11.924000 C.ar      1 <1>        -0.284400 
     16 H          14.463000    2.644000   11.089000 H         1 <1>         0.143100 
     17 C          15.198000    5.756000   14.437000 C.2       1 <1>         0.601600 
     18 O          16.444000    5.736000   13.908000 O.3       1 <1>        -0.275700 
     19 C          17.016000    7.009000   13.568000 C.3       1 <1>        -0.030000 
     20 H          16.923000    7.736000   14.384000 H         1 <1>         0.081800 
     21 H          18.091000    6.857000   13.415000 H         1 <1>         0.077100 
     22 C          16.392000    7.511000   12.291000 C.ar      1 <1>        -0.001400 
     23 C          15.029000    7.838000   12.249000 C.ar      1 <1>        -0.091500 
     24 H          14.409000    7.721000   13.138000 H         1 <1>         0.118000 
     25 C          14.452000    8.317000   11.072000 C.ar      1 <1>        -0.123900 
     26 H          13.392000    8.566000   11.048000 H         1 <1>         0.106200 
     27 C          15.231000    8.479000    9.928000 C.ar      1 <1>        -0.072500 
     28 H          14.781000    8.853000    9.010000 H         1 <1>         0.099200 
     29 C          16.589000    8.164000    9.960000 C.ar      1 <1>        -0.121200 
     30 H          17.199000    8.293000    9.068000 H         1 <1>         0.105200 
     31 C          17.168000    7.684000   11.137000 C.ar      1 <1>        -0.112900 
     32 H          18.232000    7.449000   11.147000 H         1 <1>         0.121400 
     33 O          14.826000    6.442000   15.379000 O.2       1 <1>        -0.436300 
     34 N           9.957000    1.104000   11.075000 N.pl3     1 <1>        -0.832200 
     35 H          10.394000    0.617000   10.307000 H         1 <1>         0.386200 
     36 H           8.980000    0.960000   11.286000 H         1 <1>         0.374400 
@<TRIPOS>BOND
     1    1    2 ar   
     2    2    3 ar   
     3    3    4 ar   
     4    4    5 ar   
     5    5    6 ar   
     6    6    1 ar   
     7    6    7 1    
     8    7    8 1    
     9    7    9 1    
    10    5   10 ar   
    11   10   11 1    
    12   10   12 ar   
    13   12   13 ar   
    14   13   14 1    
    15   13   15 ar   
    16   15   16 1    
    17   15    4 ar   
    18   12   17 1    
    19   17   18 1    
    20   18   19 1    
    21   19   20 1    
    22   19   21 1    
    23   19   22 1    
    24   22   23 ar   
    25   23   24 1    
    26   23   25 ar   
    27   25   26 1    
    28   25   27 ar   
    29   27   28 1    
    30   27   29 ar   
    31   29   30 1    
    32   29   31 ar   
    33   31   32 1    
    34   31   22 ar   
    35   17   33 2    
    36    2   34 1    
    37   34   35 1    
    38   34   36 1    
@<TRIPOS>SUBSTRUCTURE
     1 ****        1 TEMP              0 ****  ****    0 ROOT 
@<TRIPOS>SET
UNITY_3DHIT     STATIC     ATOMS    <user>   **** Atoms matching 3D or FLEX Search
0
