#	Name:			10-11a
#	Creating user name:	jeff
#	Creation time:		Thu Dec  4 18:13:23 2003

#	Modifying user name:	jeff
#	Modification time:	Thu Dec  4 18:13:23 2003

@<TRIPOS>MOLECULE
10-11a
   35    37     1     0     1
SMALL
USER_CHARGES
****
From 3DB ct
@<TRIPOS>ATOM
      1 N          10.130000    2.627000   12.889000 N.ar      1 <1>        -0.679200 
      2 C          10.723000    1.969000   11.893000 C.ar      1 <1>         0.799400 
      3 N          11.998000    2.126000   11.535000 N.ar      1 <1>        -0.669900 
      4 C          12.732000    3.014000   12.217000 C.ar      1 <1>         0.496600 
      5 C          12.218000    3.761000   13.280000 C.ar      1 <1>        -0.480200 
      6 C          10.877000    3.498000   13.586000 C.ar      1 <1>         0.698100 
      7 N          10.206000    4.171000   14.593000 N.pl3     1 <1>        -0.752000 
      8 H          10.704000    4.368000   15.455000 H         1 <1>         0.331300 
      9 H           9.236000    3.898000   14.720000 H         1 <1>         0.326700 
     10 C          13.048000    4.699000   13.951000 C.ar      1 <1>        -0.010400 
     11 H          12.640000    5.296000   14.765000 H         1 <1>         0.105100 
     12 C          14.386000    4.879000   13.581000 C.ar      1 <1>        -0.048300 
     13 C          14.883000    4.127000   12.515000 C.ar      1 <1>        -0.008700 
     14 H          15.915000    4.250000   12.186000 H         1 <1>         0.108300 
     15 C          14.059000    3.210000   11.853000 C.ar      1 <1>        -0.282700 
     16 H          14.473000    2.637000   11.024000 H         1 <1>         0.144600 
     17 C          15.260000    5.889000   14.290000 C.3       1 <1>         0.032100 
     18 H          15.715000    5.415000   15.169000 H         1 <1>         0.057600 
     19 H          14.637000    6.716000   14.651000 H         1 <1>         0.064300 
     20 N          16.284000    6.376000   13.384000 N.pl3     1 <1>        -0.576400 
     21 H          17.248000    6.138000   13.608000 H         1 <1>         0.323600 
     22 C          16.032000    7.140000   12.263000 C.ar      1 <1>         0.341700 
     23 C          14.752000    7.685000   12.085000 C.ar      1 <1>        -0.220400 
     24 H          13.975000    7.502000   12.825000 H         1 <1>         0.116000 
     25 C          14.439000    8.467000   10.967000 C.ar      1 <1>        -0.051600 
     26 H          13.437000    8.876000   10.855000 H         1 <1>         0.101900 
     27 C          15.408000    8.720000   10.003000 C.ar      1 <1>        -0.197300 
     28 H          15.169000    9.327000    9.132000 H         1 <1>         0.108500 
     29 C          16.686000    8.190000   10.159000 C.ar      1 <1>        -0.002900 
     30 H          17.450000    8.383000    9.408000 H         1 <1>         0.094300 
     31 C          16.991000    7.408000   11.279000 C.ar      1 <1>        -0.317000 
     32 H          18.002000    7.014000   11.361000 H         1 <1>         0.119100 
     33 N           9.977000    1.074000   11.191000 N.pl3     1 <1>        -0.826700 
     34 H          10.397000    0.559000   10.432000 H         1 <1>         0.380500 
     35 H           9.008000    0.930000   11.435000 H         1 <1>         0.374100 
@<TRIPOS>BOND
     1    1    2 ar   
     2    2    3 ar   
     3    3    4 ar   
     4    4    5 ar   
     5    5    6 ar   
     6    6    1 ar   
     7    6    7 1    
     8    7    8 1    
     9    7    9 1    
    10    5   10 ar   
    11   10   11 1    
    12   10   12 ar   
    13   12   13 ar   
    14   13   14 1    
    15   13   15 ar   
    16   15   16 1    
    17   15    4 ar   
    18   12   17 1    
    19   17   18 1    
    20   17   19 1    
    21   17   20 1    
    22   20   21 1    
    23   20   22 1    
    24   22   23 ar   
    25   23   24 1    
    26   23   25 ar   
    27   25   26 1    
    28   25   27 ar   
    29   27   28 1    
    30   27   29 ar   
    31   29   30 1    
    32   29   31 ar   
    33   31   32 1    
    34   31   22 ar   
    35    2   33 1    
    36   33   34 1    
    37   33   35 1    
@<TRIPOS>SUBSTRUCTURE
     1 ****        1 TEMP              0 ****  ****    0 ROOT 
@<TRIPOS>SET
UNITY_3DHIT     STATIC     ATOMS    <user>   **** Atoms matching 3D or FLEX Search
0
