#	Name:			10-18a
#	Creating user name:	jeff
#	Creation time:		Thu Dec  4 18:13:23 2003

#	Modifying user name:	jeff
#	Modification time:	Thu Dec  4 18:13:23 2003

@<TRIPOS>MOLECULE
10-18a
   24    25     1     0     1
SMALL
USER_CHARGES
****
From 3DB ct
@<TRIPOS>ATOM
      1 N          10.127000    2.623000   12.880000 N.ar      1 <1>        -0.670000 
      2 C          10.725000    1.971000   11.884000 C.ar      1 <1>         0.779500 
      3 N          12.001000    2.131000   11.533000 N.ar      1 <1>        -0.658700 
      4 C          12.731000    3.016000   12.223000 C.ar      1 <1>         0.483800 
      5 C          12.211000    3.757000   13.287000 C.ar      1 <1>        -0.461100 
      6 C          10.870000    3.491000   13.585000 C.ar      1 <1>         0.692000 
      7 N          10.194000    4.158000   14.593000 N.pl3     1 <1>        -0.764200 
      8 H          10.687000    4.348000   15.459000 H         1 <1>         0.342600 
      9 H           9.223000    3.884000   14.713000 H         1 <1>         0.326600 
     10 C          13.038000    4.692000   13.966000 C.ar      1 <1>        -0.014000 
     11 H          12.626000    5.277000   14.787000 H         1 <1>         0.088700 
     12 C          14.377000    4.888000   13.600000 C.ar      1 <1>        -0.057200 
     13 C          14.879000    4.133000   12.540000 C.ar      1 <1>         0.012800 
     14 H          15.913000    4.246000   12.216000 H         1 <1>         0.117000 
     15 C          14.059000    3.216000   11.869000 C.ar      1 <1>        -0.287900 
     16 H          14.480000    2.645000   11.043000 H         1 <1>         0.143000 
     17 C          15.205000    5.896000   14.359000 C.3       1 <1>         0.134400 
     18 H          15.251000    5.613000   15.416000 H         1 <1>         0.016600 
     19 H          14.753000    6.889000   14.263000 H         1 <1>         0.010700 
     20 O          16.540000    5.969000   13.863000 O.3       1 <1>        -0.459000 
     21 H          16.980000    6.645000   14.421000 H         1 <1>         0.291400 
     22 N           9.982000    1.079000   11.173000 N.pl3     1 <1>        -0.813000 
     23 H          10.406000    0.570000   10.412000 H         1 <1>         0.376000 
     24 H           9.012000    0.934000   11.411000 H         1 <1>         0.369900 
@<TRIPOS>BOND
     1    1    2 ar   
     2    2    3 ar   
     3    3    4 ar   
     4    4    5 ar   
     5    5    6 ar   
     6    6    1 ar   
     7    6    7 1    
     8    7    8 1    
     9    7    9 1    
    10    5   10 ar   
    11   10   11 1    
    12   10   12 ar   
    13   12   13 ar   
    14   13   14 1    
    15   13   15 ar   
    16   15   16 1    
    17   15    4 ar   
    18   12   17 1    
    19   17   18 1    
    20   17   19 1    
    21   17   20 1    
    22   20   21 1    
    23    2   22 1    
    24   22   23 1    
    25   22   24 1    
@<TRIPOS>SUBSTRUCTURE
     1 ****        1 TEMP              0 ****  ****    0 ROOT 
@<TRIPOS>SET
UNITY_3DHIT     STATIC     ATOMS    <user>   **** Atoms matching 3D or FLEX Search
0
