#	Name:			10-12a
#	Creating user name:	jeff
#	Creation time:		Thu Dec  4 18:13:23 2003

#	Modifying user name:	jeff
#	Modification time:	Thu Dec  4 18:13:23 2003

@<TRIPOS>MOLECULE
10-12a
   38    40     1     0     1
SMALL
USER_CHARGES
****
From 3DB ct
@<TRIPOS>ATOM
      1 N          10.124000    2.630000   12.887000 N.ar      1 <1>        -0.687300 
      2 C          10.714000    1.973000   11.889000 C.ar      1 <1>         0.813200 
      3 N          11.989000    2.123000   11.532000 N.ar      1 <1>        -0.677100 
      4 C          12.728000    3.005000   12.218000 C.ar      1 <1>         0.494400 
      5 C          12.218000    3.750000   13.284000 C.ar      1 <1>        -0.500300 
      6 C          10.876000    3.494000   13.588000 C.ar      1 <1>         0.712700 
      7 N          10.208000    4.165000   14.597000 N.pl3     1 <1>        -0.762000 
      8 H          10.707000    4.359000   15.459000 H         1 <1>         0.334400 
      9 H           9.236000    3.897000   14.723000 H         1 <1>         0.329600 
     10 C          13.054000    4.679000   13.960000 C.ar      1 <1>         0.008500 
     11 H          12.649000    5.268000   14.780000 H         1 <1>         0.100000 
     12 C          14.392000    4.862000   13.587000 C.ar      1 <1>        -0.027600 
     13 C          14.885000    4.104000   12.523000 C.ar      1 <1>        -0.032300 
     14 H          15.918000    4.215000   12.196000 H         1 <1>         0.111900 
     15 C          14.056000    3.194000   11.857000 C.ar      1 <1>        -0.266900 
     16 H          14.468000    2.619000   11.028000 H         1 <1>         0.143000 
     17 C          15.276000    5.862000   14.306000 C.3       1 <1>        -0.077700 
     18 H          15.755000    5.365000   15.160000 H         1 <1>         0.081100 
     19 H          14.658000    6.637000   14.770000 H         1 <1>         0.072000 
     20 N          16.315000    6.403000   13.411000 N.pl3     1 <1>        -0.235000 
     21 C          16.015000    7.157000   12.282000 C.ar      1 <1>         0.219900 
     22 C          16.978000    7.428000   11.291000 C.ar      1 <1>        -0.227300 
     23 H          17.990000    7.034000   11.370000 H         1 <1>         0.108200 
     24 C          16.689000    8.193000   10.151000 C.ar      1 <1>        -0.048400 
     25 H          17.465000    8.369000    9.408000 H         1 <1>         0.098000 
     26 C          15.419000    8.720000    9.970000 C.ar      1 <1>        -0.165500 
     27 H          15.190000    9.314000    9.088000 H         1 <1>         0.102600 
     28 C          14.445000    8.485000   10.930000 C.ar      1 <1>        -0.052500 
     29 H          13.447000    8.900000   10.806000 H         1 <1>         0.099800 
     30 C          14.744000    7.718000   12.066000 C.ar      1 <1>        -0.213800 
     31 H          13.941000    7.594000   12.789000 H         1 <1>         0.109000 
     32 C          17.669000    5.878000   13.609000 C.3       1 <1>        -0.058600 
     33 H          18.419000    6.668000   13.492000 H         1 <1>         0.044500 
     34 H          17.880000    5.067000   12.902000 H         1 <1>         0.054300 
     35 H          17.798000    5.477000   14.620000 H         1 <1>         0.071100 
     36 N           9.962000    1.085000   11.183000 N.pl3     1 <1>        -0.834800 
     37 H          10.379000    0.569000   10.422000 H         1 <1>         0.382500 
     38 H           8.992000    0.946000   11.426000 H         1 <1>         0.376100 
@<TRIPOS>BOND
     1    1    2 ar   
     2    2    3 ar   
     3    3    4 ar   
     4    4    5 ar   
     5    5    6 ar   
     6    6    1 ar   
     7    6    7 1    
     8    7    8 1    
     9    7    9 1    
    10    5   10 ar   
    11   10   11 1    
    12   10   12 ar   
    13   12   13 ar   
    14   13   14 1    
    15   13   15 ar   
    16   15   16 1    
    17   15    4 ar   
    18   12   17 1    
    19   17   18 1    
    20   17   19 1    
    21   17   20 1    
    22   20   21 1    
    23   21   22 ar   
    24   22   23 1    
    25   22   24 ar   
    26   24   25 1    
    27   24   26 ar   
    28   26   27 1    
    29   26   28 ar   
    30   28   29 1    
    31   28   30 ar   
    32   30   31 1    
    33   30   21 ar   
    34   20   32 1    
    35   32   33 1    
    36   32   34 1    
    37   32   35 1    
    38    2   36 1    
    39   36   37 1    
    40   36   38 1    
@<TRIPOS>SUBSTRUCTURE
     1 ****        1 TEMP              0 ****  ****    0 ROOT 
@<TRIPOS>SET
UNITY_3DHIT     STATIC     ATOMS    <user>   **** Atoms matching 3D or FLEX Search
0
