#	Name:			10-17a
#	Creating user name:	jeff
#	Creation time:		Thu Dec  4 18:13:23 2003

#	Modifying user name:	jeff
#	Modification time:	Thu Dec  4 18:13:23 2003

@<TRIPOS>MOLECULE
10-17a
   22    23     1     0     1
SMALL
USER_CHARGES
****
From 3DB ct
@<TRIPOS>ATOM
      1 N          10.121000    2.619000   12.870000 N.ar      1 <1>        -0.693800 
      2 C          10.725000    1.975000   11.872000 C.ar      1 <1>         0.767700 
      3 N          12.004000    2.138000   11.531000 N.ar      1 <1>        -0.671600 
      4 C          12.729000    3.017000   12.232000 C.ar      1 <1>         0.434900 
      5 C          12.201000    3.749000   13.300000 C.ar      1 <1>        -0.444500 
      6 C          10.858000    3.481000   13.587000 C.ar      1 <1>         0.678500 
      7 N          10.176000    4.141000   14.595000 N.pl3     1 <1>        -0.783900 
      8 H          10.661000    4.321000   15.468000 H         1 <1>         0.355000 
      9 H           9.204000    3.866000   14.704000 H         1 <1>         0.325200 
     10 C          13.020000    4.680000   13.994000 C.ar      1 <1>        -0.023900 
     11 H          12.604000    5.258000   14.817000 H         1 <1>         0.111300 
     12 C          14.357000    4.870000   13.631000 C.ar      1 <1>        -0.040500 
     13 C          14.877000    4.130000   12.570000 C.ar      1 <1>        -0.006300 
     14 H          15.911000    4.247000   12.255000 H         1 <1>         0.117200 
     15 C          14.060000    3.219000   11.887000 C.ar      1 <1>        -0.296000 
     16 H          14.486000    2.654000   11.059000 H         1 <1>         0.117100 
     17 C          15.172000    5.856000   14.389000 C.2       1 <1>         0.514600 
     18 O          14.778000    6.531000   15.326000 O.2       1 <1>        -0.674700 
     19 O          16.435000    5.938000   13.929000 O.3       1 <1>        -0.667600 
     20 N           9.987000    1.089000   11.149000 N.pl3     1 <1>        -0.852300 
     21 H          10.416000    0.586000   10.387000 H         1 <1>         0.371100 
     22 H           9.016000    0.942000   11.380000 H         1 <1>         0.362600 
@<TRIPOS>BOND
     1    1    2 ar   
     2    2    3 ar   
     3    3    4 ar   
     4    4    5 ar   
     5    5    6 ar   
     6    6    1 ar   
     7    6    7 1    
     8    7    8 1    
     9    7    9 1    
    10    5   10 ar   
    11   10   11 1    
    12   10   12 ar   
    13   12   13 ar   
    14   13   14 1    
    15   13   15 ar   
    16   15   16 1    
    17   15    4 ar   
    18   12   17 1    
    19   17   18 2    
    20   17   19 1    
    21    2   20 1    
    22   20   21 1    
    23   20   22 1    
@<TRIPOS>SUBSTRUCTURE
     1 ****        1 TEMP              0 ****  ****    0 ROOT 
@<TRIPOS>SET
UNITY_3DHIT     STATIC     ATOMS    <user>   **** Atoms matching 3D or FLEX Search
0
@<TRIPOS>UNITY_ATOM_ATTR
19 1
AtomExpr -1
