#	Name:			10-18b
#	Creating user name:	jeff
#	Creation time:		Thu Dec  4 18:13:23 2003

#	Modifying user name:	jeff
#	Modification time:	Thu Dec  4 18:13:23 2003

@<TRIPOS>MOLECULE
10-18b
   23    24     1     0     1
SMALL
USER_CHARGES
****
From 3DB ct
@<TRIPOS>ATOM
      1 N          10.110000    2.602000   12.835000 N.ar      1 <1>        -0.678100 
      2 C          10.749000    1.990000   11.841000 C.ar      1 <1>         0.776800 
      3 N          12.031000    2.175000   11.538000 N.ar      1 <1>        -0.696400 
      4 C          12.725000    3.034000   12.269000 C.ar      1 <1>         0.818900 
      5 C          12.161000    3.731000   13.335000 C.ar      1 <1>        -0.719800 
      6 C          10.818000    3.451000   13.589000 C.ar      1 <1>         0.742300 
      7 N          10.107000    4.086000   14.592000 N.pl3     1 <1>        -0.762500 
      8 H          10.571000    4.265000   15.477000 H         1 <1>         0.343500 
      9 H           9.135000    3.804000   14.677000 H         1 <1>         0.326500 
     10 C          12.969000    4.643000   14.056000 C.ar      1 <1>         0.219800 
     11 H          12.553000    5.205000   14.890000 H         1 <1>         0.064200 
     12 C          14.303000    4.830000   13.703000 C.ar      1 <1>        -0.310400 
     13 C          14.768000    4.080000   12.638000 C.ar      1 <1>         0.402200 
     14 H          15.802000    4.160000   12.305000 H         1 <1>         0.086000 
     15 N          14.006000    3.206000   11.930000 N.ar      1 <1>        -0.594700 
     16 C          15.193000    5.775000   14.448000 C.3       1 <1>         0.150100 
     17 H          15.308000    5.452000   15.489000 H         1 <1>         0.022800 
     18 H          14.789000    6.793000   14.447000 H         1 <1>         0.015700 
     19 O          16.470000    5.787000   13.816000 O.3       1 <1>        -0.457000 
     20 H          17.012000    6.404000   14.353000 H         1 <1>         0.293800 
     21 N          10.039000    1.113000   11.080000 N.pl3     1 <1>        -0.782700 
     22 H          10.490000    0.628000   10.318000 H         1 <1>         0.375000 
     23 H           9.064000    0.950000   11.285000 H         1 <1>         0.364000 
@<TRIPOS>BOND
     1    1    2 ar   
     2    2    3 ar   
     3    3    4 ar   
     4    4    5 ar   
     5    5    6 ar   
     6    6    1 ar   
     7    6    7 1    
     8    7    8 1    
     9    7    9 1    
    10    5   10 ar   
    11   10   11 1    
    12   10   12 ar   
    13   12   13 ar   
    14   13   14 1    
    15   13   15 ar   
    16   15    4 ar   
    17   12   16 1    
    18   16   17 1    
    19   16   18 1    
    20   16   19 1    
    21   19   20 1    
    22    2   21 1    
    23   21   22 1    
    24   21   23 1    
@<TRIPOS>SUBSTRUCTURE
     1 ****        1 TEMP              0 ****  ****    0 ROOT 
@<TRIPOS>SET
UNITY_3DHIT     STATIC     ATOMS    <user>   **** Atoms matching 3D or FLEX Search
0
