#	Name:			10-18d
#	Creating user name:	jeff
#	Creation time:		Thu Dec  4 18:13:23 2003

#	Modifying user name:	jeff
#	Modification time:	Thu Dec  4 18:13:23 2003

@<TRIPOS>MOLECULE
10-18d
   22    23     1     0     1
SMALL
USER_CHARGES
****
From 3DB ct
@<TRIPOS>ATOM
      1 N          10.365000    2.834000   12.942000 N.ar      1 <1>        -0.636000 
      2 C          10.778000    2.179000   11.861000 C.ar      1 <1>         0.730700 
      3 N          12.023000    2.206000   11.395000 N.ar      1 <1>        -0.651400 
      4 C          12.913000    2.940000   12.054000 C.ar      1 <1>         0.583800 
      5 C          12.612000    3.677000   13.208000 C.ar      1 <1>        -0.230900 
      6 C          11.282000    3.560000   13.606000 C.ar      1 <1>         0.587400 
      7 N          10.805000    4.267000   14.703000 N.pl3     1 <1>        -0.707200 
      8 H          11.461000    4.472000   15.451000 H         1 <1>         0.343800 
      9 H           9.838000    4.110000   14.965000 H         1 <1>         0.343900 
     10 N          13.551000    4.426000   13.872000 N.ar      1 <1>        -0.310100 
     11 C          14.805000    4.429000   13.358000 C.ar      1 <1>         0.148900 
     12 C          15.088000    3.702000   12.216000 C.ar      1 <1>         0.171200 
     13 H          16.085000    3.698000   11.783000 H         1 <1>         0.122200 
     14 N          14.158000    2.956000   11.562000 N.ar      1 <1>        -0.452100 
     15 C          15.872000    5.246000   14.035000 C.3       1 <1>         0.085600 
     16 H          16.396000    4.644000   14.784000 H         1 <1>         0.020700 
     17 H          15.425000    6.114000   14.532000 H         1 <1>         0.043000 
     18 O          16.815000    5.716000   13.069000 O.3       1 <1>        -0.481800 
     19 H          17.447000    6.265000   13.581000 H         1 <1>         0.312400 
     20 N           9.864000    1.433000   11.185000 N.pl3     1 <1>        -0.744600 
     21 H          10.141000    0.923000   10.359000 H         1 <1>         0.365700 
     22 H           8.910000    1.394000   11.512000 H         1 <1>         0.354800 
@<TRIPOS>BOND
     1    1    2 ar   
     2    2    3 ar   
     3    3    4 ar   
     4    4    5 ar   
     5    5    6 ar   
     6    6    1 ar   
     7    6    7 1    
     8    7    8 1    
     9    7    9 1    
    10    5   10 ar   
    11   10   11 ar   
    12   11   12 ar   
    13   12   13 1    
    14   12   14 ar   
    15   14    4 ar   
    16   11   15 1    
    17   15   16 1    
    18   15   17 1    
    19   15   18 1    
    20   18   19 1    
    21    2   20 1    
    22   20   21 1    
    23   20   22 1    
@<TRIPOS>SUBSTRUCTURE
     1 ****        1 TEMP              0 ****  ****    0 ROOT 
@<TRIPOS>SET
UNITY_3DHIT     STATIC     ATOMS    <user>   **** Atoms matching 3D or FLEX Search
0
