#	Name:			10-2c
#	Creating user name:	jeff
#	Creation time:		Thu Dec  4 18:13:23 2003

#	Modifying user name:	jeff
#	Modification time:	Thu Dec  4 18:13:24 2003

@<TRIPOS>MOLECULE
10-2c
   38    40     1     0     1
SMALL
USER_CHARGES
****
From 3DB ct
@<TRIPOS>ATOM
      1 N          10.116000    2.605000   12.824000 N.ar      1 <1>        -0.713600 
      2 C          10.763000    2.002000   11.829000 C.ar      1 <1>         0.806000 
      3 N          12.047000    2.187000   11.539000 N.ar      1 <1>        -0.708000 
      4 C          12.736000    3.039000   12.282000 C.ar      1 <1>         0.857200 
      5 C          12.165000    3.727000   13.350000 C.ar      1 <1>        -0.878800 
      6 C          10.819000    3.447000   13.591000 C.ar      1 <1>         0.818000 
      7 N          10.102000    4.072000   14.595000 N.pl3     1 <1>        -0.754400 
      8 H          10.559000    4.238000   15.486000 H         1 <1>         0.332600 
      9 H           9.128000    3.791000   14.669000 H         1 <1>         0.321400 
     10 C          12.967000    4.633000   14.085000 C.ar      1 <1>         0.563600 
     11 C          14.305000    4.815000   13.748000 C.ar      1 <1>        -0.460600 
     12 C          14.775000    4.086000   12.672000 C.ar      1 <1>         0.374100 
     13 H          15.806000    4.180000   12.335000 H         1 <1>         0.097100 
     14 N          14.019000    3.216000   11.953000 N.ar      1 <1>        -0.597300 
     15 C          15.183000    5.782000   14.488000 C.3       1 <1>         0.082500 
     16 H          15.301000    5.472000   15.534000 H         1 <1>         0.069000 
     17 H          14.733000    6.782000   14.466000 H         1 <1>         0.073000 
     18 O          16.458000    5.796000   13.835000 O.3       1 <1>        -0.339600 
     19 C          16.935000    7.035000   13.566000 C.2       1 <1>         0.632100 
     20 C          16.338000    7.567000   12.309000 C.ar      1 <1>        -0.163100 
     21 C          14.984000    7.918000   12.210000 C.ar      1 <1>        -0.053600 
     22 H          14.311000    7.815000   13.059000 H         1 <1>         0.111500 
     23 C          14.473000    8.413000   11.007000 C.ar      1 <1>        -0.106900 
     24 H          13.421000    8.684000   10.935000 H         1 <1>         0.103100 
     25 C          15.306000    8.560000    9.899000 C.ar      1 <1>        -0.083100 
     26 H          14.905000    8.945000    8.963000 H         1 <1>         0.107000 
     27 C          16.653000    8.213000    9.989000 C.ar      1 <1>        -0.100700 
     28 H          17.304000    8.328000    9.124000 H         1 <1>         0.102700 
     29 C          17.169000    7.718000   11.189000 C.ar      1 <1>        -0.052500 
     30 H          18.224000    7.452000   11.242000 H         1 <1>         0.110300 
     31 O          17.745000    7.646000   14.249000 O.2       1 <1>        -0.452400 
     32 C          12.417000    5.357000   15.149000 C.3       1 <1>        -0.334000 
     33 H          11.361000    5.106000   15.253000 H         1 <1>         0.111800 
     34 H          12.943000    5.106000   16.071000 H         1 <1>         0.065800 
     35 H          12.518000    6.425000   14.953000 H         1 <1>         0.113300 
     36 N          10.058000    1.133000   11.053000 N.pl3     1 <1>        -0.801700 
     37 H          10.514000    0.657000   10.289000 H         1 <1>         0.378800 
     38 H           9.081000    0.971000   11.247000 H         1 <1>         0.369500 
@<TRIPOS>BOND
     1    1    2 ar   
     2    2    3 ar   
     3    3    4 ar   
     4    4    5 ar   
     5    5    6 ar   
     6    6    1 ar   
     7    6    7 1    
     8    7    8 1    
     9    7    9 1    
    10    5   10 ar   
    11   10   11 ar   
    12   11   12 ar   
    13   12   13 1    
    14   12   14 ar   
    15   14    4 ar   
    16   11   15 1    
    17   15   16 1    
    18   15   17 1    
    19   15   18 1    
    20   18   19 1    
    21   19   20 1    
    22   20   21 ar   
    23   21   22 1    
    24   21   23 ar   
    25   23   24 1    
    26   23   25 ar   
    27   25   26 1    
    28   25   27 ar   
    29   27   28 1    
    30   27   29 ar   
    31   29   30 1    
    32   29   20 ar   
    33   19   31 2    
    34   10   32 1    
    35   32   33 1    
    36   32   34 1    
    37   32   35 1    
    38    2   36 1    
    39   36   37 1    
    40   36   38 1    
@<TRIPOS>SUBSTRUCTURE
     1 ****        1 TEMP              0 ****  ****    0 ROOT 
@<TRIPOS>SET
UNITY_3DHIT     STATIC     ATOMS    <user>   **** Atoms matching 3D or FLEX Search
0
