#	Name:			10-2d
#	Creating user name:	jeff
#	Creation time:		Thu Dec  4 18:13:24 2003

#	Modifying user name:	jeff
#	Modification time:	Thu Dec  4 18:13:24 2003

@<TRIPOS>MOLECULE
10-2d
   34    36     1     0     1
SMALL
USER_CHARGES
****
From 3DB ct
@<TRIPOS>ATOM
      1 N          10.089000    2.601000   12.841000 N.ar      1 <1>        -0.639000 
      2 C          10.705000    1.974000   11.839000 C.ar      1 <1>         0.734400 
      3 N          11.989000    2.140000   11.517000 N.ar      1 <1>        -0.670500 
      4 C          12.708000    3.005000   12.245000 C.ar      1 <1>         0.627500 
      5 C          12.168000    3.719000   13.317000 C.ar      1 <1>        -0.289400 
      6 C          10.820000    3.449000   13.583000 C.ar      1 <1>         0.618900 
      7 N          10.128000    4.090000   14.596000 N.pl3     1 <1>        -0.745100 
      8 H          10.605000    4.251000   15.476000 H         1 <1>         0.359200 
      9 H           9.154000    3.816000   14.690000 H         1 <1>         0.357200 
     10 N          12.982000    4.635000   14.036000 N.ar      1 <1>        -0.203500 
     11 C          14.328000    4.830000   13.702000 C.ar      1 <1>         0.039200 
     12 C          14.853000    4.104000   12.634000 C.ar      1 <1>         0.186600 
     13 H          15.895000    4.224000   12.338000 H         1 <1>         0.107700 
     14 N          14.044000    3.209000   11.923000 N.ar      1 <1>        -0.459500 
     15 C          15.180000    5.806000   14.475000 C.3       1 <1>        -0.026600 
     16 H          15.253000    5.477000   15.518000 H         1 <1>         0.083800 
     17 H          14.741000    6.811000   14.444000 H         1 <1>         0.094600 
     18 O          16.480000    5.834000   13.871000 O.3       1 <1>        -0.316200 
     19 C          16.950000    7.075000   13.604000 C.2       1 <1>         0.648800 
     20 C          16.401000    7.572000   12.311000 C.ar      1 <1>        -0.219100 
     21 C          17.200000    7.732000   11.174000 C.ar      1 <1>        -0.038500 
     22 H          18.263000    7.508000   11.199000 H         1 <1>         0.104700 
     23 C          16.627000    8.194000    9.985000 C.ar      1 <1>        -0.111800 
     24 H          17.160000    8.281000    9.203000 H         1 <1>         0.103500 
     25 C          15.268000    8.538000    9.911000 C.ar      1 <1>        -0.052700 
     26 H          14.906000    8.870000    9.098000 H         1 <1>         0.099000 
     27 C          14.477000    8.380000   11.050000 C.ar      1 <1>        -0.139300 
     28 H          13.418000    8.623000   11.055000 H         1 <1>         0.108600 
     29 C          15.040000    7.899000   12.241000 C.ar      1 <1>        -0.006900 
     30 H          14.400000    7.784000   13.116000 H         1 <1>         0.102300 
     31 O          17.706000    7.720000   14.317000 O.2       1 <1>        -0.439000 
     32 N           9.975000    1.104000   11.091000 N.pl3     1 <1>        -0.738400 
     33 H          10.413000    0.613000   10.325000 H         1 <1>         0.366400 
     34 H           9.000000    0.954000   11.305000 H         1 <1>         0.352900 
@<TRIPOS>BOND
     1    1    2 ar   
     2    2    3 ar   
     3    3    4 ar   
     4    4    5 ar   
     5    5    6 ar   
     6    6    1 ar   
     7    6    7 1    
     8    7    8 1    
     9    7    9 1    
    10    5   10 ar   
    11   10   11 ar   
    12   11   12 ar   
    13   12   13 1    
    14   12   14 ar   
    15   14    4 ar   
    16   11   15 1    
    17   15   16 1    
    18   15   17 1    
    19   15   18 1    
    20   18   19 1    
    21   19   20 1    
    22   20   21 ar   
    23   21   22 1    
    24   21   23 ar   
    25   23   24 1    
    26   23   25 ar   
    27   25   26 1    
    28   25   27 ar   
    29   27   28 1    
    30   27   29 ar   
    31   29   30 1    
    32   29   20 ar   
    33   19   31 2    
    34    2   32 1    
    35   32   33 1    
    36   32   34 1    
@<TRIPOS>SUBSTRUCTURE
     1 ****        1 TEMP              0 ****  ****    0 ROOT 
@<TRIPOS>SET
UNITY_3DHIT     STATIC     ATOMS    <user>   **** Atoms matching 3D or FLEX Search
0
