#	Name:			10-2b
#	Creating user name:	jeff
#	Creation time:		Thu Dec  4 18:13:23 2003

#	Modifying user name:	jeff
#	Modification time:	Thu Dec  4 18:13:23 2003

@<TRIPOS>MOLECULE
10-2b
   35    37     1     0     1
SMALL
USER_CHARGES
****
From 3DB ct
@<TRIPOS>ATOM
      1 N          10.116000    2.605000   12.824000 N.ar      1 <1>        -0.691100 
      2 C          10.763000    2.002000   11.829000 C.ar      1 <1>         0.813100 
      3 N          12.047000    2.187000   11.539000 N.ar      1 <1>        -0.725400 
      4 C          12.736000    3.039000   12.282000 C.ar      1 <1>         0.864800 
      5 C          12.165000    3.727000   13.350000 C.ar      1 <1>        -0.781500 
      6 C          10.819000    3.447000   13.591000 C.ar      1 <1>         0.746800 
      7 N          10.102000    4.072000   14.595000 N.pl3     1 <1>        -0.743700 
      8 H          10.559000    4.238000   15.486000 H         1 <1>         0.337500 
      9 H           9.128000    3.791000   14.669000 H         1 <1>         0.329200 
     10 C          12.967000    4.633000   14.085000 C.ar      1 <1>         0.317700 
     11 H          12.539000    5.196000   14.912000 H         1 <1>         0.077900 
     12 C          14.305000    4.815000   13.748000 C.ar      1 <1>        -0.373100 
     13 C          14.775000    4.086000   12.672000 C.ar      1 <1>         0.371200 
     14 H          15.806000    4.180000   12.335000 H         1 <1>         0.087900 
     15 N          14.019000    3.216000   11.953000 N.ar      1 <1>        -0.594700 
     16 C          15.183000    5.782000   14.488000 C.3       1 <1>        -0.000200 
     17 H          15.301000    5.472000   15.534000 H         1 <1>         0.087000 
     18 H          14.733000    6.782000   14.466000 H         1 <1>         0.082300 
     19 O          16.458000    5.796000   13.835000 O.3       1 <1>        -0.280900 
     20 C          16.935000    7.035000   13.566000 C.2       1 <1>         0.588400 
     21 C          16.338000    7.567000   12.309000 C.ar      1 <1>        -0.189600 
     22 C          14.984000    7.918000   12.210000 C.ar      1 <1>        -0.017800 
     23 H          14.311000    7.815000   13.059000 H         1 <1>         0.098400 
     24 C          14.473000    8.413000   11.007000 C.ar      1 <1>        -0.122100 
     25 H          13.421000    8.684000   10.935000 H         1 <1>         0.105000 
     26 C          15.306000    8.560000    9.899000 C.ar      1 <1>        -0.065900 
     27 H          14.905000    8.945000    8.963000 H         1 <1>         0.102900 
     28 C          16.653000    8.213000    9.989000 C.ar      1 <1>        -0.126600 
     29 H          17.304000    8.328000    9.124000 H         1 <1>         0.107300 
     30 C          17.169000    7.718000   11.189000 C.ar      1 <1>        -0.011600 
     31 H          18.224000    7.452000   11.242000 H         1 <1>         0.092900 
     32 O          17.745000    7.646000   14.249000 O.2       1 <1>        -0.434300 
     33 N          10.058000    1.133000   11.053000 N.pl3     1 <1>        -0.803300 
     34 H          10.514000    0.657000   10.289000 H         1 <1>         0.382300 
     35 H           9.081000    0.971000   11.247000 H         1 <1>         0.369200 
@<TRIPOS>BOND
     1    1    2 ar   
     2    2    3 ar   
     3    3    4 ar   
     4    4    5 ar   
     5    5    6 ar   
     6    6    1 ar   
     7    6    7 1    
     8    7    8 1    
     9    7    9 1    
    10    5   10 ar   
    11   10   11 1    
    12   10   12 ar   
    13   12   13 ar   
    14   13   14 1    
    15   13   15 ar   
    16   15    4 ar   
    17   12   16 1    
    18   16   17 1    
    19   16   18 1    
    20   16   19 1    
    21   19   20 1    
    22   20   21 1    
    23   21   22 ar   
    24   22   23 1    
    25   22   24 ar   
    26   24   25 1    
    27   24   26 ar   
    28   26   27 1    
    29   26   28 ar   
    30   28   29 1    
    31   28   30 ar   
    32   30   31 1    
    33   30   21 ar   
    34   20   32 2    
    35    2   33 1    
    36   33   34 1    
    37   33   35 1    
@<TRIPOS>SUBSTRUCTURE
     1 ****        1 TEMP              0 ****  ****    0 ROOT 
@<TRIPOS>SET
UNITY_3DHIT     STATIC     ATOMS    <user>   **** Atoms matching 3D or FLEX Search
0
