#	Name:			10-3a
#	Creating user name:	jeff
#	Creation time:		Thu Dec  4 18:13:24 2003

#	Modifying user name:	jeff
#	Modification time:	Thu Dec  4 18:13:24 2003

@<TRIPOS>MOLECULE
10-3a
   48    50     1     0     1
SMALL
USER_CHARGES
****
From 3DB ct
@<TRIPOS>ATOM
      1 N          10.099000    2.607000   12.839000 N.ar      1 <1>        -0.687600 
      2 C          10.719000    1.980000   11.840000 C.ar      1 <1>         0.822100 
      3 N          12.001000    2.149000   11.520000 N.ar      1 <1>        -0.686100 
      4 C          12.717000    3.014000   12.249000 C.ar      1 <1>         0.507400 
      5 C          12.175000    3.724000   13.324000 C.ar      1 <1>        -0.509200 
      6 C          10.827000    3.454000   13.584000 C.ar      1 <1>         0.705100 
      7 N          10.129000    4.096000   14.593000 N.pl3     1 <1>        -0.752100 
      8 H          10.601000    4.261000   15.476000 H         1 <1>         0.337000 
      9 H           9.155000    3.821000   14.682000 H         1 <1>         0.331600 
     10 C          12.989000    4.634000   14.050000 C.ar      1 <1>         0.045600 
     11 H          12.563000    5.199000   14.878000 H         1 <1>         0.117600 
     12 C          14.337000    4.825000   13.720000 C.ar      1 <1>        -0.065700 
     13 C          14.860000    4.115000   12.640000 C.ar      1 <1>        -0.054100 
     14 H          15.899000    4.245000   12.340000 H         1 <1>         0.126800 
     15 C          14.051000    3.224000   11.924000 C.ar      1 <1>        -0.258200 
     16 H          14.485000    2.682000   11.085000 H         1 <1>         0.137900 
     17 C          15.188000    5.799000   14.493000 C.3       1 <1>        -0.106300 
     18 H          15.267000    5.489000   15.543000 H         1 <1>         0.107200 
     19 H          14.739000    6.798000   14.454000 H         1 <1>         0.098100 
     20 O          16.486000    5.817000   13.886000 O.3       1 <1>        -0.276000 
     21 C          16.947000    7.055000   13.589000 C.2       1 <1>         0.668300 
     22 C          16.327000    7.559000   12.329000 C.ar      1 <1>        -0.246300 
     23 C          14.964000    7.895000   12.253000 C.ar      1 <1>        -0.069200 
     24 H          14.343000    7.783000   13.136000 H         1 <1>         0.140500 
     25 C          14.422000    8.370000   11.058000 C.ar      1 <1>         0.108800 
     26 C          15.265000    8.526000    9.943000 C.ar      1 <1>         0.096000 
     27 C          16.623000    8.169000    9.995000 C.ar      1 <1>         0.159400 
     28 C          17.149000    7.695000   11.198000 C.ar      1 <1>        -0.127200 
     29 H          18.197000    7.421000   11.283000 H         1 <1>         0.120100 
     30 O          17.332000    8.327000    8.832000 O.3       1 <1>        -0.222400 
     31 C          18.712000    7.968000    8.854000 C.3       1 <1>        -0.085900 
     32 H          19.111000    8.120000    7.846000 H         1 <1>         0.089200 
     33 H          18.840000    6.910000    9.107000 H         1 <1>         0.068400 
     34 H          19.275000    8.613000    9.537000 H         1 <1>         0.072200 
     35 O          14.733000    8.972000    8.752000 O.3       1 <1>        -0.251300 
     36 C          15.755000    9.005000    7.748000 C.3       1 <1>         0.053100 
     37 H          15.295000    9.343000    6.815000 H         1 <1>         0.050500 
     38 H          16.178000    8.009000    7.578000 H         1 <1>         0.028600 
     39 H          16.547000    9.714000    8.012000 H         1 <1>         0.036200 
     40 O          13.106000    8.710000   10.870000 O.3       1 <1>        -0.286300 
     41 C          12.724000    9.158000    9.571000 C.3       1 <1>         0.087700 
     42 H          11.659000    9.406000    9.606000 H         1 <1>         0.044300 
     43 H          12.858000    8.366000    8.828000 H         1 <1>         0.023500 
     44 H          13.269000   10.065000    9.291000 H         1 <1>         0.027000 
     45 O          17.763000    7.686000   14.246000 O.2       1 <1>        -0.449400 
     46 N           9.993000    1.105000   11.091000 N.pl3     1 <1>        -0.837300 
     47 H          10.435000    0.612000   10.329000 H         1 <1>         0.383800 
     48 H           9.018000    0.954000   11.303000 H         1 <1>         0.376600 
@<TRIPOS>BOND
     1    1    2 ar   
     2    2    3 ar   
     3    3    4 ar   
     4    4    5 ar   
     5    5    6 ar   
     6    6    1 ar   
     7    6    7 1    
     8    7    8 1    
     9    7    9 1    
    10    5   10 ar   
    11   10   11 1    
    12   10   12 ar   
    13   12   13 ar   
    14   13   14 1    
    15   13   15 ar   
    16   15   16 1    
    17   15    4 ar   
    18   12   17 1    
    19   17   18 1    
    20   17   19 1    
    21   17   20 1    
    22   20   21 1    
    23   21   22 1    
    24   22   23 ar   
    25   23   24 1    
    26   23   25 ar   
    27   25   26 ar   
    28   26   27 ar   
    29   27   28 ar   
    30   28   29 1    
    31   28   22 ar   
    32   27   30 1    
    33   30   31 1    
    34   31   32 1    
    35   31   33 1    
    36   31   34 1    
    37   26   35 1    
    38   35   36 1    
    39   36   37 1    
    40   36   38 1    
    41   36   39 1    
    42   25   40 1    
    43   40   41 1    
    44   41   42 1    
    45   41   43 1    
    46   41   44 1    
    47   21   45 2    
    48    2   46 1    
    49   46   47 1    
    50   46   48 1    
@<TRIPOS>SUBSTRUCTURE
     1 ****        1 TEMP              0 ****  ****    0 ROOT 
@<TRIPOS>SET
UNITY_3DHIT     STATIC     ATOMS    <user>   **** Atoms matching 3D or FLEX Search
0
