#	Name:			10-4a
#	Creating user name:	jeff
#	Creation time:		Thu Dec  4 18:13:24 2003

#	Modifying user name:	jeff
#	Modification time:	Thu Dec  4 18:13:24 2003

@<TRIPOS>MOLECULE
10-4a
   44    46     1     0     1
SMALL
USER_CHARGES
****
From 3DB ct
@<TRIPOS>ATOM
      1 N          10.089000    2.606000   12.837000 N.ar      1 <1>        -0.689300 
      2 C          10.705000    1.982000   11.834000 C.ar      1 <1>         0.825800 
      3 N          11.991000    2.139000   11.518000 N.ar      1 <1>        -0.690600 
      4 C          12.712000    2.997000   12.252000 C.ar      1 <1>         0.520900 
      5 C          12.171000    3.708000   13.326000 C.ar      1 <1>        -0.526700 
      6 C          10.822000    3.444000   13.587000 C.ar      1 <1>         0.705400 
      7 N          10.130000    4.085000   14.600000 N.pl3     1 <1>        -0.748800 
      8 H          10.606000    4.240000   15.483000 H         1 <1>         0.332700 
      9 H           9.154000    3.817000   14.689000 H         1 <1>         0.330800 
     10 C          12.984000    4.620000   14.048000 C.ar      1 <1>         0.066300 
     11 H          12.556000    5.191000   14.871000 H         1 <1>         0.116100 
     12 C          14.327000    4.825000   13.707000 C.ar      1 <1>        -0.083000 
     13 C          14.856000    4.098000   12.641000 C.ar      1 <1>        -0.036500 
     14 H          15.895000    4.228000   12.340000 H         1 <1>         0.124500 
     15 C          14.050000    3.199000   11.933000 C.ar      1 <1>        -0.271100 
     16 H          14.486000    2.650000   11.099000 H         1 <1>         0.139100 
     17 C          15.164000    5.833000   14.453000 C.3       1 <1>        -0.095000 
     18 H          15.239000    5.562000   15.512000 H         1 <1>         0.104500 
     19 H          14.710000    6.828000   14.370000 H         1 <1>         0.088900 
     20 O          16.455000    5.846000   13.832000 O.3       1 <1>        -0.268500 
     21 C          16.963000    7.070000   13.567000 C.2       1 <1>         0.708400 
     22 C          16.403000    7.567000   12.289000 C.ar      1 <1>        -0.357500 
     23 C          17.192000    7.715000   11.133000 C.ar      1 <1>         0.358300 
     24 C          16.579000    8.175000    9.966000 C.ar      1 <1>        -0.239700 
     25 H          17.131000    8.314000    9.040000 H         1 <1>         0.134100 
     26 C          15.215000    8.490000    9.959000 C.ar      1 <1>        -0.159300 
     27 H          14.760000    8.849000    9.036000 H         1 <1>         0.124500 
     28 C          14.439000    8.362000   11.112000 C.ar      1 <1>         0.241700 
     29 C          15.037000    7.901000   12.282000 C.ar      1 <1>        -0.101500 
     30 H          14.469000    7.782000   13.200000 H         1 <1>         0.139200 
     31 O          13.127000    8.714000   10.962000 O.3       1 <1>        -0.306400 
     32 C          12.714000    9.130000    9.661000 C.3       1 <1>         0.079800 
     33 H          11.645000    9.360000    9.708000 H         1 <1>         0.055300 
     34 H          12.851000    8.327000    8.930000 H         1 <1>         0.023100 
     35 H          13.240000   10.041000    9.355000 H         1 <1>         0.021200 
     36 O          18.529000    7.438000   11.242000 O.3       1 <1>        -0.309000 
     37 C          19.320000    7.532000   10.059000 C.3       1 <1>         0.045800 
     38 H          20.329000    7.187000   10.307000 H         1 <1>         0.064900 
     39 H          19.398000    8.571000    9.723000 H         1 <1>         0.033900 
     40 H          18.930000    6.884000    9.268000 H         1 <1>         0.032700 
     41 O          17.707000    7.720000   14.286000 O.2       1 <1>        -0.454900 
     42 N           9.969000    1.125000   11.075000 N.pl3     1 <1>        -0.841400 
     43 H          10.402000    0.644000   10.300000 H         1 <1>         0.384500 
     44 H           8.991000    0.989000   11.281000 H         1 <1>         0.376400 
@<TRIPOS>BOND
     1    1    2 ar   
     2    2    3 ar   
     3    3    4 ar   
     4    4    5 ar   
     5    5    6 ar   
     6    6    1 ar   
     7    6    7 1    
     8    7    8 1    
     9    7    9 1    
    10    5   10 ar   
    11   10   11 1    
    12   10   12 ar   
    13   12   13 ar   
    14   13   14 1    
    15   13   15 ar   
    16   15   16 1    
    17   15    4 ar   
    18   12   17 1    
    19   17   18 1    
    20   17   19 1    
    21   17   20 1    
    22   20   21 1    
    23   21   22 1    
    24   22   23 ar   
    25   23   24 ar   
    26   24   25 1    
    27   24   26 ar   
    28   26   27 1    
    29   26   28 ar   
    30   28   29 ar   
    31   29   30 1    
    32   29   22 ar   
    33   28   31 1    
    34   31   32 1    
    35   32   33 1    
    36   32   34 1    
    37   32   35 1    
    38   23   36 1    
    39   36   37 1    
    40   37   38 1    
    41   37   39 1    
    42   37   40 1    
    43   21   41 2    
    44    2   42 1    
    45   42   43 1    
    46   42   44 1    
@<TRIPOS>SUBSTRUCTURE
     1 ****        1 TEMP              0 ****  ****    0 ROOT 
@<TRIPOS>SET
UNITY_3DHIT     STATIC     ATOMS    <user>   **** Atoms matching 3D or FLEX Search
0
