#	Name:			10-5a
#	Creating user name:	jeff
#	Creation time:		Thu Dec  4 18:13:24 2003

#	Modifying user name:	jeff
#	Modification time:	Thu Dec  4 18:13:24 2003

@<TRIPOS>MOLECULE
10-5a
   48    50     1     0     1
SMALL
USER_CHARGES
****
From 3DB ct
@<TRIPOS>ATOM
      1 N          10.091000    2.601000   12.833000 N.ar      1 <1>        -0.690000 
      2 C          10.712000    1.980000   11.832000 C.ar      1 <1>         0.823700 
      3 N          11.998000    2.145000   11.520000 N.ar      1 <1>        -0.684800 
      4 C          12.712000    3.005000   12.256000 C.ar      1 <1>         0.508700 
      5 C          12.168000    3.712000   13.331000 C.ar      1 <1>        -0.518900 
      6 C          10.818000    3.442000   13.586000 C.ar      1 <1>         0.712100 
      7 N          10.118000    4.082000   14.594000 N.pl3     1 <1>        -0.755300 
      8 H          10.589000    4.245000   15.479000 H         1 <1>         0.334300 
      9 H           9.144000    3.808000   14.681000 H         1 <1>         0.331700 
     10 C          12.978000    4.625000   14.059000 C.ar      1 <1>         0.045600 
     11 H          12.548000    5.190000   14.885000 H         1 <1>         0.115500 
     12 C          14.323000    4.829000   13.724000 C.ar      1 <1>        -0.059300 
     13 C          14.852000    4.111000   12.652000 C.ar      1 <1>        -0.033000 
     14 H          15.891000    4.242000   12.353000 H         1 <1>         0.116000 
     15 C          14.049000    3.214000   11.938000 C.ar      1 <1>        -0.266300 
     16 H          14.486000    2.671000   11.102000 H         1 <1>         0.140000 
     17 C          15.163000    5.826000   14.481000 C.3       1 <1>        -0.135400 
     18 H          15.230000    5.543000   15.539000 H         1 <1>         0.110000 
     19 H          14.714000    6.823000   14.408000 H         1 <1>         0.106000 
     20 O          16.462000    5.837000   13.875000 O.3       1 <1>        -0.236200 
     21 C          16.954000    7.063000   13.592000 C.2       1 <1>         0.674700 
     22 C          16.425000    7.540000   12.291000 C.ar      1 <1>        -0.382900 
     23 C          17.208000    7.660000   11.134000 C.ar      1 <1>         0.333700 
     24 C          16.632000    8.183000    9.963000 C.ar      1 <1>        -0.081100 
     25 C          15.265000    8.515000    9.909000 C.ar      1 <1>         0.290700 
     26 C          14.493000    8.374000   11.062000 C.ar      1 <1>        -0.276700 
     27 H          13.436000    8.627000   11.083000 H         1 <1>         0.152100 
     28 C          15.072000    7.905000   12.247000 C.ar      1 <1>         0.051100 
     29 H          14.450000    7.817000   13.138000 H         1 <1>         0.118800 
     30 O          14.800000    8.970000    8.702000 O.3       1 <1>        -0.308700 
     31 C          15.735000    9.040000    7.627000 C.3       1 <1>         0.132900 
     32 H          15.202000    9.412000    6.747000 H         1 <1>         0.032800 
     33 H          16.128000    8.048000    7.383000 H         1 <1>         0.009300 
     34 H          16.542000    9.745000    7.853000 H         1 <1>         0.015800 
     35 O          17.404000    8.340000    8.832000 O.3       1 <1>        -0.242200 
     36 C          18.739000    7.890000    9.088000 C.3       1 <1>         0.087800 
     37 H          19.321000    8.037000    8.174000 H         1 <1>         0.046800 
     38 H          18.756000    6.822000    9.333000 H         1 <1>         0.022600 
     39 H          19.209000    8.472000    9.888000 H         1 <1>         0.019600 
     40 O          18.552000    7.377000   11.179000 O.3       1 <1>        -0.301100 
     41 C          18.812000    6.029000   10.764000 C.3       1 <1>         0.044400 
     42 H          19.788000    5.741000   11.165000 H         1 <1>         0.037500 
     43 H          18.865000    5.966000    9.673000 H         1 <1>         0.028500 
     44 H          18.065000    5.327000   11.151000 H         1 <1>         0.060500 
     45 O          17.678000    7.732000   14.314000 O.2       1 <1>        -0.454300 
     46 N           9.985000    1.119000   11.070000 N.pl3     1 <1>        -0.838600 
     47 H          10.422000    0.645000   10.294000 H         1 <1>         0.384400 
     48 H           9.005000    0.980000   11.269000 H         1 <1>         0.377400 
@<TRIPOS>BOND
     1    1    2 ar   
     2    2    3 ar   
     3    3    4 ar   
     4    4    5 ar   
     5    5    6 ar   
     6    6    1 ar   
     7    6    7 1    
     8    7    8 1    
     9    7    9 1    
    10    5   10 ar   
    11   10   11 1    
    12   10   12 ar   
    13   12   13 ar   
    14   13   14 1    
    15   13   15 ar   
    16   15   16 1    
    17   15    4 ar   
    18   12   17 1    
    19   17   18 1    
    20   17   19 1    
    21   17   20 1    
    22   20   21 1    
    23   21   22 1    
    24   22   23 ar   
    25   23   24 ar   
    26   24   25 ar   
    27   25   26 ar   
    28   26   27 1    
    29   26   28 ar   
    30   28   29 1    
    31   28   22 ar   
    32   25   30 1    
    33   30   31 1    
    34   31   32 1    
    35   31   33 1    
    36   31   34 1    
    37   24   35 1    
    38   35   36 1    
    39   36   37 1    
    40   36   38 1    
    41   36   39 1    
    42   23   40 1    
    43   40   41 1    
    44   41   42 1    
    45   41   43 1    
    46   41   44 1    
    47   21   45 2    
    48    2   46 1    
    49   46   47 1    
    50   46   48 1    
@<TRIPOS>SUBSTRUCTURE
     1 ****        1 TEMP              0 ****  ****    0 ROOT 
@<TRIPOS>SET
UNITY_3DHIT     STATIC     ATOMS    <user>   **** Atoms matching 3D or FLEX Search
0
