#	Name:			10-6a
#	Creating user name:	jeff
#	Creation time:		Thu Dec  4 18:13:24 2003

#	Modifying user name:	jeff
#	Modification time:	Thu Dec  4 18:13:24 2003

@<TRIPOS>MOLECULE
10-6a
   44    46     1     0     1
SMALL
USER_CHARGES
****
From 3DB ct
@<TRIPOS>ATOM
      1 N          10.088000    2.600000   12.836000 N.ar      1 <1>        -0.692700 
      2 C          10.707000    1.977000   11.834000 C.ar      1 <1>         0.835800 
      3 N          11.992000    2.142000   11.518000 N.ar      1 <1>        -0.693300 
      4 C          12.708000    3.004000   12.250000 C.ar      1 <1>         0.520700 
      5 C          12.165000    3.715000   13.323000 C.ar      1 <1>        -0.526300 
      6 C          10.817000    3.444000   13.584000 C.ar      1 <1>         0.706400 
      7 N          10.120000    4.083000   14.596000 N.pl3     1 <1>        -0.748200 
      8 H          10.595000    4.245000   15.478000 H         1 <1>         0.336300 
      9 H           9.147000    3.808000   14.686000 H         1 <1>         0.330800 
     10 C          12.977000    4.629000   14.046000 C.ar      1 <1>         0.079600 
     11 H          12.550000    5.192000   14.875000 H         1 <1>         0.111100 
     12 C          14.322000    4.829000   13.713000 C.ar      1 <1>        -0.104300 
     13 C          14.852000    4.104000   12.645000 C.ar      1 <1>        -0.033200 
     14 H          15.893000    4.226000   12.351000 H         1 <1>         0.121900 
     15 C          14.045000    3.209000   11.932000 C.ar      1 <1>        -0.270100 
     16 H          14.483000    2.660000   11.099000 H         1 <1>         0.139800 
     17 C          15.171000    5.803000   14.489000 C.3       1 <1>        -0.069600 
     18 H          15.249000    5.469000   15.530000 H         1 <1>         0.102400 
     19 H          14.727000    6.805000   14.465000 H         1 <1>         0.085000 
     20 O          16.470000    5.838000   13.882000 O.3       1 <1>        -0.290600 
     21 C          16.925000    7.083000   13.606000 C.2       1 <1>         0.660700 
     22 C          16.349000    7.581000   12.325000 C.ar      1 <1>        -0.101000 
     23 C          14.996000    7.923000   12.201000 C.ar      1 <1>        -0.277800 
     24 H          14.320000    7.833000   13.049000 H         1 <1>         0.153800 
     25 C          14.489000    8.379000   10.982000 C.ar      1 <1>         0.398700 
     26 C          15.345000    8.495000    9.886000 C.ar      1 <1>        -0.393300 
     27 H          14.985000    8.849000    8.923000 H         1 <1>         0.153800 
     28 C          16.699000    8.156000    9.996000 C.ar      1 <1>         0.356300 
     29 C          17.199000    7.698000   11.215000 C.ar      1 <1>        -0.241900 
     30 H          18.245000    7.428000   11.329000 H         1 <1>         0.120500 
     31 O          17.422000    8.319000    8.844000 O.3       1 <1>        -0.296800 
     32 C          18.797000    7.939000    8.884000 C.3       1 <1>         0.037100 
     33 H          19.223000    8.130000    7.894000 H         1 <1>         0.060500 
     34 H          18.903000    6.870000    9.093000 H         1 <1>         0.040300 
     35 H          19.351000    8.544000    9.609000 H         1 <1>         0.039900 
     36 O          13.153000    8.674000   10.993000 O.3       1 <1>        -0.308700 
     37 C          12.585000    9.134000    9.767000 C.3       1 <1>         0.061100 
     38 H          11.520000    9.312000    9.940000 H         1 <1>         0.055600 
     39 H          12.673000    8.374000    8.983000 H         1 <1>         0.034200 
     40 H          13.037000   10.082000    9.456000 H         1 <1>         0.033000 
     41 O          17.696000    7.729000   14.303000 O.2       1 <1>        -0.444300 
     42 N           9.978000    1.111000   11.079000 N.pl3     1 <1>        -0.849600 
     43 H          10.416000    0.626000   10.309000 H         1 <1>         0.387500 
     44 H           9.001000    0.966000   11.288000 H         1 <1>         0.379000 
@<TRIPOS>BOND
     1    1    2 ar   
     2    2    3 ar   
     3    3    4 ar   
     4    4    5 ar   
     5    5    6 ar   
     6    6    1 ar   
     7    6    7 1    
     8    7    8 1    
     9    7    9 1    
    10    5   10 ar   
    11   10   11 1    
    12   10   12 ar   
    13   12   13 ar   
    14   13   14 1    
    15   13   15 ar   
    16   15   16 1    
    17   15    4 ar   
    18   12   17 1    
    19   17   18 1    
    20   17   19 1    
    21   17   20 1    
    22   20   21 1    
    23   21   22 1    
    24   22   23 ar   
    25   23   24 1    
    26   23   25 ar   
    27   25   26 ar   
    28   26   27 1    
    29   26   28 ar   
    30   28   29 ar   
    31   29   30 1    
    32   29   22 ar   
    33   28   31 1    
    34   31   32 1    
    35   32   33 1    
    36   32   34 1    
    37   32   35 1    
    38   25   36 1    
    39   36   37 1    
    40   37   38 1    
    41   37   39 1    
    42   37   40 1    
    43   21   41 2    
    44    2   42 1    
    45   42   43 1    
    46   42   44 1    
@<TRIPOS>SUBSTRUCTURE
     1 ****        1 TEMP              0 ****  ****    0 ROOT 
@<TRIPOS>SET
UNITY_3DHIT     STATIC     ATOMS    <user>   **** Atoms matching 3D or FLEX Search
0
