#	Name:			11-AH2503
#	Creating user name:	jeff
#	Creation time:		Thu Dec  4 18:13:24 2003

#	Modifying user name:	jeff
#	Modification time:	Thu Dec  4 18:13:24 2003

@<TRIPOS>MOLECULE
11-AH2503
   30    31     1     0     1
SMALL
USER_CHARGES
****
From 3DB ct
@<TRIPOS>ATOM
      1 N          10.162000    2.639000   12.884000 N.ar      1 <1>        -0.659900 
      2 C          10.759000    1.987000   11.891000 C.ar      1 <1>         0.779800 
      3 N          12.029000    2.157000   11.536000 N.ar      1 <1>        -0.673900 
      4 C          12.749000    3.038000   12.224000 C.ar      1 <1>         0.535500 
      5 C          12.245000    3.791000   13.285000 C.ar      1 <1>        -0.261000 
      6 C          10.903000    3.537000   13.557000 C.ar      1 <1>         0.634400 
      7 N          10.262000    4.166000   14.618000 N.pl3     1 <1>        -0.768300 
      8 H          10.590000    5.092000   14.881000 H         1 <1>         0.359300 
      9 H           9.275000    3.971000   14.741000 H         1 <1>         0.364200 
     10 N          13.014000    4.693000   13.970000 N.ar      1 <1>        -0.225800 
     11 C          14.307000    4.840000   13.583000 C.ar      1 <1>        -0.016600 
     12 C          14.814000    4.080000   12.530000 C.ar      1 <1>         0.271100 
     13 N          14.026000    3.190000   11.857000 N.ar      1 <1>        -0.389700 
     14 C          16.235000    4.173000   12.039000 C.3       1 <1>        -0.190500 
     15 H          16.780000    3.279000   12.371000 H         1 <1>         0.071900 
     16 H          16.752000    5.018000   12.505000 H         1 <1>         0.072400 
     17 C          16.322000    4.253000   10.522000 C.3       1 <1>         0.071600 
     18 H          17.370000    4.264000   10.205000 H         1 <1>        -0.004600 
     19 H          15.845000    5.159000   10.138000 H         1 <1>        -0.012400 
     20 H          15.835000    3.392000   10.053000 H         1 <1>         0.007900 
     21 C          15.107000    5.850000   14.362000 C.3       1 <1>         0.030800 
     22 H          15.580000    5.411000   15.243000 H         1 <1>         0.007100 
     23 H          14.419000    6.617000   14.739000 H         1 <1>         0.016900 
     24 C          16.173000    6.513000   13.500000 C.3       1 <1>         0.017600 
     25 H          16.745000    7.233000   14.094000 H         1 <1>        -0.004000 
     26 H          15.727000    7.052000   12.657000 H         1 <1>         0.011400 
     27 H          16.872000    5.776000   13.093000 H         1 <1>        -0.004000 
     28 N          10.021000    1.083000   11.193000 N.pl3     1 <1>        -0.776600 
     29 H          10.442000    0.569000   10.433000 H         1 <1>         0.374200 
     30 H           9.054000    0.930000   11.439000 H         1 <1>         0.361100 
@<TRIPOS>BOND
     1    1    2 ar   
     2    2    3 ar   
     3    3    4 ar   
     4    4    5 ar   
     5    5    6 ar   
     6    6    1 ar   
     7    6    7 1    
     8    7    8 1    
     9    7    9 1    
    10    5   10 ar   
    11   10   11 ar   
    12   11   12 ar   
    13   12   13 ar   
    14   13    4 ar   
    15   12   14 1    
    16   14   15 1    
    17   14   16 1    
    18   14   17 1    
    19   17   18 1    
    20   17   19 1    
    21   17   20 1    
    22   11   21 1    
    23   21   22 1    
    24   21   23 1    
    25   21   24 1    
    26   24   25 1    
    27   24   26 1    
    28   24   27 1    
    29    2   28 1    
    30   28   29 1    
    31   28   30 1    
@<TRIPOS>SUBSTRUCTURE
     1 ****        1 TEMP              0 ****  ****    0 ROOT 
@<TRIPOS>SET
UNITY_3DHIT     STATIC     ATOMS    <user>   **** Atoms matching 3D or FLEX Search
0
