#	Name:			11-AH2504
#	Creating user name:	jeff
#	Creation time:		Thu Dec  4 18:13:24 2003

#	Modifying user name:	jeff
#	Modification time:	Thu Dec  4 18:13:24 2003

@<TRIPOS>MOLECULE
11-AH2504
   38    40     1     0     1
SMALL
USER_CHARGES
****
From 3DB ct
@<TRIPOS>ATOM
      1 N          10.151000    2.623000   12.873000 N.ar      1 <1>        -0.679500 
      2 C          10.757000    1.983000   11.877000 C.ar      1 <1>         0.797800 
      3 N          12.029000    2.160000   11.534000 N.ar      1 <1>        -0.671900 
      4 C          12.742000    3.036000   12.235000 C.ar      1 <1>         0.534400 
      5 C          12.229000    3.770000   13.308000 C.ar      1 <1>        -0.310400 
      6 C          10.892000    3.494000   13.580000 C.ar      1 <1>         0.667000 
      7 N          10.216000    4.178000   14.582000 N.pl3     1 <1>        -0.760400 
      8 H          10.759000    4.508000   15.375000 H         1 <1>         0.353200 
      9 H           9.255000    3.905000   14.759000 H         1 <1>         0.357600 
     10 N          12.987000    4.663000   14.017000 N.ar      1 <1>        -0.229900 
     11 C          14.281000    4.811000   13.639000 C.ar      1 <1>         0.163500 
     12 C          14.791000    4.098000   12.550000 C.ar      1 <1>         0.218100 
     13 N          14.016000    3.205000   11.867000 N.ar      1 <1>        -0.391400 
     14 C          16.224000    4.266000   12.096000 C.3       1 <1>         0.015500 
     15 H          16.883000    3.763000   12.813000 H         1 <1>         0.048500 
     16 H          16.480000    5.332000   12.092000 H         1 <1>         0.014500 
     17 C          16.511000    3.719000   10.702000 C.3       1 <1>        -0.102700 
     18 H          17.555000    3.909000   10.431000 H         1 <1>         0.019000 
     19 H          15.873000    4.195000    9.950000 H         1 <1>         0.036200 
     20 H          16.345000    2.638000   10.656000 H         1 <1>         0.035900 
     21 C          15.050000    5.773000   14.440000 C.ar      1 <1>        -0.248500 
     22 C          16.039000    5.361000   15.361000 C.ar      1 <1>         0.367700 
     23 C          16.750000    6.321000   16.092000 C.ar      1 <1>        -0.277000 
     24 H          17.520000    6.047000   16.808000 H         1 <1>         0.128900 
     25 C          16.482000    7.682000   15.924000 C.ar      1 <1>        -0.036100 
     26 H          17.041000    8.419000   16.498000 H         1 <1>         0.106200 
     27 C          15.502000    8.097000   15.029000 C.ar      1 <1>        -0.163300 
     28 H          15.291000    9.157000   14.902000 H         1 <1>         0.110400 
     29 C          14.790000    7.149000   14.295000 C.ar      1 <1>        -0.024900 
     30 H          14.023000    7.489000   13.599000 H         1 <1>         0.118200 
     31 O          16.229000    4.005000   15.477000 O.3       1 <1>        -0.322900 
     32 C          17.221000    3.558000   16.399000 C.3       1 <1>         0.043300 
     33 H          17.240000    2.465000   16.361000 H         1 <1>         0.066100 
     34 H          16.968000    3.853000   17.423000 H         1 <1>         0.039300 
     35 H          18.215000    3.918000   16.113000 H         1 <1>         0.028900 
     36 N          10.025000    1.090000   11.159000 N.pl3     1 <1>        -0.793800 
     37 H          10.452000    0.587000   10.394000 H         1 <1>         0.375900 
     38 H           9.055000    0.935000   11.393000 H         1 <1>         0.366500 
@<TRIPOS>BOND
     1    1    2 ar   
     2    2    3 ar   
     3    3    4 ar   
     4    4    5 ar   
     5    5    6 ar   
     6    6    1 ar   
     7    6    7 1    
     8    7    8 1    
     9    7    9 1    
    10    5   10 ar   
    11   10   11 ar   
    12   11   12 ar   
    13   12   13 ar   
    14   13    4 ar   
    15   12   14 1    
    16   14   15 1    
    17   14   16 1    
    18   14   17 1    
    19   17   18 1    
    20   17   19 1    
    21   17   20 1    
    22   11   21 1    
    23   21   22 ar   
    24   22   23 ar   
    25   23   24 1    
    26   23   25 ar   
    27   25   26 1    
    28   25   27 ar   
    29   27   28 1    
    30   27   29 ar   
    31   29   30 1    
    32   29   21 ar   
    33   22   31 1    
    34   31   32 1    
    35   32   33 1    
    36   32   34 1    
    37   32   35 1    
    38    2   36 1    
    39   36   37 1    
    40   36   38 1    
@<TRIPOS>SUBSTRUCTURE
     1 ****        1 TEMP              0 ****  ****    0 ROOT 
@<TRIPOS>SET
UNITY_3DHIT     STATIC     ATOMS    <user>   **** Atoms matching 3D or FLEX Search
0
