#	Name:			11-GR92754
#	Creating user name:	jeff
#	Creation time:		Thu Dec  4 18:13:24 2003

#	Modifying user name:	jeff
#	Modification time:	Thu Dec  4 18:13:24 2003

@<TRIPOS>MOLECULE
11-GR92754
   42    43     1     0     1
SMALL
USER_CHARGES
****
From 3DB ct
@<TRIPOS>ATOM
      1 N          10.162000    2.640000   12.883000 N.ar      1 <1>        -0.689100 
      2 C          10.760000    1.984000   11.893000 C.ar      1 <1>         0.810900 
      3 N          12.030000    2.154000   11.540000 N.ar      1 <1>        -0.666500 
      4 C          12.750000    3.038000   12.226000 C.ar      1 <1>         0.506400 
      5 C          12.245000    3.792000   13.284000 C.ar      1 <1>        -0.313900 
      6 C          10.902000    3.539000   13.556000 C.ar      1 <1>         0.690200 
      7 N          10.260000    4.171000   14.614000 N.pl3     1 <1>        -0.766700 
      8 H          10.589000    5.096000   14.877000 H         1 <1>         0.357600 
      9 H           9.273000    3.977000   14.737000 H         1 <1>         0.359500 
     10 N          13.013000    4.692000   13.971000 N.ar      1 <1>        -0.254400 
     11 C          14.305000    4.838000   13.583000 C.ar      1 <1>         0.161300 
     12 C          14.809000    4.097000   12.514000 C.ar      1 <1>         0.290900 
     13 N          14.026000    3.191000   11.858000 N.ar      1 <1>        -0.372200 
     14 C          16.250000    4.172000   12.058000 C.3       1 <1>        -0.480700 
     15 H          16.753000    3.280000   12.452000 H         1 <1>         0.139500 
     16 H          16.764000    5.033000   12.496000 H         1 <1>         0.132800 
     17 C          16.429000    4.231000   10.526000 C.3       1 <1>         0.358800 
     18 H          15.898000    3.392000   10.059000 H         1 <1>        -0.007900 
     19 C          17.912000    4.093000   10.170000 C.3       1 <1>        -0.267500 
     20 H          18.055000    4.109000    9.085000 H         1 <1>         0.056100 
     21 H          18.315000    3.147000   10.546000 H         1 <1>         0.055600 
     22 H          18.502000    4.909000   10.601000 H         1 <1>         0.062900 
     23 C          15.877000    5.532000    9.937000 C.3       1 <1>        -0.290400 
     24 H          16.016000    5.554000    8.851000 H         1 <1>         0.062600 
     25 H          16.385000    6.406000   10.358000 H         1 <1>         0.074000 
     26 H          14.805000    5.635000   10.133000 H         1 <1>         0.063100 
     27 C          15.113000    5.837000   14.373000 C.3       1 <1>        -0.335100 
     28 H          15.546000    5.335000   15.246000 H         1 <1>         0.091200 
     29 H          14.430000    6.591000   14.788000 H         1 <1>         0.101600 
     30 C          16.208000    6.541000   13.548000 C.3       1 <1>         0.335600 
     31 H          16.367000    6.002000   12.607000 H         1 <1>        -0.042500 
     32 C          17.529000    6.526000   14.320000 C.3       1 <1>        -0.227700 
     33 H          18.326000    7.001000   13.739000 H         1 <1>         0.046900 
     34 H          17.842000    5.499000   14.535000 H         1 <1>         0.039600 
     35 H          17.439000    7.060000   15.273000 H         1 <1>         0.060800 
     36 C          15.830000    7.984000   13.201000 C.3       1 <1>        -0.289300 
     37 H          16.642000    8.476000   12.655000 H         1 <1>         0.060100 
     38 H          15.627000    8.570000   14.104000 H         1 <1>         0.073000 
     39 H          14.941000    8.019000   12.564000 H         1 <1>         0.066700 
     40 N          10.023000    1.079000   11.197000 N.pl3     1 <1>        -0.802000 
     41 H          10.445000    0.562000   10.438000 H         1 <1>         0.377700 
     42 H           9.056000    0.927000   11.441000 H         1 <1>         0.370700 
@<TRIPOS>BOND
     1    1    2 ar   
     2    2    3 ar   
     3    3    4 ar   
     4    4    5 ar   
     5    5    6 ar   
     6    6    1 ar   
     7    6    7 1    
     8    7    8 1    
     9    7    9 1    
    10    5   10 ar   
    11   10   11 ar   
    12   11   12 ar   
    13   12   13 ar   
    14   13    4 ar   
    15   12   14 1    
    16   14   15 1    
    17   14   16 1    
    18   14   17 1    
    19   17   18 1    
    20   17   19 1    
    21   19   20 1    
    22   19   21 1    
    23   19   22 1    
    24   17   23 1    
    25   23   24 1    
    26   23   25 1    
    27   23   26 1    
    28   11   27 1    
    29   27   28 1    
    30   27   29 1    
    31   27   30 1    
    32   30   31 1    
    33   30   32 1    
    34   32   33 1    
    35   32   34 1    
    36   32   35 1    
    37   30   36 1    
    38   36   37 1    
    39   36   38 1    
    40   36   39 1    
    41    2   40 1    
    42   40   41 1    
    43   40   42 1    
@<TRIPOS>SUBSTRUCTURE
     1 ****        1 TEMP              0 ****  ****    0 ROOT 
@<TRIPOS>SET
UNITY_3DHIT     STATIC     ATOMS    <user>   **** Atoms matching 3D or FLEX Search
0
