#	Name:			12-4a
#	Creating user name:	jeff
#	Creation time:		Thu Dec  4 18:13:24 2003

#	Modifying user name:	jeff
#	Modification time:	Thu Dec  4 18:13:24 2003

@<TRIPOS>MOLECULE
12-4a
   45    49     1     0     1
SMALL
USER_CHARGES
****
From 3DB ct
@<TRIPOS>ATOM
      1 C          10.699000    2.119000   11.823000 C.ar      1 <1>         0.758700 
      2 N          11.982000    2.188000   11.366000 N.ar      1 <1>        -0.669800 
      3 C          12.927000    2.933000   12.019000 C.ar      1 <1>         0.616400 
      4 C          12.573000    3.693000   13.194000 C.ar      1 <1>        -0.326900 
      5 C          11.223000    3.606000   13.645000 C.ar      1 <1>         0.642300 
      6 N          10.334000    2.828000   12.936000 N.ar      1 <1>        -0.658800 
      7 N          10.814000    4.277000   14.743000 N.pl3     1 <1>        -0.732900 
      8 H          11.396000    4.788000   15.200000 H         1 <1>         0.350000 
      9 H           9.959000    4.214000   15.017000 H         1 <1>         0.350000 
     10 N          13.552000    4.439000   13.855000 N.ar      1 <1>        -0.244100 
     11 C          14.841000    4.468000   13.379000 C.ar      1 <1>         0.219400 
     12 C          15.168000    3.713000   12.196000 C.ar      1 <1>         0.149600 
     13 H          16.055000    3.723000   11.857000 H         1 <1>         0.111800 
     14 N          14.211000    2.980000   11.553000 N.ar      1 <1>        -0.449500 
     15 C          15.988000    5.264000   14.113000 C.3       1 <1>        -0.296500 
     16 H          15.607000    5.964000   14.630000 H         1 <1>         0.131800 
     17 H          16.444000    4.669000   14.697000 H         1 <1>         0.126600 
     18 N          17.027000    5.921000   13.170000 N.pl3     1 <1>        -0.191300 
     19 C          18.240000    6.185000   13.947000 C.ar      1 <1>         0.172900 
     20 C          18.243000    5.907000   15.371000 C.ar      1 <1>        -0.200500 
     21 H          17.429000    5.700000   15.816000 H         1 <1>         0.127700 
     22 C          19.448000    5.939000   16.111000 C.ar      1 <1>        -0.078900 
     23 H          19.431000    5.804000   17.051000 H         1 <1>         0.106400 
     24 C          20.668000    6.172000   15.444000 C.ar      1 <1>        -0.125000 
     25 H          21.484000    6.165000   15.930000 H         1 <1>         0.108200 
     26 C          20.691000    6.418000   14.053000 C.ar      1 <1>        -0.139300 
     27 H          21.520000    6.538000   13.605000 H         1 <1>         0.123700 
     28 C          19.504000    6.497000   13.274000 C.ar      1 <1>         0.034100 
     29 C          19.695000    6.730000   11.765000 C.2       1 <1>        -0.127500 
     30 H          20.545000    6.588000   11.366000 H         1 <1>         0.102700 
     31 C          18.777000    7.132000   10.854000 C.2       1 <1>        -0.194300 
     32 H          19.030000    7.248000    9.945000 H         1 <1>         0.116500 
     33 C          17.299000    7.447000   11.098000 C.ar      1 <1>         0.122400 
     34 C          16.644000    8.199000   10.057000 C.ar      1 <1>        -0.162200 
     35 H          17.132000    8.472000    9.289000 H         1 <1>         0.124400 
     36 C          15.268000    8.550000   10.143000 C.ar      1 <1>        -0.101400 
     37 H          14.864000    9.063000    9.452000 H         1 <1>         0.105400 
     38 C          14.493000    8.138000   11.262000 C.ar      1 <1>        -0.126200 
     39 H          13.586000    8.411000   11.338000 H         1 <1>         0.113500 
     40 C          15.078000    7.322000   12.258000 C.ar      1 <1>        -0.072500 
     41 H          14.550000    7.003000   12.981000 H         1 <1>         0.089700 
     42 C          16.477000    6.947000   12.215000 C.ar      1 <1>         0.024600 
     43 N           9.803000    1.347000   11.173000 N.pl3     1 <1>        -0.761300 
     44 H          10.055000    0.882000   10.445000 H         1 <1>         0.370000 
     45 H           8.955000    1.296000   11.469000 H         1 <1>         0.360100 
@<TRIPOS>BOND
     1    1    2 ar   
     2    2    3 ar   
     3    3    4 ar   
     4    4    5 ar   
     5    5    6 ar   
     6    6    1 ar   
     7    5    7 1    
     8    7    8 1    
     9    7    9 1    
    10    4   10 ar   
    11   10   11 ar   
    12   11   12 ar   
    13   12   13 1    
    14   12   14 ar   
    15   14    3 ar   
    16   11   15 1    
    17   15   16 1    
    18   15   17 1    
    19   15   18 1    
    20   18   19 1    
    21   19   20 ar   
    22   20   21 1    
    23   20   22 ar   
    24   22   23 1    
    25   22   24 ar   
    26   24   25 1    
    27   24   26 ar   
    28   26   27 1    
    29   26   28 ar   
    30   28   19 ar   
    31   28   29 1    
    32   29   30 1    
    33   29   31 2    
    34   31   32 1    
    35   31   33 1    
    36   33   34 ar   
    37   34   35 1    
    38   34   36 ar   
    39   36   37 1    
    40   36   38 ar   
    41   38   39 1    
    42   38   40 ar   
    43   40   41 1    
    44   40   42 ar   
    45   42   33 ar   
    46   42   18 1    
    47    1   43 1    
    48   43   44 1    
    49   43   45 1    
@<TRIPOS>SUBSTRUCTURE
     1 ****        1 TEMP              0 ****  ****    0 ROOT 
@<TRIPOS>SET
UNITY_3DHIT     STATIC     ATOMS    <user>   **** Atoms matching 3D or FLEX Search
0
@<TRIPOS>UNITY_BOND_ATTR
33 1
S N
