#	Name:			12-4e
#	Creating user name:	jeff
#	Creation time:		Thu Dec  4 18:13:25 2003

#	Modifying user name:	jeff
#	Modification time:	Thu Dec  4 18:13:25 2003

@<TRIPOS>MOLECULE
12-4e
   42    46     1     0     1
SMALL
USER_CHARGES
****
From 3DB ct
@<TRIPOS>ATOM
      1 N          10.401000    2.843000   12.916000 N.ar      1 <1>        -0.653200 
      2 C          10.829000    2.204000   11.830000 C.ar      1 <1>         0.748100 
      3 N          12.076000    2.251000   11.373000 N.ar      1 <1>        -0.663500 
      4 C          12.954000    2.986000   12.047000 C.ar      1 <1>         0.631600 
      5 C          12.637000    3.708000   13.204000 C.ar      1 <1>        -0.332700 
      6 C          11.307000    3.572000   13.593000 C.ar      1 <1>         0.642100 
      7 N          10.816000    4.260000   14.695000 N.pl3     1 <1>        -0.727200 
      8 H          11.472000    4.482000   15.439000 H         1 <1>         0.348100 
      9 H           9.851000    4.090000   14.956000 H         1 <1>         0.346800 
     10 N          13.565000    4.457000   13.882000 N.ar      1 <1>        -0.243200 
     11 C          14.826000    4.482000   13.382000 C.ar      1 <1>         0.157300 
     12 C          15.123000    3.758000   12.239000 C.ar      1 <1>         0.175100 
     13 H          16.127000    3.750000   11.820000 H         1 <1>         0.112500 
     14 N          14.203000    3.016000   11.568000 N.ar      1 <1>        -0.463200 
     15 C          15.937000    5.262000   14.076000 C.3       1 <1>        -0.100500 
     16 H          16.476000    4.587000   14.754000 H         1 <1>         0.081500 
     17 H          15.477000    5.991000   14.757000 H         1 <1>         0.108800 
     18 N          16.899000    5.934000   13.158000 N.pl3     1 <1>        -0.446500 
     19 C          16.359000    6.806000   12.172000 C.ar      1 <1>         0.264900 
     20 C          17.089000    7.151000   11.015000 C.ar      1 <1>        -0.183100 
     21 C          16.546000    8.018000   10.047000 C.ar      1 <1>        -0.040500 
     22 H          17.112000    8.272000    9.151000 H         1 <1>         0.129300 
     23 C          15.279000    8.568000   10.210000 C.ar      1 <1>        -0.171000 
     24 H          14.870000    9.238000    9.457000 H         1 <1>         0.118000 
     25 C          14.547000    8.256000   11.344000 C.ar      1 <1>        -0.062000 
     26 H          13.558000    8.686000   11.490000 H         1 <1>         0.107100 
     27 C          15.081000    7.392000   12.308000 C.ar      1 <1>        -0.154200 
     28 H          14.463000    7.215000   13.184000 H         1 <1>         0.103200 
     29 S          18.705000    6.499000   10.654000 S.3       1 <1>         0.042200 
     30 C          19.182000    5.799000   12.220000 C.ar      1 <1>        -0.211400 
     31 C          18.270000    5.571000   13.272000 C.ar      1 <1>         0.402500 
     32 C          18.799000    4.995000   14.448000 C.ar      1 <1>        -0.306800 
     33 H          18.180000    4.823000   15.325000 H         1 <1>         0.151000 
     34 C          20.149000    4.644000   14.569000 C.ar      1 <1>        -0.017500 
     35 H          20.514000    4.204000   15.496000 H         1 <1>         0.101300 
     36 C          21.020000    4.866000   13.515000 C.ar      1 <1>        -0.175000 
     37 H          22.071000    4.596000   13.602000 H         1 <1>         0.115600 
     38 C          20.538000    5.442000   12.345000 C.ar      1 <1>        -0.043400 
     39 H          21.234000    5.613000   11.525000 H         1 <1>         0.134000 
     40 N           9.928000    1.454000   11.140000 N.pl3     1 <1>        -0.754100 
     41 H          10.217000    0.957000   10.311000 H         1 <1>         0.369000 
     42 H           8.972000    1.399000   11.460000 H         1 <1>         0.358900 
@<TRIPOS>BOND
     1    1    2 ar   
     2    2    3 ar   
     3    3    4 ar   
     4    4    5 ar   
     5    5    6 ar   
     6    6    1 ar   
     7    6    7 1    
     8    7    8 1    
     9    7    9 1    
    10    5   10 ar   
    11   10   11 ar   
    12   11   12 ar   
    13   12   13 1    
    14   12   14 ar   
    15   14    4 ar   
    16   11   15 1    
    17   15   16 1    
    18   15   17 1    
    19   15   18 1    
    20   18   19 1    
    21   19   20 ar   
    22   20   21 ar   
    23   21   22 1    
    24   21   23 ar   
    25   23   24 1    
    26   23   25 ar   
    27   25   26 1    
    28   25   27 ar   
    29   27   28 1    
    30   27   19 ar   
    31   20   29 1    
    32   29   30 1    
    33   30   31 ar   
    34   31   18 1    
    35   31   32 ar   
    36   32   33 1    
    37   32   34 ar   
    38   34   35 1    
    39   34   36 ar   
    40   36   37 1    
    41   36   38 ar   
    42   38   39 1    
    43   38   30 ar   
    44    2   40 1    
    45   40   41 1    
    46   40   42 1    
@<TRIPOS>SUBSTRUCTURE
     1 ****        1 TEMP              0 ****  ****    0 ROOT 
@<TRIPOS>SET
UNITY_3DHIT     STATIC     ATOMS    <user>   **** Atoms matching 3D or FLEX Search
0
