#	Name:			12-4b
#	Creating user name:	jeff
#	Creation time:		Thu Dec  4 18:13:24 2003

#	Modifying user name:	jeff
#	Modification time:	Thu Dec  4 18:13:24 2003

@<TRIPOS>MOLECULE
12-4b
   47    51     1     0     1
SMALL
USER_CHARGES
****
From 3DB ct
@<TRIPOS>ATOM
      1 N          10.418000    2.846000   12.881000 N.ar      1 <1>        -0.663900 
      2 C          10.858000    2.229000   11.787000 C.ar      1 <1>         0.769900 
      3 N          12.108000    2.288000   11.342000 N.ar      1 <1>        -0.671800 
      4 C          12.978000    3.014000   12.038000 C.ar      1 <1>         0.630200 
      5 C          12.648000    3.710000   13.207000 C.ar      1 <1>        -0.363700 
      6 C          11.314000    3.565000   13.579000 C.ar      1 <1>         0.655100 
      7 N          10.811000    4.234000   14.688000 N.pl3     1 <1>        -0.729000 
      8 H          11.460000    4.452000   15.438000 H         1 <1>         0.346200 
      9 H           9.845000    4.059000   14.938000 H         1 <1>         0.348200 
     10 N          13.566000    4.449000   13.908000 N.ar      1 <1>        -0.205600 
     11 C          14.835000    4.482000   13.427000 C.ar      1 <1>         0.156700 
     12 C          15.141000    3.795000   12.264000 C.ar      1 <1>         0.199700 
     13 H          16.144000    3.810000   11.845000 H         1 <1>         0.091500 
     14 N          14.230000    3.062000   11.569000 N.ar      1 <1>        -0.461800 
     15 C          15.928000    5.290000   14.118000 C.3       1 <1>        -0.235400 
     16 H          16.456000    4.627000   14.817000 H         1 <1>         0.112800 
     17 H          15.440000    6.036000   14.763000 H         1 <1>         0.127700 
     18 N          16.906000    5.982000   13.220000 N.pl3     1 <1>        -0.268200 
     19 C          16.365000    6.777000   12.171000 C.ar      1 <1>         0.146800 
     20 C          16.955000    6.933000   10.896000 C.ar      1 <1>        -0.065100 
     21 C          16.377000    7.818000    9.949000 C.ar      1 <1>        -0.124900 
     22 H          16.841000    7.950000    8.971000 H         1 <1>         0.106200 
     23 C          15.213000    8.525000   10.221000 C.ar      1 <1>        -0.115300 
     24 H          14.785000    9.191000    9.475000 H         1 <1>         0.107800 
     25 C          14.607000    8.370000   11.453000 C.ar      1 <1>        -0.133000 
     26 H          13.699000    8.920000   11.691000 H         1 <1>         0.117900 
     27 C          15.179000    7.519000   12.405000 C.ar      1 <1>        -0.086200 
     28 H          14.675000    7.480000   13.367000 H         1 <1>         0.076700 
     29 C          18.194000    6.211000   10.410000 C.3       1 <1>         0.049500 
     30 H          19.067000    6.851000   10.597000 H         1 <1>         0.016000 
     31 H          18.119000    6.092000    9.320000 H         1 <1>         0.018600 
     32 C          18.394000    4.816000   10.980000 C.3       1 <1>        -0.165600 
     33 H          17.464000    4.235000   10.997000 H         1 <1>         0.072000 
     34 H          19.088000    4.268000   10.330000 H         1 <1>         0.050200 
     35 C          18.970000    4.918000   12.364000 C.ar      1 <1>         0.044400 
     36 C          18.234000    5.511000   13.401000 C.ar      1 <1>         0.154000 
     37 C          18.850000    5.593000   14.666000 C.ar      1 <1>        -0.184800 
     38 H          18.342000    6.075000   15.498000 H         1 <1>         0.127800 
     39 C          20.136000    5.095000   14.899000 C.ar      1 <1>        -0.092400 
     40 H          20.580000    5.179000   15.888000 H         1 <1>         0.108200 
     41 C          20.842000    4.497000   13.865000 C.ar      1 <1>        -0.112200 
     42 H          21.842000    4.106000   14.038000 H         1 <1>         0.105900 
     43 C          20.264000    4.411000   12.603000 C.ar      1 <1>        -0.150400 
     44 H          20.831000    3.948000   11.796000 H         1 <1>         0.124700 
     45 N           9.966000    1.490000   11.075000 N.pl3     1 <1>        -0.771200 
     46 H          10.264000    1.009000   10.239000 H         1 <1>         0.372700 
     47 H           9.007000    1.425000   11.387000 H         1 <1>         0.363000 
@<TRIPOS>BOND
     1    1    2 ar   
     2    2    3 ar   
     3    3    4 ar   
     4    4    5 ar   
     5    5    6 ar   
     6    6    1 ar   
     7    6    7 1    
     8    7    8 1    
     9    7    9 1    
    10    5   10 ar   
    11   10   11 ar   
    12   11   12 ar   
    13   12   13 1    
    14   12   14 ar   
    15   14    4 ar   
    16   11   15 1    
    17   15   16 1    
    18   15   17 1    
    19   15   18 1    
    20   18   19 1    
    21   19   20 ar   
    22   20   21 ar   
    23   21   22 1    
    24   21   23 ar   
    25   23   24 1    
    26   23   25 ar   
    27   25   26 1    
    28   25   27 ar   
    29   27   28 1    
    30   27   19 ar   
    31   20   29 1    
    32   29   30 1    
    33   29   31 1    
    34   29   32 1    
    35   32   33 1    
    36   32   34 1    
    37   32   35 1    
    38   35   36 ar   
    39   36   18 1    
    40   36   37 ar   
    41   37   38 1    
    42   37   39 ar   
    43   39   40 1    
    44   39   41 ar   
    45   41   42 1    
    46   41   43 ar   
    47   43   44 1    
    48   43   35 ar   
    49    2   45 1    
    50   45   46 1    
    51   45   47 1    
@<TRIPOS>SUBSTRUCTURE
     1 ****        1 TEMP              0 ****  ****    0 ROOT 
@<TRIPOS>SET
UNITY_3DHIT     STATIC     ATOMS    <user>   **** Atoms matching 3D or FLEX Search
0
