#	Name:			12-4g
#	Creating user name:	jeff
#	Creation time:		Thu Dec  4 18:13:25 2003

#	Modifying user name:	jeff
#	Modification time:	Thu Dec  4 18:13:25 2003

@<TRIPOS>MOLECULE
12-4g
   43    46     1     0     1
SMALL
USER_CHARGES
****
From 3DB ct
@<TRIPOS>ATOM
      1 N          10.387000    2.849000   12.934000 N.ar      1 <1>        -0.647900 
      2 C          10.812000    2.191000   11.858000 C.ar      1 <1>         0.737700 
      3 N          12.057000    2.227000   11.398000 N.ar      1 <1>        -0.659300 
      4 C          12.939000    2.968000   12.060000 C.ar      1 <1>         0.607100 
      5 C          12.627000    3.708000   13.208000 C.ar      1 <1>        -0.290800 
      6 C          11.290000    3.604000   13.585000 C.ar      1 <1>         0.631500 
      7 N          10.823000    4.241000   14.729000 N.pl3     1 <1>        -0.740300 
      8 H          11.286000    5.100000   15.008000 H         1 <1>         0.353000 
      9 H           9.832000    4.160000   14.928000 H         1 <1>         0.353200 
     10 N          13.559000    4.461000   13.874000 N.ar      1 <1>        -0.253300 
     11 C          14.818000    4.478000   13.364000 C.ar      1 <1>         0.090800 
     12 C          15.110000    3.738000   12.232000 C.ar      1 <1>         0.203300 
     13 H          16.108000    3.726000   11.802000 H         1 <1>         0.090000 
     14 N          14.187000    2.983000   11.579000 N.ar      1 <1>        -0.459500 
     15 C          15.894000    5.304000   14.048000 C.3       1 <1>         0.013300 
     16 H          16.413000    4.707000   14.807000 H         1 <1>         0.067700 
     17 H          15.389000    6.080000   14.638000 H         1 <1>         0.082000 
     18 N          16.874000    5.879000   13.087000 N.pl3     1 <1>        -0.575100 
     19 C          16.383000    6.802000   12.131000 C.ar      1 <1>         0.424000 
     20 C          15.049000    7.244000   12.197000 C.ar      1 <1>        -0.262900 
     21 H          14.388000    6.871000   12.979000 H         1 <1>         0.134200 
     22 C          14.525000    8.141000   11.261000 C.ar      1 <1>        -0.050200 
     23 H          13.487000    8.460000   11.337000 H         1 <1>         0.104700 
     24 C          15.329000    8.621000   10.234000 C.ar      1 <1>        -0.187900 
     25 H          14.926000    9.321000    9.505000 H         1 <1>         0.112600 
     26 C          16.654000    8.206000   10.147000 C.ar      1 <1>        -0.023900 
     27 H          17.291000    8.586000    9.350000 H         1 <1>         0.101500 
     28 C          17.174000    7.308000   11.088000 C.ar      1 <1>        -0.281500 
     29 H          18.225000    7.042000   10.995000 H         1 <1>         0.113800 
     30 C          18.222000    5.460000   13.211000 C.ar      1 <1>         0.392700 
     31 C          18.727000    4.862000   14.376000 C.ar      1 <1>        -0.278600 
     32 H          18.096000    4.722000   15.252000 H         1 <1>         0.149100 
     33 C          20.065000    4.460000   14.472000 C.ar      1 <1>        -0.052100 
     34 H          20.428000    4.005000   15.392000 H         1 <1>         0.102900 
     35 C          20.931000    4.650000   13.400000 C.ar      1 <1>        -0.143500 
     36 H          21.972000    4.342000   13.476000 H         1 <1>         0.110100 
     37 C          20.460000    5.243000   12.234000 C.ar      1 <1>        -0.074500 
     38 H          21.130000    5.397000   11.390000 H         1 <1>         0.107600 
     39 C          19.122000    5.643000   12.144000 C.ar      1 <1>        -0.185900 
     40 H          18.782000    6.090000   11.211000 H         1 <1>         0.108100 
     41 N           9.910000    1.427000   11.185000 N.pl3     1 <1>        -0.746300 
     42 H          10.198000    0.911000   10.366000 H         1 <1>         0.366700 
     43 H           8.955000    1.378000   11.509000 H         1 <1>         0.355600 
@<TRIPOS>BOND
     1    1    2 ar   
     2    2    3 ar   
     3    3    4 ar   
     4    4    5 ar   
     5    5    6 ar   
     6    6    1 ar   
     7    6    7 1    
     8    7    8 1    
     9    7    9 1    
    10    5   10 ar   
    11   10   11 ar   
    12   11   12 ar   
    13   12   13 1    
    14   12   14 ar   
    15   14    4 ar   
    16   11   15 1    
    17   15   16 1    
    18   15   17 1    
    19   15   18 1    
    20   18   19 1    
    21   19   20 ar   
    22   20   21 1    
    23   20   22 ar   
    24   22   23 1    
    25   22   24 ar   
    26   24   25 1    
    27   24   26 ar   
    28   26   27 1    
    29   26   28 ar   
    30   28   29 1    
    31   28   19 ar   
    32   18   30 1    
    33   30   31 ar   
    34   31   32 1    
    35   31   33 ar   
    36   33   34 1    
    37   33   35 ar   
    38   35   36 1    
    39   35   37 ar   
    40   37   38 1    
    41   37   39 ar   
    42   39   40 1    
    43   39   30 ar   
    44    2   41 1    
    45   41   42 1    
    46   41   43 1    
@<TRIPOS>SUBSTRUCTURE
     1 ****        1 TEMP              0 ****  ****    0 ROOT 
@<TRIPOS>SET
UNITY_3DHIT     STATIC     ATOMS    <user>   **** Atoms matching 3D or FLEX Search
0
