#	Name:			12-4c
#	Creating user name:	jeff
#	Creation time:		Thu Dec  4 18:13:24 2003

#	Modifying user name:	jeff
#	Modification time:	Thu Dec  4 18:13:25 2003

@<TRIPOS>MOLECULE
12-4c
   44    48     1     0     1
SMALL
USER_CHARGES
****
From 3DB ct
@<TRIPOS>ATOM
      1 N          10.392000    2.845000   12.942000 N.ar      1 <1>        -0.654400 
      2 C          10.807000    2.196000   11.858000 C.ar      1 <1>         0.751900 
      3 N          12.052000    2.227000   11.393000 N.ar      1 <1>        -0.667600 
      4 C          12.940000    2.961000   12.056000 C.ar      1 <1>         0.636700 
      5 C          12.635000    3.694000   13.209000 C.ar      1 <1>        -0.342600 
      6 C          11.307000    3.572000   13.608000 C.ar      1 <1>         0.643200 
      7 N          10.828000    4.272000   14.708000 N.pl3     1 <1>        -0.728300 
      8 H          11.492000    4.501000   15.443000 H         1 <1>         0.348100 
      9 H           9.865000    4.113000   14.978000 H         1 <1>         0.348200 
     10 N          13.572000    4.442000   13.874000 N.ar      1 <1>        -0.227600 
     11 C          14.828000    4.466000   13.361000 C.ar      1 <1>         0.148000 
     12 C          15.115000    3.723000   12.228000 C.ar      1 <1>         0.171400 
     13 H          16.115000    3.700000   11.803000 H         1 <1>         0.116400 
     14 N          14.187000    2.977000   11.570000 N.ar      1 <1>        -0.465300 
     15 C          15.941000    5.242000   14.050000 C.3       1 <1>        -0.135300 
     16 H          16.506000    4.566000   14.707000 H         1 <1>         0.088000 
     17 H          15.487000    5.949000   14.754000 H         1 <1>         0.113000 
     18 N          16.876000    5.927000   13.118000 N.pl3     1 <1>        -0.263400 
     19 C          16.335000    6.821000   12.162000 C.ar      1 <1>         0.063100 
     20 C          17.156000    7.284000   11.113000 C.ar      1 <1>         0.066700 
     21 C          16.656000    8.169000   10.139000 C.ar      1 <1>        -0.156400 
     22 H          17.298000    8.507000    9.325000 H         1 <1>         0.127200 
     23 C          15.343000    8.620000   10.199000 C.ar      1 <1>        -0.117100 
     24 H          14.963000    9.306000    9.445000 H         1 <1>         0.108700 
     25 C          14.523000    8.189000   11.232000 C.ar      1 <1>        -0.129500 
     26 H          13.495000    8.541000   11.294000 H         1 <1>         0.117400 
     27 C          15.014000    7.303000   12.200000 C.ar      1 <1>        -0.071800 
     28 H          14.323000    7.020000   12.989000 H         1 <1>         0.081300 
     29 C          18.580000    6.806000   10.979000 C.3       1 <1>        -0.225200 
     30 H          19.221000    7.682000   10.812000 H         1 <1>         0.078800 
     31 H          18.644000    6.155000   10.098000 H         1 <1>         0.081300 
     32 C          19.117000    6.051000   12.168000 C.ar      1 <1>         0.016800 
     33 C          18.256000    5.618000   13.198000 C.ar      1 <1>         0.210000 
     34 C          18.842000    4.918000   14.268000 C.ar      1 <1>        -0.251900 
     35 H          18.257000    4.590000   15.123000 H         1 <1>         0.137900 
     36 C          20.213000    4.632000   14.303000 C.ar      1 <1>        -0.057200 
     37 H          20.631000    4.088000   15.149000 H         1 <1>         0.104800 
     38 C          21.039000    5.047000   13.268000 C.ar      1 <1>        -0.145800 
     39 H          22.104000    4.824000   13.292000 H         1 <1>         0.110600 
     40 C          20.494000    5.755000   12.204000 C.ar      1 <1>        -0.125700 
     41 H          21.145000    6.082000   11.393000 H         1 <1>         0.123800 
     42 N           9.895000    1.450000   11.179000 N.pl3     1 <1>        -0.757500 
     43 H          10.174000    0.942000   10.352000 H         1 <1>         0.369800 
     44 H           8.941000    1.406000   11.506000 H         1 <1>         0.359500 
@<TRIPOS>BOND
     1    1    2 ar   
     2    2    3 ar   
     3    3    4 ar   
     4    4    5 ar   
     5    5    6 ar   
     6    6    1 ar   
     7    6    7 1    
     8    7    8 1    
     9    7    9 1    
    10    5   10 ar   
    11   10   11 ar   
    12   11   12 ar   
    13   12   13 1    
    14   12   14 ar   
    15   14    4 ar   
    16   11   15 1    
    17   15   16 1    
    18   15   17 1    
    19   15   18 1    
    20   18   19 1    
    21   19   20 ar   
    22   20   21 ar   
    23   21   22 1    
    24   21   23 ar   
    25   23   24 1    
    26   23   25 ar   
    27   25   26 1    
    28   25   27 ar   
    29   27   28 1    
    30   27   19 ar   
    31   20   29 1    
    32   29   30 1    
    33   29   31 1    
    34   29   32 1    
    35   32   33 ar   
    36   33   18 1    
    37   33   34 ar   
    38   34   35 1    
    39   34   36 ar   
    40   36   37 1    
    41   36   38 ar   
    42   38   39 1    
    43   38   40 ar   
    44   40   41 1    
    45   40   32 ar   
    46    2   42 1    
    47   42   43 1    
    48   42   44 1    
@<TRIPOS>SUBSTRUCTURE
     1 ****        1 TEMP              0 ****  ****    0 ROOT 
@<TRIPOS>SET
UNITY_3DHIT     STATIC     ATOMS    <user>   **** Atoms matching 3D or FLEX Search
0
