#	Name:			12-4d
#	Creating user name:	jeff
#	Creation time:		Thu Dec  4 18:13:25 2003

#	Modifying user name:	jeff
#	Modification time:	Thu Dec  4 18:13:25 2003

@<TRIPOS>MOLECULE
12-4d
   42    46     1     0     1
SMALL
USER_CHARGES
****
From 3DB ct
@<TRIPOS>ATOM
      1 N          10.383000    2.846000   12.967000 N.ar      1 <1>        -0.661900 
      2 C          10.788000    2.183000   11.887000 C.ar      1 <1>         0.766400 
      3 N          12.030000    2.204000   11.413000 N.ar      1 <1>        -0.670000 
      4 C          12.926000    2.940000   12.063000 C.ar      1 <1>         0.623500 
      5 C          12.633000    3.684000   13.212000 C.ar      1 <1>        -0.350300 
      6 C          11.306000    3.574000   13.620000 C.ar      1 <1>         0.653700 
      7 N          10.839000    4.290000   14.715000 N.pl3     1 <1>        -0.731300 
      8 H          11.508000    4.524000   15.443000 H         1 <1>         0.346000 
      9 H           9.876000    4.140000   14.992000 H         1 <1>         0.348900 
     10 N          13.578000    4.432000   13.865000 N.ar      1 <1>        -0.213100 
     11 C          14.829000    4.447000   13.341000 C.ar      1 <1>         0.174300 
     12 C          15.106000    3.694000   12.213000 C.ar      1 <1>         0.166100 
     13 H          16.103000    3.663000   11.782000 H         1 <1>         0.105300 
     14 N          14.169000    2.947000   11.568000 N.ar      1 <1>        -0.451600 
     15 C          15.943000    5.221000   14.028000 C.3       1 <1>        -0.309700 
     16 H          16.524000    4.548000   14.671000 H         1 <1>         0.148600 
     17 H          15.488000    5.917000   14.744000 H         1 <1>         0.134100 
     18 N          16.847000    5.916000   13.084000 N.pl3     1 <1>        -0.052400 
     19 C          16.318000    6.829000   12.148000 C.ar      1 <1>        -0.085100 
     20 C          17.194000    7.403000   11.206000 C.ar      1 <1>         0.263400 
     21 C          16.747000    8.311000   10.239000 C.ar      1 <1>        -0.207500 
     22 H          17.447000    8.735000    9.521000 H         1 <1>         0.148600 
     23 C          15.406000    8.674000   10.197000 C.ar      1 <1>        -0.073800 
     24 H          15.053000    9.381000    9.449000 H         1 <1>         0.109100 
     25 C          14.520000    8.130000   11.121000 C.ar      1 <1>        -0.174800 
     26 H          13.469000    8.414000   11.097000 H         1 <1>         0.125000 
     27 C          14.972000    7.219000   12.086000 C.ar      1 <1>        -0.028400 
     28 H          14.230000    6.839000   12.783000 H         1 <1>         0.086100 
     29 O          18.541000    7.111000   11.166000 O.3       1 <1>        -0.328200 
     30 C          19.049000    6.287000   12.149000 C.ar      1 <1>         0.233700 
     31 C          18.236000    5.679000   13.127000 C.ar      1 <1>        -0.014200 
     32 C          18.883000    4.883000   14.085000 C.ar      1 <1>        -0.091500 
     33 H          18.340000    4.406000   14.895000 H         1 <1>         0.090800 
     34 C          20.271000    4.687000   14.054000 C.ar      1 <1>        -0.149700 
     35 H          20.744000    4.065000   14.812000 H         1 <1>         0.121600 
     36 C          21.045000    5.287000   13.066000 C.ar      1 <1>        -0.085300 
     37 H          22.122000    5.133000   13.045000 H         1 <1>         0.110400 
     38 C          20.434000    6.091000   12.112000 C.ar      1 <1>        -0.194300 
     39 H          21.034000    6.570000   11.341000 H         1 <1>         0.149100 
     40 N           9.868000    1.434000   11.222000 N.pl3     1 <1>        -0.765800 
     41 H          10.139000    0.919000   10.397000 H         1 <1>         0.372000 
     42 H           8.916000    1.398000   11.556000 H         1 <1>         0.362100 
@<TRIPOS>BOND
     1    1    2 ar   
     2    2    3 ar   
     3    3    4 ar   
     4    4    5 ar   
     5    5    6 ar   
     6    6    1 ar   
     7    6    7 1    
     8    7    8 1    
     9    7    9 1    
    10    5   10 ar   
    11   10   11 ar   
    12   11   12 ar   
    13   12   13 1    
    14   12   14 ar   
    15   14    4 ar   
    16   11   15 1    
    17   15   16 1    
    18   15   17 1    
    19   15   18 1    
    20   18   19 1    
    21   19   20 ar   
    22   20   21 ar   
    23   21   22 1    
    24   21   23 ar   
    25   23   24 1    
    26   23   25 ar   
    27   25   26 1    
    28   25   27 ar   
    29   27   28 1    
    30   27   19 ar   
    31   20   29 1    
    32   29   30 1    
    33   30   31 ar   
    34   31   18 1    
    35   31   32 ar   
    36   32   33 1    
    37   32   34 ar   
    38   34   35 1    
    39   34   36 ar   
    40   36   37 1    
    41   36   38 ar   
    42   38   39 1    
    43   38   30 ar   
    44    2   40 1    
    45   40   41 1    
    46   40   42 1    
@<TRIPOS>SUBSTRUCTURE
     1 ****        1 TEMP              0 ****  ****    0 ROOT 
@<TRIPOS>SET
UNITY_3DHIT     STATIC     ATOMS    <user>   **** Atoms matching 3D or FLEX Search
0
