#	Name:			13-14
#	Creating user name:	jeff
#	Creation time:		Thu Dec  4 18:13:25 2003

#	Modifying user name:	jeff
#	Modification time:	Thu Dec  4 18:13:25 2003

@<TRIPOS>MOLECULE
13-14
   47    49     1     0     1
SMALL
USER_CHARGES
****
From 3DB ct
@<TRIPOS>ATOM
      1 N          10.153000    2.716000   12.837000 N.ar      1 <1>        -0.643800 
      2 C          10.757000    2.044000   11.864000 C.ar      1 <1>         0.759300 
      3 N          12.038000    2.188000   11.545000 N.ar      1 <1>        -0.623500 
      4 C          12.769000    3.063000   12.245000 C.ar      1 <1>         0.253600 
      5 C          12.263000    3.837000   13.294000 C.ar      1 <1>        -0.088900 
      6 C          10.892000    3.596000   13.539000 C.ar      1 <1>         0.595300 
      7 N          10.180000    4.253000   14.539000 N.pl3     1 <1>        -0.782900 
      8 H          10.539000    4.068000   15.475000 H         1 <1>         0.361700 
      9 H          10.149000    5.264000   14.412000 H         1 <1>         0.352100 
     10 C          13.164000    4.741000   13.960000 C.ar      1 <1>        -0.512400 
     11 C          14.526000    4.867000   13.589000 C.ar      1 <1>         0.649100 
     12 C          14.969000    4.072000   12.537000 C.ar      1 <1>        -0.312700 
     13 H          15.998000    4.114000   12.190000 H         1 <1>         0.162500 
     14 C          14.101000    3.192000   11.887000 C.ar      1 <1>        -0.063500 
     15 H          14.492000    2.588000   11.069000 H         1 <1>         0.120100 
     16 N          15.366000    5.743000   14.256000 N.pl3     1 <1>        -0.856900 
     17 H          15.306000    5.756000   15.274000 H         1 <1>         0.362900 
     18 C          16.391000    6.590000   13.671000 C.3       1 <1>         0.361700 
     19 H          17.264000    5.972000   13.430000 H         1 <1>        -0.002400 
     20 H          16.732000    7.333000   14.401000 H         1 <1>         0.014300 
     21 C          15.921000    7.246000   12.388000 C.ar      1 <1>        -0.057800 
     22 C          16.829000    7.567000   11.358000 C.ar      1 <1>        -0.346000 
     23 H          17.876000    7.318000   11.509000 H         1 <1>         0.166000 
     24 C          16.396000    8.177000   10.176000 C.ar      1 <1>         0.278500 
     25 C          15.034000    8.482000   10.032000 C.ar      1 <1>        -0.028000 
     26 C          14.138000    8.226000   11.075000 C.ar      1 <1>         0.158600 
     27 C          14.571000    7.591000   12.237000 C.ar      1 <1>        -0.125300 
     28 H          13.855000    7.369000   13.026000 H         1 <1>         0.129100 
     29 O          12.805000    8.525000   10.957000 O.3       1 <1>        -0.288500 
     30 C          12.560000    9.189000    9.712000 C.3       1 <1>         0.106600 
     31 H          11.497000    9.447000    9.676000 H         1 <1>         0.029000 
     32 H          12.778000    8.534000    8.862000 H         1 <1>         0.033300 
     33 H          13.138000   10.116000    9.638000 H         1 <1>         0.028100 
     34 O          14.587000    9.093000    8.884000 O.3       1 <1>        -0.211200 
     35 C          15.686000    9.305000    7.992000 C.3       1 <1>        -0.030300 
     36 H          15.299000    9.802000    7.098000 H         1 <1>         0.061700 
     37 H          16.137000    8.355000    7.684000 H         1 <1>         0.049700 
     38 H          16.443000    9.957000    8.442000 H         1 <1>         0.057000 
     39 O          17.206000    8.511000    9.120000 O.3       1 <1>        -0.248500 
     40 C          18.593000    8.208000    9.246000 C.3       1 <1>        -0.014600 
     41 H          19.082000    8.496000    8.311000 H         1 <1>         0.074500 
     42 H          18.751000    7.133000    9.386000 H         1 <1>         0.041900 
     43 H          19.051000    8.787000   10.054000 H         1 <1>         0.049200 
     44 Cl         12.614000    5.740000   15.287000 Cl        1 <1>         0.052700 
     45 N          10.021000    1.153000   11.147000 N.pl3     1 <1>        -0.810300 
     46 H          10.456000    0.634000   10.399000 H         1 <1>         0.372000 
     47 H           9.043000    1.022000   11.361000 H         1 <1>         0.366900 
@<TRIPOS>BOND
     1    1    2 ar   
     2    2    3 ar   
     3    3    4 ar   
     4    4    5 ar   
     5    5    6 ar   
     6    6    1 ar   
     7    6    7 1    
     8    7    8 1    
     9    7    9 1    
    10    5   10 ar   
    11   10   11 ar   
    12   11   12 ar   
    13   12   13 1    
    14   12   14 ar   
    15   14   15 1    
    16   14    4 ar   
    17   11   16 1    
    18   16   17 1    
    19   16   18 1    
    20   18   19 1    
    21   18   20 1    
    22   18   21 1    
    23   21   22 ar   
    24   22   23 1    
    25   22   24 ar   
    26   24   25 ar   
    27   25   26 ar   
    28   26   27 ar   
    29   27   28 1    
    30   27   21 ar   
    31   26   29 1    
    32   29   30 1    
    33   30   31 1    
    34   30   32 1    
    35   30   33 1    
    36   25   34 1    
    37   34   35 1    
    38   35   36 1    
    39   35   37 1    
    40   35   38 1    
    41   24   39 1    
    42   39   40 1    
    43   40   41 1    
    44   40   42 1    
    45   40   43 1    
    46   10   44 1    
    47    2   45 1    
    48   45   46 1    
    49   45   47 1    
@<TRIPOS>SUBSTRUCTURE
     1 ****        1 TEMP              0 ****  ****    0 ROOT 
@<TRIPOS>SET
UNITY_3DHIT     STATIC     ATOMS    <user>   **** Atoms matching 3D or FLEX Search
0
