#	Name:			13-11
#	Creating user name:	jeff
#	Creation time:		Thu Dec  4 18:13:25 2003

#	Modifying user name:	jeff
#	Modification time:	Thu Dec  4 18:13:25 2003

@<TRIPOS>MOLECULE
13-11
   43    45     1     0     1
SMALL
USER_CHARGES
****
From 3DB ct
@<TRIPOS>ATOM
      1 N          10.167000    2.720000   12.850000 N.ar      1 <1>        -0.572100 
      2 C          10.764000    2.044000   11.877000 C.ar      1 <1>         0.718700 
      3 N          12.044000    2.188000   11.549000 N.ar      1 <1>        -0.586300 
      4 C          12.777000    3.069000   12.239000 C.ar      1 <1>         0.216900 
      5 C          12.276000    3.850000   13.284000 C.ar      1 <1>        -0.111100 
      6 C          10.908000    3.607000   13.542000 C.ar      1 <1>         0.641300 
      7 N          10.201000    4.270000   14.540000 N.pl3     1 <1>        -0.803300 
      8 H          10.573000    4.103000   15.474000 H         1 <1>         0.306700 
      9 H          10.158000    5.279000   14.399000 H         1 <1>         0.312900 
     10 C          13.177000    4.761000   13.938000 C.ar      1 <1>        -0.540100 
     11 C          14.538000    4.883000   13.562000 C.ar      1 <1>         0.688300 
     12 C          14.977000    4.082000   12.514000 C.ar      1 <1>        -0.338100 
     13 H          16.005000    4.123000   12.161000 H         1 <1>         0.174100 
     14 C          14.106000    3.197000   11.873000 C.ar      1 <1>        -0.021900 
     15 H          14.494000    2.588000   11.057000 H         1 <1>         0.111100 
     16 N          15.380000    5.763000   14.222000 N.pl3     1 <1>        -0.864000 
     17 H          15.373000    5.735000   15.241000 H         1 <1>         0.365700 
     18 C          16.379000    6.631000   13.614000 C.3       1 <1>         0.443700 
     19 H          17.249000    6.022000   13.338000 H         1 <1>        -0.021500 
     20 H          16.744000    7.351000   14.353000 H         1 <1>        -0.002200 
     21 C          15.863000    7.287000   12.348000 C.ar      1 <1>        -0.195900 
     22 C          14.486000    7.566000   12.228000 C.ar      1 <1>        -0.115400 
     23 H          13.816000    7.323000   13.053000 H         1 <1>         0.122000 
     24 C          13.957000    8.153000   11.077000 C.ar      1 <1>         0.206000 
     25 C          14.811000    8.456000   10.021000 C.ar      1 <1>        -0.174100 
     26 H          14.450000    8.907000    9.101000 H         1 <1>         0.123100 
     27 C          16.179000    8.175000   10.116000 C.ar      1 <1>        -0.180300 
     28 H          16.799000    8.423000    9.258000 H         1 <1>         0.123400 
     29 C          16.714000    7.589000   11.269000 C.ar      1 <1>         0.178800 
     30 O          18.037000    7.269000   11.429000 O.3       1 <1>        -0.257400 
     31 C          18.907000    7.494000   10.321000 C.3       1 <1>         0.003800 
     32 H          19.920000    7.227000   10.636000 H         1 <1>         0.068400 
     33 H          18.914000    8.551000   10.034000 H         1 <1>         0.044100 
     34 H          18.642000    6.851000    9.476000 H         1 <1>         0.048500 
     35 O          12.607000    8.369000   11.108000 O.3       1 <1>        -0.296100 
     36 C          12.027000    8.969000    9.950000 C.3       1 <1>         0.083300 
     37 H          10.958000    9.099000   10.143000 H         1 <1>         0.051400 
     38 H          12.132000    8.318000    9.076000 H         1 <1>         0.024500 
     39 H          12.456000    9.959000    9.763000 H         1 <1>         0.023800 
     40 Cl         12.632000    5.773000   15.257000 Cl        1 <1>         0.056500 
     41 N          10.023000    1.149000   11.170000 N.pl3     1 <1>        -0.786400 
     42 H          10.453000    0.627000   10.421000 H         1 <1>         0.365100 
     43 H           9.047000    1.020000   11.392000 H         1 <1>         0.364100 
@<TRIPOS>BOND
     1    1    2 ar   
     2    2    3 ar   
     3    3    4 ar   
     4    4    5 ar   
     5    5    6 ar   
     6    6    1 ar   
     7    6    7 1    
     8    7    8 1    
     9    7    9 1    
    10    5   10 ar   
    11   10   11 ar   
    12   11   12 ar   
    13   12   13 1    
    14   12   14 ar   
    15   14   15 1    
    16   14    4 ar   
    17   11   16 1    
    18   16   17 1    
    19   16   18 1    
    20   18   19 1    
    21   18   20 1    
    22   18   21 1    
    23   21   22 ar   
    24   22   23 1    
    25   22   24 ar   
    26   24   25 ar   
    27   25   26 1    
    28   25   27 ar   
    29   27   28 1    
    30   27   29 ar   
    31   29   21 ar   
    32   29   30 1    
    33   30   31 1    
    34   31   32 1    
    35   31   33 1    
    36   31   34 1    
    37   24   35 1    
    38   35   36 1    
    39   36   37 1    
    40   36   38 1    
    41   36   39 1    
    42   10   40 1    
    43    2   41 1    
    44   41   42 1    
    45   41   43 1    
@<TRIPOS>SUBSTRUCTURE
     1 ****        1 TEMP              0 ****  ****    0 ROOT 
@<TRIPOS>SET
UNITY_3DHIT     STATIC     ATOMS    <user>   **** Atoms matching 3D or FLEX Search
0
