#	Name:			13-10
#	Creating user name:	jeff
#	Creation time:		Thu Dec  4 18:13:25 2003

#	Modifying user name:	jeff
#	Modification time:	Thu Dec  4 18:13:25 2003

@<TRIPOS>MOLECULE
13-10
   50    52     1     0     1
SMALL
USER_CHARGES
****
From 3DB ct
@<TRIPOS>ATOM
      1 N          10.102000    2.598000   12.869000 N.ar      1 <1>        -0.665100 
      2 C          10.710000    1.955000   11.880000 C.ar      1 <1>         0.810300 
      3 N          11.983000    2.140000   11.545000 N.ar      1 <1>        -0.655500 
      4 C          12.697000    3.028000   12.246000 C.ar      1 <1>         0.334600 
      5 C          12.186000    3.776000   13.313000 C.ar      1 <1>        -0.192100 
      6 C          10.824000    3.491000   13.571000 C.ar      1 <1>         0.616100 
      7 N          10.108000    4.105000   14.595000 N.pl3     1 <1>        -0.771300 
      8 H          10.475000    3.899000   15.523000 H         1 <1>         0.353500 
      9 H          10.056000    5.118000   14.498000 H         1 <1>         0.354500 
     10 C          13.070000    4.702000   13.980000 C.ar      1 <1>        -0.327100 
     11 C          14.423000    4.850000   13.598000 C.ar      1 <1>         0.324100 
     12 C          14.870000    4.090000   12.515000 C.ar      1 <1>        -0.198600 
     13 H          15.895000    4.172000   12.156000 H         1 <1>         0.130900 
     14 C          14.017000    3.197000   11.867000 C.ar      1 <1>        -0.132100 
     15 H          14.409000    2.617000   11.032000 H         1 <1>         0.129800 
     16 C          15.342000    5.843000   14.299000 C.3       1 <1>        -0.295300 
     17 H          15.848000    5.379000   15.153000 H         1 <1>         0.093200 
     18 H          14.708000    6.633000   14.721000 H         1 <1>         0.114100 
     19 N          16.366000    6.445000   13.420000 N.pl3     1 <1>        -0.030700 
     20 C          16.041000    7.195000   12.293000 C.ar      1 <1>         0.200600 
     21 C          16.980000    7.459000   11.271000 C.ar      1 <1>        -0.395400 
     22 H          17.985000    7.064000   11.370000 H         1 <1>         0.142900 
     23 C          16.663000    8.200000   10.119000 C.ar      1 <1>         0.302700 
     24 C          15.364000    8.696000    9.972000 C.ar      1 <1>        -0.186500 
     25 C          14.426000    8.488000   10.980000 C.ar      1 <1>         0.426800 
     26 C          14.752000    7.728000   12.107000 C.ar      1 <1>        -0.422700 
     27 H          13.971000    7.570000   12.846000 H         1 <1>         0.144900 
     28 O          13.149000    8.972000   10.839000 O.3       1 <1>        -0.312000 
     29 C          13.060000    9.784000    9.663000 C.3       1 <1>         0.095500 
     30 H          12.010000   10.059000    9.526000 H         1 <1>         0.033900 
     31 H          13.386000    9.232000    8.774000 H         1 <1>         0.029800 
     32 H          13.641000   10.705000    9.777000 H         1 <1>         0.037300 
     33 O          15.031000    9.452000    8.875000 O.3       1 <1>        -0.229900 
     34 C          16.180000    9.625000    8.038000 C.3       1 <1>         0.012200 
     35 H          15.879000   10.238000    7.183000 H         1 <1>         0.035900 
     36 H          16.542000    8.665000    7.657000 H         1 <1>         0.054100 
     37 H          16.982000   10.152000    8.568000 H         1 <1>         0.047800 
     38 O          17.535000    8.486000    9.100000 O.3       1 <1>        -0.245800 
     39 C          18.842000    7.920000    9.177000 C.3       1 <1>         0.005000 
     40 H          19.392000    8.231000    8.283000 H         1 <1>         0.064100 
     41 H          18.799000    6.826000    9.176000 H         1 <1>         0.044900 
     42 H          19.384000    8.297000   10.050000 H         1 <1>         0.043400 
     43 C          17.759000    6.095000   13.717000 C.3       1 <1>        -0.075500 
     44 H          18.143000    5.383000   12.980000 H         1 <1>         0.039200 
     45 H          17.855000    5.631000   14.706000 H         1 <1>         0.072900 
     46 H          18.394000    6.988000   13.732000 H         1 <1>         0.043500 
     47 Cl         12.477000    5.695000   15.287000 Cl        1 <1>         0.070600 
     48 N           9.990000    1.050000   11.164000 N.pl3     1 <1>        -0.828100 
     49 H          10.428000    0.549000   10.406000 H         1 <1>         0.381300 
     50 H           9.020000    0.890000   11.392000 H         1 <1>         0.373400 
@<TRIPOS>BOND
     1    1    2 ar   
     2    2    3 ar   
     3    3    4 ar   
     4    4    5 ar   
     5    5    6 ar   
     6    6    1 ar   
     7    6    7 1    
     8    7    8 1    
     9    7    9 1    
    10    5   10 ar   
    11   10   11 ar   
    12   11   12 ar   
    13   12   13 1    
    14   12   14 ar   
    15   14   15 1    
    16   14    4 ar   
    17   11   16 1    
    18   16   17 1    
    19   16   18 1    
    20   16   19 1    
    21   19   20 1    
    22   20   21 ar   
    23   21   22 1    
    24   21   23 ar   
    25   23   24 ar   
    26   24   25 ar   
    27   25   26 ar   
    28   26   27 1    
    29   26   20 ar   
    30   25   28 1    
    31   28   29 1    
    32   29   30 1    
    33   29   31 1    
    34   29   32 1    
    35   24   33 1    
    36   33   34 1    
    37   34   35 1    
    38   34   36 1    
    39   34   37 1    
    40   23   38 1    
    41   38   39 1    
    42   39   40 1    
    43   39   41 1    
    44   39   42 1    
    45   19   43 1    
    46   43   44 1    
    47   43   45 1    
    48   43   46 1    
    49   10   47 1    
    50    2   48 1    
    51   48   49 1    
    52   48   50 1    
@<TRIPOS>SUBSTRUCTURE
     1 ****        1 TEMP              0 ****  ****    0 ROOT 
@<TRIPOS>SET
UNITY_3DHIT     STATIC     ATOMS    <user>   **** Atoms matching 3D or FLEX Search
0
