#	Name:			13-17
#	Creating user name:	jeff
#	Creation time:		Thu Dec  4 18:13:25 2003

#	Modifying user name:	jeff
#	Modification time:	Thu Dec  4 18:13:25 2003

@<TRIPOS>MOLECULE
13-17
   50    52     1     0     1
SMALL
USER_CHARGES
****
From 3DB ct
@<TRIPOS>ATOM
      1 N          10.158000    2.717000   12.788000 N.ar      1 <1>        -0.685100 
      2 C          10.773000    2.075000   11.803000 C.ar      1 <1>         0.812000 
      3 N          12.057000    2.233000   11.500000 N.ar      1 <1>        -0.662400 
      4 C          12.778000    3.090000   12.232000 C.ar      1 <1>         0.367500 
      5 C          12.258000    3.828000   13.302000 C.ar      1 <1>        -0.295600 
      6 C          10.886000    3.575000   13.525000 C.ar      1 <1>         0.687200 
      7 N          10.155000    4.215000   14.522000 N.pl3     1 <1>        -0.804800 
      8 H          10.527000    4.055000   15.458000 H         1 <1>         0.361400 
      9 H          10.082000    5.222000   14.385000 H         1 <1>         0.353500 
     10 C          13.147000    4.712000   14.010000 C.ar      1 <1>        -0.290700 
     11 C          14.511000    4.853000   13.649000 C.ar      1 <1>         0.531900 
     12 C          14.969000    4.097000   12.571000 C.ar      1 <1>        -0.292300 
     13 H          16.000000    4.174000   12.232000 H         1 <1>         0.162700 
     14 C          14.111000    3.234000   11.887000 C.ar      1 <1>        -0.127800 
     15 H          14.510000    2.663000   11.049000 H         1 <1>         0.130600 
     16 N          15.373000    5.724000   14.329000 N.pl3     1 <1>        -0.523700 
     17 C          16.460000    6.398000   13.597000 C.3       1 <1>         0.138500 
     18 H          17.191000    5.653000   13.254000 H         1 <1>         0.015500 
     19 H          17.006000    7.077000   14.263000 H         1 <1>         0.071500 
     20 C          15.954000    7.125000   12.365000 C.ar      1 <1>        -0.138300 
     21 C          16.844000    7.489000   11.334000 C.ar      1 <1>        -0.183000 
     22 H          17.893000    7.234000   11.463000 H         1 <1>         0.160500 
     23 C          16.389000    8.139000   10.183000 C.ar      1 <1>         0.070200 
     24 C          15.025000    8.452000   10.078000 C.ar      1 <1>         0.270600 
     25 C          14.146000    8.153000   11.126000 C.ar      1 <1>        -0.100300 
     26 C          14.599000    7.467000   12.251000 C.ar      1 <1>         0.018800 
     27 H          13.896000    7.205000   13.040000 H         1 <1>         0.108900 
     28 O          12.812000    8.461000   11.048000 O.3       1 <1>        -0.213400 
     29 C          12.537000    9.138000    9.816000 C.3       1 <1>        -0.022300 
     30 H          11.473000    9.391000    9.804000 H         1 <1>         0.060000 
     31 H          12.742000    8.496000    8.953000 H         1 <1>         0.047900 
     32 H          13.110000   10.069000    9.742000 H         1 <1>         0.063500 
     33 O          14.559000    9.111000    8.964000 O.3       1 <1>        -0.270100 
     34 C          15.626000    9.295000    8.028000 C.3       1 <1>         0.027600 
     35 H          15.223000    9.836000    7.167000 H         1 <1>         0.050100 
     36 H          16.014000    8.334000    7.673000 H         1 <1>         0.042600 
     37 H          16.434000    9.896000    8.459000 H         1 <1>         0.048100 
     38 O          17.179000    8.511000    9.126000 O.3       1 <1>        -0.298300 
     39 C          18.572000    8.225000    9.229000 C.3       1 <1>         0.093400 
     40 H          19.041000    8.509000    8.282000 H         1 <1>         0.044800 
     41 H          18.745000    7.155000    9.376000 H         1 <1>         0.013000 
     42 H          19.037000    8.819000   10.022000 H         1 <1>         0.023700 
     43 C          14.723000    6.517000   15.375000 C.3       1 <1>         0.035800 
     44 H          14.121000    7.318000   14.931000 H         1 <1>         0.046500 
     45 H          15.476000    6.974000   16.027000 H         1 <1>         0.019800 
     46 H          14.073000    5.907000   16.011000 H         1 <1>         0.023100 
     47 Cl         12.580000    5.620000   15.393000 Cl        1 <1>         0.081000 
     48 N          10.046000    1.202000   11.056000 N.pl3     1 <1>        -0.827700 
     49 H          10.489000    0.698000   10.302000 H         1 <1>         0.379900 
     50 H           9.069000    1.058000   11.265000 H         1 <1>         0.373500 
@<TRIPOS>BOND
     1    1    2 ar   
     2    2    3 ar   
     3    3    4 ar   
     4    4    5 ar   
     5    5    6 ar   
     6    6    1 ar   
     7    6    7 1    
     8    7    8 1    
     9    7    9 1    
    10    5   10 ar   
    11   10   11 ar   
    12   11   12 ar   
    13   12   13 1    
    14   12   14 ar   
    15   14   15 1    
    16   14    4 ar   
    17   11   16 1    
    18   16   17 1    
    19   17   18 1    
    20   17   19 1    
    21   17   20 1    
    22   20   21 ar   
    23   21   22 1    
    24   21   23 ar   
    25   23   24 ar   
    26   24   25 ar   
    27   25   26 ar   
    28   26   27 1    
    29   26   20 ar   
    30   25   28 1    
    31   28   29 1    
    32   29   30 1    
    33   29   31 1    
    34   29   32 1    
    35   24   33 1    
    36   33   34 1    
    37   34   35 1    
    38   34   36 1    
    39   34   37 1    
    40   23   38 1    
    41   38   39 1    
    42   39   40 1    
    43   39   41 1    
    44   39   42 1    
    45   16   43 1    
    46   43   44 1    
    47   43   45 1    
    48   43   46 1    
    49   10   47 1    
    50    2   48 1    
    51   48   49 1    
    52   48   50 1    
@<TRIPOS>SUBSTRUCTURE
     1 ****        1 TEMP              0 ****  ****    0 ROOT 
@<TRIPOS>SET
UNITY_3DHIT     STATIC     ATOMS    <user>   **** Atoms matching 3D or FLEX Search
0
