#	Name:			14-10
#	Creating user name:	jeff
#	Creation time:		Thu Dec  4 18:13:25 2003

#	Modifying user name:	jeff
#	Modification time:	Thu Dec  4 18:13:26 2003

@<TRIPOS>MOLECULE
14-10
   37    39     1     0     1
SMALL
USER_CHARGES
****
From 3DB ct
@<TRIPOS>ATOM
      1 N          10.151000    2.642000   12.914000 N.ar      1 <1>        -0.663500 
      2 C          10.709000    1.965000   11.912000 C.ar      1 <1>         0.797000 
      3 N          11.975000    2.111000   11.519000 N.ar      1 <1>        -0.638500 
      4 C          12.731000    3.002000   12.185000 C.ar      1 <1>         0.259200 
      5 C          12.272000    3.773000   13.254000 C.ar      1 <1>        -0.129600 
      6 C          10.935000    3.519000   13.574000 C.ar      1 <1>         0.626300 
      7 N          10.305000    4.235000   14.586000 N.pl3     1 <1>        -0.749300 
      8 H          10.886000    4.560000   15.354000 H         1 <1>         0.355000 
      9 H           9.349000    3.977000   14.803000 H         1 <1>         0.354100 
     10 N          13.058000    4.671000   13.925000 N.ar      1 <1>        -0.364800 
     11 C          14.351000    4.824000   13.538000 C.ar      1 <1>         0.313600 
     12 C          14.877000    4.095000   12.483000 C.ar      1 <1>        -0.272400 
     13 H          15.910000    4.221000   12.171000 H         1 <1>         0.152300 
     14 C          14.053000    3.187000   11.814000 C.ar      1 <1>        -0.055800 
     15 H          14.463000    2.613000   10.986000 H         1 <1>         0.123800 
     16 C          15.206000    5.821000   14.307000 C.3       1 <1>        -0.107000 
     17 H          15.591000    5.348000   15.216000 H         1 <1>         0.099200 
     18 H          14.552000    6.622000   14.677000 H         1 <1>         0.088000 
     19 N          16.255000    6.435000   13.464000 N.pl3     1 <1>        -0.294200 
     20 C          15.997000    7.173000   12.318000 C.ar      1 <1>         0.224200 
     21 C          14.728000    7.730000   12.069000 C.ar      1 <1>        -0.198500 
     22 H          13.908000    7.597000   12.774000 H         1 <1>         0.107700 
     23 C          14.444000    8.486000   10.922000 C.ar      1 <1>         0.122000 
     24 H          13.443000    8.893000   10.790000 H         1 <1>         0.066100 
     25 C          15.432000    8.711000    9.972000 C.ar      1 <1>        -0.283800 
     26 C          16.700000    8.173000   10.177000 C.ar      1 <1>        -0.142000 
     27 C          16.969000    7.416000   11.331000 C.ar      1 <1>        -0.049400 
     28 H          17.972000    7.011000   11.424000 H         1 <1>         0.056700 
     29 Cl         17.989000    8.399000    9.043000 Cl        1 <1>         0.057500 
     30 Cl         15.028000    9.652000    8.580000 Cl        1 <1>         0.058500 
     31 C          17.635000    6.167000   13.890000 C.3       1 <1>        -0.000400 
     32 H          18.180000    7.103000   14.056000 H         1 <1>         0.047500 
     33 H          18.160000    5.561000   13.145000 H         1 <1>         0.047000 
     34 H          17.668000    5.609000   14.833000 H         1 <1>         0.057900 
     35 N           9.941000    1.062000   11.247000 N.pl3     1 <1>        -0.820000 
     36 H          10.338000    0.525000   10.491000 H         1 <1>         0.380400 
     37 H           8.983000    0.915000   11.530000 H         1 <1>         0.375500 
@<TRIPOS>BOND
     1    1    2 ar   
     2    2    3 ar   
     3    3    4 ar   
     4    4    5 ar   
     5    5    6 ar   
     6    6    1 ar   
     7    6    7 1    
     8    7    8 1    
     9    7    9 1    
    10    5   10 ar   
    11   10   11 ar   
    12   11   12 ar   
    13   12   13 1    
    14   12   14 ar   
    15   14   15 1    
    16   14    4 ar   
    17   11   16 1    
    18   16   17 1    
    19   16   18 1    
    20   16   19 1    
    21   19   20 1    
    22   20   21 ar   
    23   21   22 1    
    24   21   23 ar   
    25   23   24 1    
    26   23   25 ar   
    27   25   26 ar   
    28   26   27 ar   
    29   27   28 1    
    30   27   20 ar   
    31   26   29 1    
    32   25   30 1    
    33   19   31 1    
    34   31   32 1    
    35   31   33 1    
    36   31   34 1    
    37    2   35 1    
    38   35   36 1    
    39   35   37 1    
@<TRIPOS>SUBSTRUCTURE
     1 ****        1 TEMP              0 ****  ****    0 ROOT 
@<TRIPOS>SET
UNITY_3DHIT     STATIC     ATOMS    <user>   **** Atoms matching 3D or FLEX Search
0
