#	Name:			14-28
#	Creating user name:	jeff
#	Creation time:		Thu Dec  4 18:13:26 2003

#	Modifying user name:	jeff
#	Modification time:	Thu Dec  4 18:13:26 2003

@<TRIPOS>MOLECULE
14-28
   43    45     1     0     1
SMALL
USER_CHARGES
****
From 3DB ct
@<TRIPOS>ATOM
      1 N          10.113000    2.574000   12.858000 N.ar      1 <1>        -0.659300 
      2 C          10.746000    1.947000   11.875000 C.ar      1 <1>         0.801200 
      3 N          12.017000    2.160000   11.553000 N.ar      1 <1>        -0.651400 
      4 C          12.704000    3.065000   12.261000 C.ar      1 <1>         0.342300 
      5 C          12.163000    3.804000   13.321000 C.ar      1 <1>        -0.184900 
      6 C          10.807000    3.484000   13.568000 C.ar      1 <1>         0.601800 
      7 N          10.063000    4.087000   14.578000 N.pl3     1 <1>        -0.761400 
      8 H          10.442000    3.922000   15.510000 H         1 <1>         0.352200 
      9 H           9.963000    5.094000   14.457000 H         1 <1>         0.350000 
     10 C          13.014000    4.753000   13.996000 C.ar      1 <1>        -0.324800 
     11 C          14.361000    4.934000   13.617000 C.ar      1 <1>         0.279700 
     12 C          14.849000    4.174000   12.550000 C.ar      1 <1>        -0.155400 
     13 H          15.878000    4.294000   12.213000 H         1 <1>         0.122800 
     14 C          14.025000    3.260000   11.895000 C.ar      1 <1>        -0.159900 
     15 H          14.440000    2.686000   11.067000 H         1 <1>         0.135400 
     16 C          15.300000    5.928000   14.271000 C.3       1 <1>        -0.174100 
     17 H          15.777000    5.437000   15.130000 H         1 <1>         0.072400 
     18 H          14.745000    6.782000   14.667000 H         1 <1>         0.101100 
     19 N          16.311000    6.351000   13.316000 N.pl3     1 <1>        -0.255800 
     20 H          17.268000    6.067000   13.522000 H         1 <1>         0.252600 
     21 C          16.100000    7.136000   12.191000 C.ar      1 <1>         0.028100 
     22 C          14.804000    7.669000   12.029000 C.ar      1 <1>        -0.233300 
     23 H          14.041000    7.450000   12.776000 H         1 <1>         0.122100 
     24 C          14.450000    8.471000   10.938000 C.ar      1 <1>         0.309300 
     25 C          15.409000    8.758000    9.977000 C.ar      1 <1>        -0.293400 
     26 H          15.192000    9.376000    9.110000 H         1 <1>         0.131300 
     27 C          16.704000    8.247000   10.108000 C.ar      1 <1>        -0.124700 
     28 H          17.416000    8.503000    9.327000 H         1 <1>         0.122600 
     29 C          17.061000    7.441000   11.200000 C.ar      1 <1>         0.118100 
     30 O          18.322000    6.921000   11.362000 O.3       1 <1>        -0.278800 
     31 C          19.325000    7.281000   10.414000 C.3       1 <1>         0.006900 
     32 H          20.254000    6.787000   10.713000 H         1 <1>         0.064400 
     33 H          19.505000    8.361000   10.420000 H         1 <1>         0.040900 
     34 H          19.066000    6.922000    9.413000 H         1 <1>         0.041900 
     35 O          13.152000    8.901000   10.934000 O.3       1 <1>        -0.307300 
     36 C          12.760000    9.749000    9.855000 C.3       1 <1>         0.067800 
     37 H          11.704000    9.999000    9.994000 H         1 <1>         0.054400 
     38 H          12.857000    9.232000    8.894000 H         1 <1>         0.027800 
     39 H          13.329000   10.684000    9.862000 H         1 <1>         0.026600 
     40 Cl         12.389000    5.721000   15.305000 Cl        1 <1>         0.063200 
     41 N          10.052000    1.029000   11.149000 N.pl3     1 <1>        -0.824500 
     42 H          10.504000    0.545000   10.388000 H         1 <1>         0.379900 
     43 H           9.082000    0.851000   11.367000 H         1 <1>         0.372500 
@<TRIPOS>BOND
     1    1    2 ar   
     2    2    3 ar   
     3    3    4 ar   
     4    4    5 ar   
     5    5    6 ar   
     6    6    1 ar   
     7    6    7 1    
     8    7    8 1    
     9    7    9 1    
    10    5   10 ar   
    11   10   11 ar   
    12   11   12 ar   
    13   12   13 1    
    14   12   14 ar   
    15   14   15 1    
    16   14    4 ar   
    17   11   16 1    
    18   16   17 1    
    19   16   18 1    
    20   16   19 1    
    21   19   20 1    
    22   19   21 1    
    23   21   22 ar   
    24   22   23 1    
    25   22   24 ar   
    26   24   25 ar   
    27   25   26 1    
    28   25   27 ar   
    29   27   28 1    
    30   27   29 ar   
    31   29   21 ar   
    32   29   30 1    
    33   30   31 1    
    34   31   32 1    
    35   31   33 1    
    36   31   34 1    
    37   24   35 1    
    38   35   36 1    
    39   36   37 1    
    40   36   38 1    
    41   36   39 1    
    42   10   40 1    
    43    2   41 1    
    44   41   42 1    
    45   41   43 1    
@<TRIPOS>SUBSTRUCTURE
     1 ****        1 TEMP              0 ****  ****    0 ROOT 
@<TRIPOS>SET
UNITY_3DHIT     STATIC     ATOMS    <user>   **** Atoms matching 3D or FLEX Search
0
