#	Name:			14-22
#	Creating user name:	jeff
#	Creation time:		Thu Dec  4 18:13:26 2003

#	Modifying user name:	jeff
#	Modification time:	Thu Dec  4 18:13:26 2003

@<TRIPOS>MOLECULE
14-22
   40    42     1     0     1
SMALL
USER_CHARGES
****
From 3DB ct
@<TRIPOS>ATOM
      1 N          10.112000    2.645000   12.787000 N.ar      1 <1>        -0.716100 
      2 C          10.787000    1.974000   11.865000 C.ar      1 <1>         0.818800 
      3 N          12.073000    2.155000   11.609000 N.ar      1 <1>        -0.708500 
      4 C          12.733000    3.057000   12.315000 C.ar      1 <1>         0.839200 
      5 C          12.157000    3.832000   13.329000 C.ar      1 <1>        -0.865800 
      6 C          10.780000    3.562000   13.504000 C.ar      1 <1>         0.817400 
      7 N           9.986000    4.212000   14.436000 N.pl3     1 <1>        -0.750900 
      8 H          10.202000    3.997000   15.406000 H         1 <1>         0.322100 
      9 H           9.905000    5.217000   14.305000 H         1 <1>         0.322100 
     10 C          13.012000    4.772000   14.028000 C.ar      1 <1>         0.492900 
     11 C          14.358000    4.904000   13.630000 C.ar      1 <1>        -0.436000 
     12 C          14.792000    4.068000   12.614000 C.ar      1 <1>         0.379900 
     13 H          15.822000    4.102000   12.260000 H         1 <1>         0.086200 
     14 N          14.013000    3.167000   11.977000 N.ar      1 <1>        -0.582500 
     15 C          15.355000    5.877000   14.233000 C.3       1 <1>         0.151500 
     16 H          15.870000    5.424000   15.089000 H         1 <1>         0.072400 
     17 H          14.768000    6.708000   14.641000 H         1 <1>         0.045800 
     18 N          16.372000    6.325000   13.265000 N.pl3     1 <1>        -0.454000 
     19 C          16.047000    7.136000   12.183000 C.ar      1 <1>         0.337300 
     20 C          14.759000    7.682000   12.043000 C.ar      1 <1>        -0.278200 
     21 H          13.991000    7.494000   12.792000 H         1 <1>         0.116900 
     22 C          14.414000    8.506000   10.963000 C.ar      1 <1>         0.152900 
     23 H          13.405000    8.908000   10.904000 H         1 <1>         0.060900 
     24 C          15.355000    8.806000    9.984000 C.ar      1 <1>        -0.291100 
     25 C          16.641000    8.277000   10.091000 C.ar      1 <1>        -0.134700 
     26 C          16.976000    7.454000   11.178000 C.ar      1 <1>        -0.051800 
     27 H          17.980000    7.039000   11.208000 H         1 <1>         0.056500 
     28 Cl         17.869000    8.594000    8.912000 Cl        1 <1>         0.057600 
     29 Cl         14.873000    9.827000    8.676000 Cl        1 <1>         0.059200 
     30 C          17.782000    6.053000   13.552000 C.3       1 <1>        -0.047300 
     31 H          18.145000    5.223000   12.935000 H         1 <1>         0.078100 
     32 H          17.937000    5.786000   14.603000 H         1 <1>         0.076100 
     33 H          18.406000    6.936000   13.369000 H         1 <1>         0.061800 
     34 C          12.476000    5.612000   15.161000 C.3       1 <1>        -0.225700 
     35 H          12.006000    4.978000   15.917000 H         1 <1>         0.078300 
     36 H          11.764000    6.351000   14.781000 H         1 <1>         0.068100 
     37 H          13.252000    6.159000   15.698000 H         1 <1>         0.044700 
     38 N          10.116000    1.043000   11.135000 N.pl3     1 <1>        -0.813100 
     39 H          10.601000    0.515000   10.425000 H         1 <1>         0.382800 
     40 H           9.134000    0.884000   11.309000 H         1 <1>         0.376200 
@<TRIPOS>BOND
     1    1    2 ar   
     2    2    3 ar   
     3    3    4 ar   
     4    4    5 ar   
     5    5    6 ar   
     6    6    1 ar   
     7    6    7 1    
     8    7    8 1    
     9    7    9 1    
    10    5   10 ar   
    11   10   11 ar   
    12   11   12 ar   
    13   12   13 1    
    14   12   14 ar   
    15   14    4 ar   
    16   11   15 1    
    17   15   16 1    
    18   15   17 1    
    19   15   18 1    
    20   18   19 1    
    21   19   20 ar   
    22   20   21 1    
    23   20   22 ar   
    24   22   23 1    
    25   22   24 ar   
    26   24   25 ar   
    27   25   26 ar   
    28   26   27 1    
    29   26   19 ar   
    30   25   28 1    
    31   24   29 1    
    32   18   30 1    
    33   30   31 1    
    34   30   32 1    
    35   30   33 1    
    36   10   34 1    
    37   34   35 1    
    38   34   36 1    
    39   34   37 1    
    40    2   38 1    
    41   38   39 1    
    42   38   40 1    
@<TRIPOS>SUBSTRUCTURE
     1 ****        1 TEMP              0 ****  ****    0 ROOT 
@<TRIPOS>SET
UNITY_3DHIT     STATIC     ATOMS    <user>   **** Atoms matching 3D or FLEX Search
0
