#	Name:			14-29
#	Creating user name:	jeff
#	Creation time:		Thu Dec  4 18:13:26 2003

#	Modifying user name:	jeff
#	Modification time:	Thu Dec  4 18:13:26 2003

@<TRIPOS>MOLECULE
14-29
   47    49     1     0     1
SMALL
USER_CHARGES
****
From 3DB ct
@<TRIPOS>ATOM
      1 N          10.114000    2.585000   12.857000 N.ar      1 <1>        -0.657600 
      2 C          10.743000    1.955000   11.873000 C.ar      1 <1>         0.799000 
      3 N          12.015000    2.161000   11.552000 N.ar      1 <1>        -0.650600 
      4 C          12.708000    3.060000   12.262000 C.ar      1 <1>         0.345300 
      5 C          12.172000    3.797000   13.326000 C.ar      1 <1>        -0.190500 
      6 C          10.814000    3.488000   13.570000 C.ar      1 <1>         0.601600 
      7 N          10.075000    4.090000   14.584000 N.pl3     1 <1>        -0.748900 
      8 H          10.443000    3.900000   15.516000 H         1 <1>         0.347600 
      9 H          10.001000    5.102000   14.480000 H         1 <1>         0.346400 
     10 C          13.031000    4.736000   14.005000 C.ar      1 <1>        -0.321400 
     11 C          14.378000    4.909000   13.627000 C.ar      1 <1>         0.292000 
     12 C          14.859000    4.157000   12.552000 C.ar      1 <1>        -0.156200 
     13 H          15.889000    4.272000   12.213000 H         1 <1>         0.118300 
     14 C          14.030000    3.251000   11.895000 C.ar      1 <1>        -0.160000 
     15 H          14.440000    2.679000   11.063000 H         1 <1>         0.135500 
     16 C          15.322000    5.888000   14.293000 C.3       1 <1>        -0.220500 
     17 H          15.817000    5.388000   15.135000 H         1 <1>         0.084000 
     18 H          14.767000    6.728000   14.726000 H         1 <1>         0.115800 
     19 N          16.316000    6.348000   13.338000 N.pl3     1 <1>        -0.314800 
     20 H          17.283000    6.084000   13.519000 H         1 <1>         0.269100 
     21 C          16.044000    7.122000   12.227000 C.ar      1 <1>         0.261000 
     22 C          14.760000    7.665000   12.086000 C.ar      1 <1>        -0.388200 
     23 H          14.000000    7.470000   12.841000 H         1 <1>         0.139800 
     24 C          14.436000    8.467000   10.991000 C.ar      1 <1>         0.432600 
     25 C          15.376000    8.698000    9.986000 C.ar      1 <1>        -0.230400 
     26 C          16.675000    8.187000   10.109000 C.ar      1 <1>         0.353900 
     27 C          16.993000    7.402000   11.229000 C.ar      1 <1>        -0.451500 
     28 H          17.994000    6.995000   11.335000 H         1 <1>         0.134300 
     29 O          17.543000    8.505000    9.096000 O.3       1 <1>        -0.231200 
     30 C          18.850000    7.938000    9.154000 C.3       1 <1>        -0.031400 
     31 H          19.400000    8.279000    8.271000 H         1 <1>         0.072600 
     32 H          18.808000    6.845000    9.117000 H         1 <1>         0.055500 
     33 H          19.391000    8.287000   10.040000 H         1 <1>         0.054700 
     34 O          15.044000    9.489000    8.912000 O.3       1 <1>        -0.218200 
     35 C          16.168000    9.618000    8.035000 C.3       1 <1>        -0.043000 
     36 H          15.864000   10.249000    7.195000 H         1 <1>         0.050900 
     37 H          16.473000    8.645000    7.634000 H         1 <1>         0.066300 
     38 H          17.011000   10.104000    8.539000 H         1 <1>         0.058400 
     39 O          13.161000    8.960000   10.890000 O.3       1 <1>        -0.317500 
     40 C          13.040000    9.755000    9.705000 C.3       1 <1>         0.087600 
     41 H          12.017000   10.142000    9.666000 H         1 <1>         0.036900 
     42 H          13.211000    9.154000    8.805000 H         1 <1>         0.032800 
     43 H          13.726000   10.609000    9.730000 H         1 <1>         0.043200 
     44 Cl         12.418000    5.703000   15.320000 Cl        1 <1>         0.066400 
     45 N          10.043000    1.044000   11.145000 N.pl3     1 <1>        -0.820400 
     46 H          10.497000    0.551000   10.390000 H         1 <1>         0.378900 
     47 H           9.074000    0.867000   11.363000 H         1 <1>         0.371700 
@<TRIPOS>BOND
     1    1    2 ar   
     2    2    3 ar   
     3    3    4 ar   
     4    4    5 ar   
     5    5    6 ar   
     6    6    1 ar   
     7    6    7 1    
     8    7    8 1    
     9    7    9 1    
    10    5   10 ar   
    11   10   11 ar   
    12   11   12 ar   
    13   12   13 1    
    14   12   14 ar   
    15   14   15 1    
    16   14    4 ar   
    17   11   16 1    
    18   16   17 1    
    19   16   18 1    
    20   16   19 1    
    21   19   20 1    
    22   19   21 1    
    23   21   22 ar   
    24   22   23 1    
    25   22   24 ar   
    26   24   25 ar   
    27   25   26 ar   
    28   26   27 ar   
    29   27   28 1    
    30   27   21 ar   
    31   26   29 1    
    32   29   30 1    
    33   30   31 1    
    34   30   32 1    
    35   30   33 1    
    36   25   34 1    
    37   34   35 1    
    38   35   36 1    
    39   35   37 1    
    40   35   38 1    
    41   24   39 1    
    42   39   40 1    
    43   40   41 1    
    44   40   42 1    
    45   40   43 1    
    46   10   44 1    
    47    2   45 1    
    48   45   46 1    
    49   45   47 1    
@<TRIPOS>SUBSTRUCTURE
     1 ****        1 TEMP              0 ****  ****    0 ROOT 
@<TRIPOS>SET
UNITY_3DHIT     STATIC     ATOMS    <user>   **** Atoms matching 3D or FLEX Search
0
