#	Name:			14-5
#	Creating user name:	jeff
#	Creation time:		Thu Dec  4 18:13:26 2003

#	Modifying user name:	jeff
#	Modification time:	Thu Dec  4 18:13:26 2003

@<TRIPOS>MOLECULE
14-5
   42    44     1     0     1
SMALL
USER_CHARGES
****
From 3DB ct
@<TRIPOS>ATOM
      1 N          10.158000    2.635000   12.910000 N.ar      1 <1>        -0.665700 
      2 C          10.727000    1.959000   11.913000 C.ar      1 <1>         0.791100 
      3 N          11.992000    2.115000   11.527000 N.ar      1 <1>        -0.636100 
      4 C          12.736000    3.017000   12.193000 C.ar      1 <1>         0.258300 
      5 C          12.266000    3.788000   13.258000 C.ar      1 <1>        -0.126900 
      6 C          10.930000    3.522000   13.571000 C.ar      1 <1>         0.630100 
      7 N          10.283000    4.236000   14.574000 N.pl3     1 <1>        -0.755700 
      8 H          10.852000    4.578000   15.344000 H         1 <1>         0.358800 
      9 H           9.328000    3.968000   14.783000 H         1 <1>         0.356500 
     10 N          13.040000    4.698000   13.926000 N.ar      1 <1>        -0.380900 
     11 C          14.333000    4.864000   13.532000 C.ar      1 <1>         0.339800 
     12 C          14.869000    4.137000   12.480000 C.ar      1 <1>        -0.247900 
     13 H          15.902000    4.276000   12.171000 H         1 <1>         0.142200 
     14 C          14.057000    3.215000   11.820000 C.ar      1 <1>        -0.077800 
     15 H          14.473000    2.641000   10.994000 H         1 <1>         0.125200 
     16 C          15.207000    5.880000   14.265000 C.3       1 <1>        -0.096900 
     17 H          15.670000    5.371000   15.118000 H         1 <1>         0.076400 
     18 H          14.556000    6.689000   14.617000 H         1 <1>         0.096000 
     19 N          16.235000    6.414000   13.381000 N.pl3     1 <1>        -0.356000 
     20 H          17.186000    6.206000   13.690000 H         1 <1>         0.265700 
     21 C          16.043000    7.162000   12.234000 C.ar      1 <1>         0.106600 
     22 C          14.756000    7.704000   12.041000 C.ar      1 <1>        -0.257000 
     23 H          13.981000    7.510000   12.783000 H         1 <1>         0.140100 
     24 C          14.427000    8.486000   10.929000 C.ar      1 <1>         0.297900 
     25 C          15.402000    8.742000    9.976000 C.ar      1 <1>        -0.293300 
     26 H          15.204000    9.343000    9.092000 H         1 <1>         0.130700 
     27 C          16.690000    8.220000   10.137000 C.ar      1 <1>        -0.106400 
     28 H          17.417000    8.453000    9.362000 H         1 <1>         0.119500 
     29 C          17.022000    7.434000   11.252000 C.ar      1 <1>         0.068500 
     30 O          18.274000    6.905000   11.447000 O.3       1 <1>        -0.259800 
     31 C          19.293000    7.230000   10.504000 C.3       1 <1>         0.014700 
     32 H          20.201000    6.696000   10.801000 H         1 <1>         0.059700 
     33 H          19.517000    8.302000   10.521000 H         1 <1>         0.039300 
     34 H          19.022000    6.893000    9.498000 H         1 <1>         0.039400 
     35 O          13.134000    8.931000   10.898000 O.3       1 <1>        -0.291500 
     36 C          12.772000    9.777000    9.807000 C.3       1 <1>         0.027800 
     37 H          11.720000   10.049000    9.932000 H         1 <1>         0.063200 
     38 H          12.871000    9.250000    8.852000 H         1 <1>         0.038300 
     39 H          13.360000   10.701000    9.815000 H         1 <1>         0.036500 
     40 N           9.968000    1.052000   11.243000 N.pl3     1 <1>        -0.819900 
     41 H          10.372000    0.525000   10.483000 H         1 <1>         0.376800 
     42 H           9.004000    0.911000   11.508000 H         1 <1>         0.372700 
@<TRIPOS>BOND
     1    1    2 ar   
     2    2    3 ar   
     3    3    4 ar   
     4    4    5 ar   
     5    5    6 ar   
     6    6    1 ar   
     7    6    7 1    
     8    7    8 1    
     9    7    9 1    
    10    5   10 ar   
    11   10   11 ar   
    12   11   12 ar   
    13   12   13 1    
    14   12   14 ar   
    15   14   15 1    
    16   14    4 ar   
    17   11   16 1    
    18   16   17 1    
    19   16   18 1    
    20   16   19 1    
    21   19   20 1    
    22   19   21 1    
    23   21   22 ar   
    24   22   23 1    
    25   22   24 ar   
    26   24   25 ar   
    27   25   26 1    
    28   25   27 ar   
    29   27   28 1    
    30   27   29 ar   
    31   29   21 ar   
    32   29   30 1    
    33   30   31 1    
    34   31   32 1    
    35   31   33 1    
    36   31   34 1    
    37   24   35 1    
    38   35   36 1    
    39   36   37 1    
    40   36   38 1    
    41   36   39 1    
    42    2   40 1    
    43   40   41 1    
    44   40   42 1    
@<TRIPOS>SUBSTRUCTURE
     1 ****        1 TEMP              0 ****  ****    0 ROOT 
@<TRIPOS>SET
UNITY_3DHIT     STATIC     ATOMS    <user>   **** Atoms matching 3D or FLEX Search
0
