#	Name:			14-8
#	Creating user name:	jeff
#	Creation time:		Thu Dec  4 18:13:26 2003

#	Modifying user name:	jeff
#	Modification time:	Thu Dec  4 18:13:26 2003

@<TRIPOS>MOLECULE
14-8
   37    39     1     0     1
SMALL
USER_CHARGES
****
From 3DB ct
@<TRIPOS>ATOM
      1 N          10.151000    2.638000   12.912000 N.ar      1 <1>        -0.666100 
      2 C          10.712000    1.961000   11.912000 C.ar      1 <1>         0.797600 
      3 N          11.978000    2.107000   11.524000 N.ar      1 <1>        -0.637000 
      4 C          12.731000    3.001000   12.191000 C.ar      1 <1>         0.250700 
      5 C          12.268000    3.773000   13.258000 C.ar      1 <1>        -0.130900 
      6 C          10.931000    3.517000   13.574000 C.ar      1 <1>         0.634700 
      7 N          10.294000    4.235000   14.579000 N.pl3     1 <1>        -0.756300 
      8 H          10.870000    4.575000   15.345000 H         1 <1>         0.357100 
      9 H           9.337000    3.978000   14.793000 H         1 <1>         0.354800 
     10 N          13.051000    4.676000   13.926000 N.ar      1 <1>        -0.374400 
     11 C          14.343000    4.835000   13.535000 C.ar      1 <1>         0.352900 
     12 C          14.871000    4.106000   12.479000 C.ar      1 <1>        -0.293400 
     13 H          15.904000    4.236000   12.166000 H         1 <1>         0.156000 
     14 C          14.052000    3.191000   11.817000 C.ar      1 <1>        -0.047300 
     15 H          14.463000    2.615000   10.990000 H         1 <1>         0.121400 
     16 C          15.207000    5.847000   14.281000 C.3       1 <1>        -0.160100 
     17 H          15.614000    5.298000   15.139000 H         1 <1>         0.102300 
     18 H          14.589000    6.660000   14.683000 H         1 <1>         0.093900 
     19 N          16.285000    6.428000   13.451000 N.pl3     1 <1>        -0.230100 
     20 C          16.007000    7.170000   12.312000 C.ar      1 <1>         0.297600 
     21 C          16.978000    7.419000   11.326000 C.ar      1 <1>        -0.349200 
     22 H          17.998000    7.055000   11.439000 H         1 <1>         0.128700 
     23 C          16.695000    8.171000   10.177000 C.ar      1 <1>         0.236000 
     24 H          17.479000    8.342000    9.443000 H         1 <1>         0.047100 
     25 C          15.423000    8.695000    9.988000 C.ar      1 <1>        -0.505700 
     26 C          14.438000    8.474000   10.941000 C.ar      1 <1>         0.219200 
     27 H          13.436000    8.875000   10.808000 H         1 <1>         0.051400 
     28 C          14.733000    7.722000   12.087000 C.ar      1 <1>        -0.298600 
     29 H          13.924000    7.559000   12.798000 H         1 <1>         0.121800 
     30 Cl         15.069000    9.617000    8.580000 Cl        1 <1>         0.070000 
     31 C          17.673000    6.119000   13.800000 C.3       1 <1>        -0.016700 
     32 H          18.130000    6.958000   14.335000 H         1 <1>         0.041000 
     33 H          18.269000    5.896000   12.907000 H         1 <1>         0.040300 
     34 H          17.741000    5.231000   14.437000 H         1 <1>         0.058800 
     35 N           9.943000    1.064000   11.239000 N.pl3     1 <1>        -0.821000 
     36 H          10.339000    0.539000   10.474000 H         1 <1>         0.379000 
     37 H           8.978000    0.932000   11.505000 H         1 <1>         0.374500 
@<TRIPOS>BOND
     1    1    2 ar   
     2    2    3 ar   
     3    3    4 ar   
     4    4    5 ar   
     5    5    6 ar   
     6    6    1 ar   
     7    6    7 1    
     8    7    8 1    
     9    7    9 1    
    10    5   10 ar   
    11   10   11 ar   
    12   11   12 ar   
    13   12   13 1    
    14   12   14 ar   
    15   14   15 1    
    16   14    4 ar   
    17   11   16 1    
    18   16   17 1    
    19   16   18 1    
    20   16   19 1    
    21   19   20 1    
    22   20   21 ar   
    23   21   22 1    
    24   21   23 ar   
    25   23   24 1    
    26   23   25 ar   
    27   25   26 ar   
    28   26   27 1    
    29   26   28 ar   
    30   28   29 1    
    31   28   20 ar   
    32   25   30 1    
    33   19   31 1    
    34   31   32 1    
    35   31   33 1    
    36   31   34 1    
    37    2   35 1    
    38   35   36 1    
    39   35   37 1    
@<TRIPOS>SUBSTRUCTURE
     1 ****        1 TEMP              0 ****  ****    0 ROOT 
@<TRIPOS>SET
UNITY_3DHIT     STATIC     ATOMS    <user>   **** Atoms matching 3D or FLEX Search
0
