#	Name:			14-9
#	Creating user name:	jeff
#	Creation time:		Thu Dec  4 18:13:26 2003

#	Modifying user name:	jeff
#	Modification time:	Thu Dec  4 18:13:26 2003

@<TRIPOS>MOLECULE
14-9
   37    39     1     0     1
SMALL
USER_CHARGES
****
From 3DB ct
@<TRIPOS>ATOM
      1 N          10.151000    2.638000   12.913000 N.ar      1 <1>        -0.664500 
      2 C          10.712000    1.960000   11.913000 C.ar      1 <1>         0.793700 
      3 N          11.978000    2.107000   11.524000 N.ar      1 <1>        -0.636000 
      4 C          12.730000    3.002000   12.189000 C.ar      1 <1>         0.252600 
      5 C          12.268000    3.773000   13.257000 C.ar      1 <1>        -0.128500 
      6 C          10.931000    3.518000   13.573000 C.ar      1 <1>         0.632700 
      7 N          10.295000    4.238000   14.578000 N.pl3     1 <1>        -0.758300 
      8 H          10.871000    4.581000   15.341000 H         1 <1>         0.357600 
      9 H           9.338000    3.981000   14.793000 H         1 <1>         0.355500 
     10 N          13.051000    4.677000   13.925000 N.ar      1 <1>        -0.372300 
     11 C          14.342000    4.835000   13.534000 C.ar      1 <1>         0.328300 
     12 C          14.870000    4.108000   12.476000 C.ar      1 <1>        -0.273500 
     13 H          15.903000    4.238000   12.163000 H         1 <1>         0.149900 
     14 C          14.051000    3.193000   11.814000 C.ar      1 <1>        -0.054500 
     15 H          14.461000    2.618000   10.986000 H         1 <1>         0.122400 
     16 C          15.208000    5.844000   14.284000 C.3       1 <1>        -0.115300 
     17 H          15.616000    5.290000   15.138000 H         1 <1>         0.094700 
     18 H          14.592000    6.656000   14.688000 H         1 <1>         0.084300 
     19 N          16.285000    6.427000   13.453000 N.pl3     1 <1>        -0.243500 
     20 C          16.005000    7.170000   12.313000 C.ar      1 <1>         0.128000 
     21 C          14.732000    7.720000   12.075000 C.ar      1 <1>        -0.117000 
     22 H          13.912000    7.556000   12.771000 H         1 <1>         0.099400 
     23 C          14.449000    8.470000   10.925000 C.ar      1 <1>        -0.146500 
     24 H          13.450000    8.874000   10.775000 H         1 <1>         0.122200 
     25 C          15.438000    8.689000    9.974000 C.ar      1 <1>         0.064400 
     26 H          15.215000    9.270000    9.083000 H         1 <1>         0.061800 
     27 C          16.704000    8.155000   10.181000 C.ar      1 <1>        -0.336700 
     28 C          16.982000    7.406000   11.330000 C.ar      1 <1>         0.011600 
     29 H          17.992000    7.024000   11.459000 H         1 <1>         0.055600 
     30 Cl         17.942000    8.419000    9.013000 Cl        1 <1>         0.063100 
     31 C          17.673000    6.127000   13.806000 C.3       1 <1>        -0.004000 
     32 H          18.122000    6.969000   14.343000 H         1 <1>         0.042300 
     33 H          18.273000    5.908000   12.916000 H         1 <1>         0.044200 
     34 H          17.744000    5.240000   14.444000 H         1 <1>         0.052700 
     35 N           9.945000    1.061000   11.242000 N.pl3     1 <1>        -0.818200 
     36 H          10.342000    0.534000   10.479000 H         1 <1>         0.378200 
     37 H           8.981000    0.927000   11.510000 H         1 <1>         0.373600 
@<TRIPOS>BOND
     1    1    2 ar   
     2    2    3 ar   
     3    3    4 ar   
     4    4    5 ar   
     5    5    6 ar   
     6    6    1 ar   
     7    6    7 1    
     8    7    8 1    
     9    7    9 1    
    10    5   10 ar   
    11   10   11 ar   
    12   11   12 ar   
    13   12   13 1    
    14   12   14 ar   
    15   14   15 1    
    16   14    4 ar   
    17   11   16 1    
    18   16   17 1    
    19   16   18 1    
    20   16   19 1    
    21   19   20 1    
    22   20   21 ar   
    23   21   22 1    
    24   21   23 ar   
    25   23   24 1    
    26   23   25 ar   
    27   25   26 1    
    28   25   27 ar   
    29   27   28 ar   
    30   28   29 1    
    31   28   20 ar   
    32   27   30 1    
    33   19   31 1    
    34   31   32 1    
    35   31   33 1    
    36   31   34 1    
    37    2   35 1    
    38   35   36 1    
    39   35   37 1    
@<TRIPOS>SUBSTRUCTURE
     1 ****        1 TEMP              0 ****  ****    0 ROOT 
@<TRIPOS>SET
UNITY_3DHIT     STATIC     ATOMS    <user>   **** Atoms matching 3D or FLEX Search
0
