#	Name:			15-13
#	Creating user name:	jeff
#	Creation time:		Thu Dec  4 18:13:26 2003

#	Modifying user name:	jeff
#	Modification time:	Thu Dec  4 18:13:26 2003

@<TRIPOS>MOLECULE
15-13
   46    48     1     0     1
SMALL
USER_CHARGES
****
From 3DB ct
@<TRIPOS>ATOM
      1 N          10.154000    2.714000   12.827000 N.ar      1 <1>        -0.665200 
      2 C          10.747000    2.035000   11.846000 C.ar      1 <1>         0.780300 
      3 N          12.033000    2.155000   11.515000 N.ar      1 <1>        -0.666600 
      4 C          12.775000    3.026000   12.211000 C.ar      1 <1>         0.461400 
      5 C          12.265000    3.791000   13.256000 C.ar      1 <1>        -0.446800 
      6 C          10.912000    3.567000   13.536000 C.ar      1 <1>         0.681100 
      7 N          10.239000    4.261000   14.527000 N.pl3     1 <1>        -0.763800 
      8 H          10.721000    4.436000   15.403000 H         1 <1>         0.336300 
      9 H           9.259000    4.015000   14.630000 H         1 <1>         0.325700 
     10 C          13.113000    4.712000   13.940000 C.ar      1 <1>        -0.085700 
     11 H          12.666000    5.301000   14.738000 H         1 <1>         0.095600 
     12 C          14.469000    4.888000   13.619000 C.ar      1 <1>         0.117600 
     13 C          14.940000    4.093000   12.569000 C.ar      1 <1>        -0.087700 
     14 H          15.976000    4.143000   12.239000 H         1 <1>         0.121600 
     15 C          14.110000    3.189000   11.885000 C.ar      1 <1>        -0.228200 
     16 H          14.536000    2.600000   11.073000 H         1 <1>         0.135900 
     17 N          15.281000    5.785000   14.301000 N.pl3     1 <1>        -0.264100 
     18 C          16.321000    6.590000   13.625000 C.3       1 <1>         0.066700 
     19 H          17.181000    5.958000   13.366000 H         1 <1>         0.038700 
     20 H          16.710000    7.330000   14.334000 H         1 <1>         0.067600 
     21 C          15.848000    7.249000   12.337000 C.ar      1 <1>        -0.285300 
     22 C          14.503000    7.609000   12.152000 C.ar      1 <1>         0.144400 
     23 H          13.773000    7.449000   12.944000 H         1 <1>         0.094100 
     24 C          14.072000    8.184000   10.956000 C.ar      1 <1>        -0.422500 
     25 H          13.025000    8.462000   10.845000 H         1 <1>         0.168100 
     26 C          14.969000    8.400000    9.912000 C.ar      1 <1>         0.401300 
     27 C          16.306000    8.027000   10.070000 C.ar      1 <1>        -0.390500 
     28 H          17.003000    8.184000    9.255000 H         1 <1>         0.142400 
     29 C          16.749000    7.447000   11.269000 C.ar      1 <1>         0.311200 
     30 O          18.039000    7.035000   11.496000 O.3       1 <1>        -0.236400 
     31 C          18.982000    7.190000   10.437000 C.3       1 <1>        -0.010700 
     32 H          19.947000    6.822000   10.796000 H         1 <1>         0.069800 
     33 H          19.105000    8.245000   10.171000 H         1 <1>         0.044800 
     34 H          18.698000    6.588000    9.567000 H         1 <1>         0.049000 
     35 O          14.418000    8.972000    8.798000 O.3       1 <1>        -0.298000 
     36 C          15.290000    9.216000    7.696000 C.3       1 <1>         0.060800 
     37 H          14.700000    9.681000    6.901000 H         1 <1>         0.058400 
     38 H          15.700000    8.280000    7.305000 H         1 <1>         0.028800 
     39 H          16.087000    9.915000    7.973000 H         1 <1>         0.024700 
     40 C          15.083000    6.049000   15.730000 C.3       1 <1>        -0.038400 
     41 H          15.857000    6.712000   16.132000 H         1 <1>         0.067100 
     42 H          15.136000    5.122000   16.311000 H         1 <1>         0.036400 
     43 H          14.116000    6.535000   15.901000 H         1 <1>         0.043900 
     44 N           9.990000    1.159000   11.132000 N.pl3     1 <1>        -0.834100 
     45 H          10.410000    0.628000   10.384000 H         1 <1>         0.379000 
     46 H           9.013000    1.043000   11.358000 H         1 <1>         0.371100 
@<TRIPOS>BOND
     1    1    2 ar   
     2    2    3 ar   
     3    3    4 ar   
     4    4    5 ar   
     5    5    6 ar   
     6    6    1 ar   
     7    6    7 1    
     8    7    8 1    
     9    7    9 1    
    10    5   10 ar   
    11   10   11 1    
    12   10   12 ar   
    13   12   13 ar   
    14   13   14 1    
    15   13   15 ar   
    16   15   16 1    
    17   15    4 ar   
    18   12   17 1    
    19   17   18 1    
    20   18   19 1    
    21   18   20 1    
    22   18   21 1    
    23   21   22 ar   
    24   22   23 1    
    25   22   24 ar   
    26   24   25 1    
    27   24   26 ar   
    28   26   27 ar   
    29   27   28 1    
    30   27   29 ar   
    31   29   21 ar   
    32   29   30 1    
    33   30   31 1    
    34   31   32 1    
    35   31   33 1    
    36   31   34 1    
    37   26   35 1    
    38   35   36 1    
    39   36   37 1    
    40   36   38 1    
    41   36   39 1    
    42   17   40 1    
    43   40   41 1    
    44   40   42 1    
    45   40   43 1    
    46    2   44 1    
    47   44   45 1    
    48   44   46 1    
@<TRIPOS>SUBSTRUCTURE
     1 ****        1 TEMP              0 ****  ****    0 ROOT 
@<TRIPOS>SET
UNITY_3DHIT     STATIC     ATOMS    <user>   **** Atoms matching 3D or FLEX Search
0
