#	Name:			15-15
#	Creating user name:	jeff
#	Creation time:		Thu Dec  4 18:13:27 2003

#	Modifying user name:	jeff
#	Modification time:	Thu Dec  4 18:13:27 2003

@<TRIPOS>MOLECULE
15-15
   44    47     1     0     1
SMALL
USER_CHARGES
****
From 3DB ct
@<TRIPOS>ATOM
      1 N          10.151000    2.715000   12.833000 N.ar      1 <1>        -0.670900 
      2 C          10.746000    2.033000   11.856000 C.ar      1 <1>         0.792500 
      3 N          12.034000    2.147000   11.531000 N.ar      1 <1>        -0.670800 
      4 C          12.777000    3.016000   12.228000 C.ar      1 <1>         0.451100 
      5 C          12.265000    3.783000   13.272000 C.ar      1 <1>        -0.449600 
      6 C          10.909000    3.565000   13.544000 C.ar      1 <1>         0.686200 
      7 N          10.235000    4.265000   14.531000 N.pl3     1 <1>        -0.762600 
      8 H          10.712000    4.438000   15.409000 H         1 <1>         0.334700 
      9 H           9.252000    4.025000   14.628000 H         1 <1>         0.326100 
     10 C          13.111000    4.704000   13.957000 C.ar      1 <1>        -0.086700 
     11 H          12.663000    5.316000   14.737000 H         1 <1>         0.096300 
     12 C          14.463000    4.874000   13.632000 C.ar      1 <1>         0.156400 
     13 C          14.942000    4.079000   12.584000 C.ar      1 <1>        -0.118400 
     14 H          15.985000    4.130000   12.275000 H         1 <1>         0.115600 
     15 C          14.114000    3.174000   11.903000 C.ar      1 <1>        -0.204700 
     16 H          14.540000    2.581000   11.095000 H         1 <1>         0.135500 
     17 N          15.284000    5.774000   14.296000 N.pl3     1 <1>        -0.321500 
     18 C          16.346000    6.519000   13.595000 C.3       1 <1>         0.024600 
     19 H          17.162000    5.864000   13.266000 H         1 <1>         0.061600 
     20 H          16.795000    7.230000   14.300000 H         1 <1>         0.072300 
     21 C          15.851000    7.248000   12.350000 C.ar      1 <1>        -0.027400 
     22 C          16.668000    7.446000   11.199000 C.ar      1 <1>        -0.030100 
     23 C          16.125000    8.143000   10.088000 C.ar      1 <1>         0.149700 
     24 C          14.808000    8.621000   10.135000 C.ar      1 <1>        -0.199600 
     25 H          14.383000    9.156000    9.286000 H         1 <1>         0.130500 
     26 C          14.017000    8.427000   11.264000 C.ar      1 <1>        -0.105300 
     27 H          12.997000    8.806000   11.286000 H         1 <1>         0.111500 
     28 C          14.534000    7.750000   12.362000 C.ar      1 <1>        -0.090600 
     29 H          13.898000    7.607000   13.236000 H         1 <1>         0.118400 
     30 C          16.905000    8.357000    8.939000 C.ar      1 <1>        -0.200000 
     31 H          16.492000    8.892000    8.083000 H         1 <1>         0.124100 
     32 C          18.217000    7.895000    8.865000 C.ar      1 <1>        -0.070800 
     33 H          18.808000    8.069000    7.968000 H         1 <1>         0.100800 
     34 C          18.766000    7.211000    9.941000 C.ar      1 <1>        -0.115900 
     35 H          19.790000    6.845000    9.890000 H         1 <1>         0.108900 
     36 C          18.003000    6.991000   11.090000 C.ar      1 <1>        -0.110000 
     37 H          18.473000    6.448000   11.908000 H         1 <1>         0.097300 
     38 C          15.195000    5.886000   15.754000 C.3       1 <1>        -0.021300 
     39 H          16.130000    6.250000   16.191000 H         1 <1>         0.064000 
     40 H          15.007000    4.911000   16.220000 H         1 <1>         0.037400 
     41 H          14.392000    6.576000   16.035000 H         1 <1>         0.045200 
     42 N           9.989000    1.160000   11.138000 N.pl3     1 <1>        -0.837900 
     43 H          10.409000    0.633000   10.387000 H         1 <1>         0.380800 
     44 H           9.009000    1.053000   11.353000 H         1 <1>         0.372600 
@<TRIPOS>BOND
     1    1    2 ar   
     2    2    3 ar   
     3    3    4 ar   
     4    4    5 ar   
     5    5    6 ar   
     6    6    1 ar   
     7    6    7 1    
     8    7    8 1    
     9    7    9 1    
    10    5   10 ar   
    11   10   11 1    
    12   10   12 ar   
    13   12   13 ar   
    14   13   14 1    
    15   13   15 ar   
    16   15   16 1    
    17   15    4 ar   
    18   12   17 1    
    19   17   18 1    
    20   18   19 1    
    21   18   20 1    
    22   18   21 1    
    23   21   22 ar   
    24   22   23 ar   
    25   23   24 ar   
    26   24   25 1    
    27   24   26 ar   
    28   26   27 1    
    29   26   28 ar   
    30   28   29 1    
    31   28   21 ar   
    32   23   30 ar   
    33   30   31 1    
    34   30   32 ar   
    35   32   33 1    
    36   32   34 ar   
    37   34   35 1    
    38   34   36 ar   
    39   36   37 1    
    40   36   22 ar   
    41   17   38 1    
    42   38   39 1    
    43   38   40 1    
    44   38   41 1    
    45    2   42 1    
    46   42   43 1    
    47   42   44 1    
@<TRIPOS>SUBSTRUCTURE
     1 ****        1 TEMP              0 ****  ****    0 ROOT 
@<TRIPOS>SET
UNITY_3DHIT     STATIC     ATOMS    <user>   **** Atoms matching 3D or FLEX Search
0
