#	Name:			15-11
#	Creating user name:	jeff
#	Creation time:		Thu Dec  4 18:13:26 2003

#	Modifying user name:	jeff
#	Modification time:	Thu Dec  4 18:13:26 2003

@<TRIPOS>MOLECULE
15-11
   46    48     1     0     1
SMALL
USER_CHARGES
****
From 3DB ct
@<TRIPOS>ATOM
      1 N          10.153000    2.711000   12.826000 N.ar      1 <1>        -0.668300 
      2 C          10.748000    2.031000   11.846000 C.ar      1 <1>         0.784700 
      3 N          12.032000    2.156000   11.513000 N.ar      1 <1>        -0.670000 
      4 C          12.773000    3.031000   12.207000 C.ar      1 <1>         0.459800 
      5 C          12.262000    3.794000   13.253000 C.ar      1 <1>        -0.452100 
      6 C          10.908000    3.567000   13.532000 C.ar      1 <1>         0.684300 
      7 N          10.233000    4.263000   14.520000 N.pl3     1 <1>        -0.765600 
      8 H          10.713000    4.444000   15.395000 H         1 <1>         0.338400 
      9 H           9.253000    4.016000   14.622000 H         1 <1>         0.326900 
     10 C          13.109000    4.716000   13.937000 C.ar      1 <1>        -0.076900 
     11 H          12.662000    5.304000   14.735000 H         1 <1>         0.091100 
     12 C          14.463000    4.897000   13.611000 C.ar      1 <1>         0.126900 
     13 C          14.935000    4.105000   12.559000 C.ar      1 <1>        -0.101300 
     14 H          15.972000    4.155000   12.233000 H         1 <1>         0.119300 
     15 C          14.107000    3.198000   11.877000 C.ar      1 <1>        -0.218900 
     16 H          14.533000    2.610000   11.065000 H         1 <1>         0.135000 
     17 N          15.274000    5.794000   14.292000 N.pl3     1 <1>        -0.258200 
     18 C          16.321000    6.588000   13.619000 C.3       1 <1>         0.033300 
     19 H          17.169000    5.938000   13.365000 H         1 <1>         0.041700 
     20 H          16.723000    7.328000   14.322000 H         1 <1>         0.069600 
     21 C          15.871000    7.264000   12.332000 C.ar      1 <1>        -0.075600 
     22 C          14.538000    7.673000   12.129000 C.ar      1 <1>        -0.178700 
     23 H          13.799000    7.529000   12.915000 H         1 <1>         0.133300 
     24 C          14.129000    8.275000   10.936000 C.ar      1 <1>         0.249100 
     25 C          15.060000    8.463000    9.919000 C.ar      1 <1>        -0.202900 
     26 H          14.794000    8.927000    8.973000 H         1 <1>         0.130000 
     27 C          16.385000    8.048000   10.092000 C.ar      1 <1>        -0.203900 
     28 H          17.071000    8.211000    9.264000 H         1 <1>         0.130600 
     29 C          16.797000    7.446000   11.285000 C.ar      1 <1>         0.194900 
     30 O          18.070000    6.997000   11.528000 O.3       1 <1>        -0.239800 
     31 C          19.019000    7.109000   10.470000 C.3       1 <1>        -0.009100 
     32 H          19.968000    6.700000   10.831000 H         1 <1>         0.068300 
     33 H          19.188000    8.157000   10.201000 H         1 <1>         0.043800 
     34 H          18.712000    6.518000    9.601000 H         1 <1>         0.049500 
     35 O          12.809000    8.627000   10.892000 O.3       1 <1>        -0.296000 
     36 C          12.347000    9.246000    9.691000 C.3       1 <1>         0.071900 
     37 H          11.284000    9.468000    9.820000 H         1 <1>         0.053800 
     38 H          12.446000    8.568000    8.837000 H         1 <1>         0.026400 
     39 H          12.867000   10.192000    9.511000 H         1 <1>         0.023300 
     40 C          15.060000    6.079000   15.714000 C.3       1 <1>        -0.022800 
     41 H          15.865000    6.697000   16.128000 H         1 <1>         0.066300 
     42 H          15.048000    5.154000   16.302000 H         1 <1>         0.027100 
     43 H          14.120000    6.620000   15.862000 H         1 <1>         0.045600 
     44 N           9.995000    1.149000   11.136000 N.pl3     1 <1>        -0.833600 
     45 H          10.417000    0.616000   10.390000 H         1 <1>         0.378800 
     46 H           9.020000    1.024000   11.367000 H         1 <1>         0.370000 
@<TRIPOS>BOND
     1    1    2 ar   
     2    2    3 ar   
     3    3    4 ar   
     4    4    5 ar   
     5    5    6 ar   
     6    6    1 ar   
     7    6    7 1    
     8    7    8 1    
     9    7    9 1    
    10    5   10 ar   
    11   10   11 1    
    12   10   12 ar   
    13   12   13 ar   
    14   13   14 1    
    15   13   15 ar   
    16   15   16 1    
    17   15    4 ar   
    18   12   17 1    
    19   17   18 1    
    20   18   19 1    
    21   18   20 1    
    22   18   21 1    
    23   21   22 ar   
    24   22   23 1    
    25   22   24 ar   
    26   24   25 ar   
    27   25   26 1    
    28   25   27 ar   
    29   27   28 1    
    30   27   29 ar   
    31   29   21 ar   
    32   29   30 1    
    33   30   31 1    
    34   31   32 1    
    35   31   33 1    
    36   31   34 1    
    37   24   35 1    
    38   35   36 1    
    39   36   37 1    
    40   36   38 1    
    41   36   39 1    
    42   17   40 1    
    43   40   41 1    
    44   40   42 1    
    45   40   43 1    
    46    2   44 1    
    47   44   45 1    
    48   44   46 1    
@<TRIPOS>SUBSTRUCTURE
     1 ****        1 TEMP              0 ****  ****    0 ROOT 
@<TRIPOS>SET
UNITY_3DHIT     STATIC     ATOMS    <user>   **** Atoms matching 3D or FLEX Search
0
