#	Name:			15-14
#	Creating user name:	jeff
#	Creation time:		Thu Dec  4 18:13:26 2003

#	Modifying user name:	jeff
#	Modification time:	Thu Dec  4 18:13:27 2003

@<TRIPOS>MOLECULE
15-14
   50    52     1     0     1
SMALL
USER_CHARGES
****
From 3DB ct
@<TRIPOS>ATOM
      1 N          10.149000    2.715000   12.817000 N.ar      1 <1>        -0.670600 
      2 C          10.747000    2.044000   11.833000 C.ar      1 <1>         0.791900 
      3 N          12.035000    2.161000   11.514000 N.ar      1 <1>        -0.670400 
      4 C          12.776000    3.023000   12.223000 C.ar      1 <1>         0.450100 
      5 C          12.262000    3.779000   13.272000 C.ar      1 <1>        -0.452000 
      6 C          10.906000    3.557000   13.540000 C.ar      1 <1>         0.691100 
      7 N          10.229000    4.241000   14.535000 N.pl3     1 <1>        -0.770000 
      8 H          10.706000    4.405000   15.415000 H         1 <1>         0.339100 
      9 H           9.248000    3.996000   14.629000 H         1 <1>         0.328600 
     10 C          13.108000    4.693000   13.969000 C.ar      1 <1>        -0.083600 
     11 H          12.653000    5.272000   14.768000 H         1 <1>         0.095200 
     12 C          14.463000    4.874000   13.653000 C.ar      1 <1>         0.159200 
     13 C          14.940000    4.083000   12.600000 C.ar      1 <1>        -0.136600 
     14 H          15.977000    4.138000   12.277000 H         1 <1>         0.132600 
     15 C          14.114000    3.184000   11.906000 C.ar      1 <1>        -0.195800 
     16 H          14.543000    2.602000   11.092000 H         1 <1>         0.130400 
     17 N          15.277000    5.775000   14.326000 N.pl3     1 <1>        -0.318100 
     18 C          16.344000    6.546000   13.654000 C.3       1 <1>         0.066500 
     19 H          17.183000    5.890000   13.389000 H         1 <1>         0.043900 
     20 H          16.759000    7.270000   14.366000 H         1 <1>         0.068500 
     21 C          15.888000    7.225000   12.375000 C.ar      1 <1>        -0.090700 
     22 C          14.556000    7.635000   12.193000 C.ar      1 <1>        -0.012600 
     23 H          13.823000    7.486000   12.984000 H         1 <1>         0.118600 
     24 C          14.134000    8.249000   11.006000 C.ar      1 <1>        -0.296900 
     25 H          13.090000    8.543000   10.937000 H         1 <1>         0.158400 
     26 C          15.036000    8.472000    9.966000 C.ar      1 <1>         0.271600 
     27 C          16.367000    8.062000   10.132000 C.ar      1 <1>         0.002400 
     28 C          16.778000    7.403000   11.303000 C.ar      1 <1>         0.095100 
     29 O          18.081000    6.990000   11.445000 O.3       1 <1>        -0.228500 
     30 C          18.242000    5.659000   10.941000 C.3       1 <1>        -0.009600 
     31 H          19.245000    5.319000   11.217000 H         1 <1>         0.059500 
     32 H          18.167000    5.636000    9.849000 H         1 <1>         0.048500 
     33 H          17.516000    4.972000   11.390000 H         1 <1>         0.060600 
     34 O          17.267000    8.264000    9.110000 O.3       1 <1>        -0.263800 
     35 C          18.555000    7.772000    9.496000 C.3       1 <1>         0.025300 
     36 H          19.253000    7.991000    8.682000 H         1 <1>         0.067000 
     37 H          18.537000    6.688000    9.646000 H         1 <1>         0.037200 
     38 H          18.919000    8.275000   10.399000 H         1 <1>         0.034200 
     39 O          14.729000    9.068000    8.771000 O.3       1 <1>        -0.298600 
     40 C          15.789000    9.209000    7.826000 C.3       1 <1>         0.104300 
     41 H          15.376000    9.685000    6.932000 H         1 <1>         0.033100 
     42 H          16.186000    8.232000    7.532000 H         1 <1>         0.023600 
     43 H          16.579000    9.860000    8.216000 H         1 <1>         0.026400 
     44 C          15.078000    6.046000   15.753000 C.3       1 <1>        -0.029200 
     45 H          15.833000    6.735000   16.148000 H         1 <1>         0.065800 
     46 H          15.159000    5.125000   16.341000 H         1 <1>         0.042400 
     47 H          14.098000    6.505000   15.926000 H         1 <1>         0.039800 
     48 N           9.991000    1.182000   11.101000 N.pl3     1 <1>        -0.835800 
     49 H          10.413000    0.663000   10.346000 H         1 <1>         0.380000 
     50 H           9.009000    1.076000   11.311000 H         1 <1>         0.371900 
@<TRIPOS>BOND
     1    1    2 ar   
     2    2    3 ar   
     3    3    4 ar   
     4    4    5 ar   
     5    5    6 ar   
     6    6    1 ar   
     7    6    7 1    
     8    7    8 1    
     9    7    9 1    
    10    5   10 ar   
    11   10   11 1    
    12   10   12 ar   
    13   12   13 ar   
    14   13   14 1    
    15   13   15 ar   
    16   15   16 1    
    17   15    4 ar   
    18   12   17 1    
    19   17   18 1    
    20   18   19 1    
    21   18   20 1    
    22   18   21 1    
    23   21   22 ar   
    24   22   23 1    
    25   22   24 ar   
    26   24   25 1    
    27   24   26 ar   
    28   26   27 ar   
    29   27   28 ar   
    30   28   21 ar   
    31   28   29 1    
    32   29   30 1    
    33   30   31 1    
    34   30   32 1    
    35   30   33 1    
    36   27   34 1    
    37   34   35 1    
    38   35   36 1    
    39   35   37 1    
    40   35   38 1    
    41   26   39 1    
    42   39   40 1    
    43   40   41 1    
    44   40   42 1    
    45   40   43 1    
    46   17   44 1    
    47   44   45 1    
    48   44   46 1    
    49   44   47 1    
    50    2   48 1    
    51   48   49 1    
    52   48   50 1    
@<TRIPOS>SUBSTRUCTURE
     1 ****        1 TEMP              0 ****  ****    0 ROOT 
@<TRIPOS>SET
UNITY_3DHIT     STATIC     ATOMS    <user>   **** Atoms matching 3D or FLEX Search
0
