#	Name:			15-12
#	Creating user name:	jeff
#	Creation time:		Thu Dec  4 18:13:26 2003

#	Modifying user name:	jeff
#	Modification time:	Thu Dec  4 18:13:26 2003

@<TRIPOS>MOLECULE
15-12
   46    48     1     0     1
SMALL
USER_CHARGES
****
From 3DB ct
@<TRIPOS>ATOM
      1 N          10.155000    2.724000   12.834000 N.ar      1 <1>        -0.675300 
      2 C          10.741000    2.042000   11.851000 C.ar      1 <1>         0.801300 
      3 N          12.028000    2.149000   11.522000 N.ar      1 <1>        -0.674300 
      4 C          12.777000    3.014000   12.217000 C.ar      1 <1>         0.449500 
      5 C          12.276000    3.784000   13.262000 C.ar      1 <1>        -0.453500 
      6 C          10.921000    3.569000   13.543000 C.ar      1 <1>         0.691900 
      7 N          10.255000    4.263000   14.539000 N.pl3     1 <1>        -0.766300 
      8 H          10.740000    4.432000   15.414000 H         1 <1>         0.337700 
      9 H           9.274000    4.022000   14.643000 H         1 <1>         0.327600 
     10 C          13.134000    4.699000   13.944000 C.ar      1 <1>        -0.083000 
     11 H          12.690000    5.292000   14.739000 H         1 <1>         0.094000 
     12 C          14.491000    4.862000   13.621000 C.ar      1 <1>         0.176600 
     13 C          14.952000    4.060000   12.569000 C.ar      1 <1>        -0.135200 
     14 H          15.987000    4.103000   12.237000 H         1 <1>         0.116100 
     15 C          14.113000    3.162000   11.889000 C.ar      1 <1>        -0.196400 
     16 H          14.532000    2.568000   11.077000 H         1 <1>         0.133800 
     17 N          15.322000    5.750000   14.289000 N.pl3     1 <1>        -0.326500 
     18 C          16.374000    6.530000   13.611000 C.3       1 <1>         0.051400 
     19 H          17.216000    5.882000   13.334000 H         1 <1>         0.037800 
     20 H          16.798000    7.262000   14.310000 H         1 <1>         0.062900 
     21 C          15.895000    7.210000   12.341000 C.ar      1 <1>         0.151600 
     22 C          16.776000    7.560000   11.306000 C.ar      1 <1>        -0.382300 
     23 H          17.833000    7.313000   11.387000 H         1 <1>         0.152800 
     24 C          16.323000    8.218000   10.159000 C.ar      1 <1>         0.372500 
     25 C          14.973000    8.549000   10.052000 C.ar      1 <1>        -0.421100 
     26 H          14.584000    9.066000    9.178000 H         1 <1>         0.153100 
     27 C          14.078000    8.230000   11.079000 C.ar      1 <1>         0.415700 
     28 C          14.540000    7.567000   12.219000 C.ar      1 <1>        -0.367100 
     29 H          13.865000    7.316000   13.033000 H         1 <1>         0.157400 
     30 O          12.786000    8.622000   10.851000 O.3       1 <1>        -0.302000 
     31 C          12.514000    9.248000    9.598000 C.3       1 <1>         0.040300 
     32 H          11.450000    9.500000    9.576000 H         1 <1>         0.058700 
     33 H          12.714000    8.565000    8.766000 H         1 <1>         0.041400 
     34 H          13.080000   10.180000    9.494000 H         1 <1>         0.037400 
     35 O          17.292000    8.484000    9.230000 O.3       1 <1>        -0.284700 
     36 C          18.619000    8.065000    9.546000 C.3       1 <1>         0.019200 
     37 H          19.270000    8.378000    8.724000 H         1 <1>         0.065900 
     38 H          18.678000    6.974000    9.622000 H         1 <1>         0.042500 
     39 H          18.979000    8.549000   10.460000 H         1 <1>         0.037800 
     40 C          15.131000    6.025000   15.718000 C.3       1 <1>        -0.020100 
     41 H          15.904000    6.694000   16.112000 H         1 <1>         0.067300 
     42 H          15.192000    5.103000   16.306000 H         1 <1>         0.033800 
     43 H          14.163000    6.508000   15.892000 H         1 <1>         0.048200 
     44 N           9.976000    1.177000   11.132000 N.pl3     1 <1>        -0.844600 
     45 H          10.390000    0.655000   10.374000 H         1 <1>         0.382300 
     46 H           8.996000    1.075000   11.351000 H         1 <1>         0.374100 
@<TRIPOS>BOND
     1    1    2 ar   
     2    2    3 ar   
     3    3    4 ar   
     4    4    5 ar   
     5    5    6 ar   
     6    6    1 ar   
     7    6    7 1    
     8    7    8 1    
     9    7    9 1    
    10    5   10 ar   
    11   10   11 1    
    12   10   12 ar   
    13   12   13 ar   
    14   13   14 1    
    15   13   15 ar   
    16   15   16 1    
    17   15    4 ar   
    18   12   17 1    
    19   17   18 1    
    20   18   19 1    
    21   18   20 1    
    22   18   21 1    
    23   21   22 ar   
    24   22   23 1    
    25   22   24 ar   
    26   24   25 ar   
    27   25   26 1    
    28   25   27 ar   
    29   27   28 ar   
    30   28   29 1    
    31   28   21 ar   
    32   27   30 1    
    33   30   31 1    
    34   31   32 1    
    35   31   33 1    
    36   31   34 1    
    37   24   35 1    
    38   35   36 1    
    39   36   37 1    
    40   36   38 1    
    41   36   39 1    
    42   17   40 1    
    43   40   41 1    
    44   40   42 1    
    45   40   43 1    
    46    2   44 1    
    47   44   45 1    
    48   44   46 1    
@<TRIPOS>SUBSTRUCTURE
     1 ****        1 TEMP              0 ****  ****    0 ROOT 
@<TRIPOS>SET
UNITY_3DHIT     STATIC     ATOMS    <user>   **** Atoms matching 3D or FLEX Search
0
