#	Name:			15-10
#	Creating user name:	jeff
#	Creation time:		Thu Dec  4 18:13:26 2003

#	Modifying user name:	jeff
#	Modification time:	Thu Dec  4 18:13:26 2003

@<TRIPOS>MOLECULE
15-10
   41    44     1     0     1
SMALL
USER_CHARGES
****
From 3DB ct
@<TRIPOS>ATOM
      1 N          10.180000    2.737000   12.852000 N.ar      1 <1>        -0.670200 
      2 C          10.773000    2.054000   11.874000 C.ar      1 <1>         0.779100 
      3 N          12.057000    2.175000   11.538000 N.ar      1 <1>        -0.654400 
      4 C          12.800000    3.052000   12.225000 C.ar      1 <1>         0.422400 
      5 C          12.289000    3.823000   13.269000 C.ar      1 <1>        -0.407300 
      6 C          10.937000    3.596000   13.553000 C.ar      1 <1>         0.683400 
      7 N          10.265000    4.296000   14.541000 N.pl3     1 <1>        -0.757500 
      8 H          10.749000    4.481000   15.414000 H         1 <1>         0.335400 
      9 H           9.286000    4.049000   14.650000 H         1 <1>         0.323900 
     10 C          13.132000    4.750000   13.945000 C.ar      1 <1>        -0.181900 
     11 H          12.704000    5.349000   14.745000 H         1 <1>         0.103100 
     12 C          14.476000    4.911000   13.603000 C.ar      1 <1>         0.306900 
     13 C          14.963000    4.121000   12.562000 C.ar      1 <1>        -0.131000 
     14 H          16.004000    4.203000   12.252000 H         1 <1>         0.120100 
     15 C          14.136000    3.212000   11.889000 C.ar      1 <1>        -0.206100 
     16 H          14.558000    2.619000   11.079000 H         1 <1>         0.138300 
     17 N          15.326000    5.793000   14.231000 N.pl3     1 <1>        -0.700700 
     18 H          15.177000    6.001000   15.217000 H         1 <1>         0.350900 
     19 C          16.441000    6.468000   13.588000 C.3       1 <1>         0.152000 
     20 H          17.238000    5.762000   13.326000 H         1 <1>         0.061900 
     21 H          16.887000    7.192000   14.281000 H         1 <1>         0.038900 
     22 C          15.967000    7.190000   12.339000 C.ar      1 <1>        -0.025400 
     23 C          16.845000    7.527000   11.268000 C.ar      1 <1>        -0.058300 
     24 C          16.316000    8.210000   10.142000 C.ar      1 <1>         0.184000 
     25 C          14.951000    8.528000   10.092000 C.ar      1 <1>        -0.223500 
     26 H          14.536000    9.051000    9.230000 H         1 <1>         0.136200 
     27 C          14.097000    8.180000   11.134000 C.ar      1 <1>        -0.102400 
     28 H          13.039000    8.427000   11.079000 H         1 <1>         0.113100 
     29 C          14.600000    7.513000   12.247000 C.ar      1 <1>        -0.091200 
     30 H          13.916000    7.245000   13.052000 H         1 <1>         0.116600 
     31 C          17.156000    8.565000    9.074000 C.ar      1 <1>        -0.204700 
     32 H          16.756000    9.091000    8.207000 H         1 <1>         0.122900 
     33 C          18.515000    8.253000    9.094000 C.ar      1 <1>        -0.075400 
     34 H          19.152000    8.534000    8.258000 H         1 <1>         0.102100 
     35 C          19.049000    7.579000   10.184000 C.ar      1 <1>        -0.112900 
     36 H          20.108000    7.327000   10.204000 H         1 <1>         0.109100 
     37 C          18.226000    7.220000   11.254000 C.ar      1 <1>        -0.104700 
     38 H          18.686000    6.683000   12.083000 H         1 <1>         0.089100 
     39 N          10.017000    1.170000   11.168000 N.pl3     1 <1>        -0.830700 
     40 H          10.437000    0.637000   10.421000 H         1 <1>         0.376900 
     41 H           9.041000    1.053000   11.396000 H         1 <1>         0.372000 
@<TRIPOS>BOND
     1    1    2 ar   
     2    2    3 ar   
     3    3    4 ar   
     4    4    5 ar   
     5    5    6 ar   
     6    6    1 ar   
     7    6    7 1    
     8    7    8 1    
     9    7    9 1    
    10    5   10 ar   
    11   10   11 1    
    12   10   12 ar   
    13   12   13 ar   
    14   13   14 1    
    15   13   15 ar   
    16   15   16 1    
    17   15    4 ar   
    18   12   17 1    
    19   17   18 1    
    20   17   19 1    
    21   19   20 1    
    22   19   21 1    
    23   19   22 1    
    24   22   23 ar   
    25   23   24 ar   
    26   24   25 ar   
    27   25   26 1    
    28   25   27 ar   
    29   27   28 1    
    30   27   29 ar   
    31   29   30 1    
    32   29   22 ar   
    33   24   31 ar   
    34   31   32 1    
    35   31   33 ar   
    36   33   34 1    
    37   33   35 ar   
    38   35   36 1    
    39   35   37 ar   
    40   37   38 1    
    41   37   23 ar   
    42    2   39 1    
    43   39   40 1    
    44   39   41 1    
@<TRIPOS>SUBSTRUCTURE
     1 ****        1 TEMP              0 ****  ****    0 ROOT 
@<TRIPOS>SET
UNITY_3DHIT     STATIC     ATOMS    <user>   **** Atoms matching 3D or FLEX Search
0
