#	Name:			15-3
#	Creating user name:	jeff
#	Creation time:		Thu Dec  4 18:13:27 2003

#	Modifying user name:	jeff
#	Modification time:	Thu Dec  4 18:13:27 2003

@<TRIPOS>MOLECULE
15-3
   43    45     1     0     1
SMALL
USER_CHARGES
****
From 3DB ct
@<TRIPOS>ATOM
      1 N          10.183000    2.760000   12.874000 N.ar      1 <1>        -0.661200 
      2 C          10.749000    2.059000   11.893000 C.ar      1 <1>         0.761800 
      3 N          12.030000    2.155000   11.536000 N.ar      1 <1>        -0.645200 
      4 C          12.800000    3.023000   12.206000 C.ar      1 <1>         0.409000 
      5 C          12.317000    3.807000   13.254000 C.ar      1 <1>        -0.373500 
      6 C          10.966000    3.609000   13.559000 C.ar      1 <1>         0.667100 
      7 N          10.321000    4.328000   14.551000 N.pl3     1 <1>        -0.752200 
      8 H          10.823000    4.514000   15.414000 H         1 <1>         0.335100 
      9 H           9.339000    4.101000   14.676000 H         1 <1>         0.322300 
     10 C          13.189000    4.718000   13.911000 C.ar      1 <1>        -0.218400 
     11 H          12.798000    5.333000   14.720000 H         1 <1>         0.110500 
     12 C          14.534000    4.855000   13.549000 C.ar      1 <1>         0.333200 
     13 C          14.990000    4.058000   12.502000 C.ar      1 <1>        -0.152100 
     14 H          16.023000    4.108000   12.164000 H         1 <1>         0.135700 
     15 C          14.132000    3.161000   11.848000 C.ar      1 <1>        -0.201800 
     16 H          14.529000    2.559000   11.032000 H         1 <1>         0.133900 
     17 N          15.323000    5.755000   14.230000 N.pl3     1 <1>        -0.696600 
     18 H          15.230000    5.817000   15.243000 H         1 <1>         0.343200 
     19 C          16.317000    6.643000   13.639000 C.3       1 <1>         0.247900 
     20 H          17.208000    6.052000   13.394000 H         1 <1>         0.022300 
     21 H          16.632000    7.379000   14.386000 H         1 <1>         0.018400 
     22 C          15.837000    7.291000   12.353000 C.ar      1 <1>        -0.058300 
     23 C          14.462000    7.534000   12.153000 C.ar      1 <1>        -0.223800 
     24 H          13.751000    7.275000   12.937000 H         1 <1>         0.154600 
     25 C          13.985000    8.108000   10.973000 C.ar      1 <1>         0.267600 
     26 C          14.888000    8.427000    9.965000 C.ar      1 <1>        -0.215000 
     27 H          14.569000    8.872000    9.025000 H         1 <1>         0.130600 
     28 C          16.254000    8.170000   10.133000 C.ar      1 <1>        -0.174700 
     29 H          16.914000    8.429000    9.309000 H         1 <1>         0.124500 
     30 C          16.737000    7.598000   11.315000 C.ar      1 <1>         0.157900 
     31 O          18.053000    7.298000   11.546000 O.3       1 <1>        -0.269600 
     32 C          18.980000    7.541000   10.489000 C.3       1 <1>         0.034200 
     33 H          19.974000    7.255000   10.847000 H         1 <1>         0.060000 
     34 H          19.012000    8.604000   10.231000 H         1 <1>         0.035500 
     35 H          18.751000    6.923000    9.615000 H         1 <1>         0.041300 
     36 O          12.632000    8.299000   10.932000 O.3       1 <1>        -0.307300 
     37 C          12.102000    8.884000    9.743000 C.3       1 <1>         0.095600 
     38 H          11.024000    9.003000    9.883000 H         1 <1>         0.048500 
     39 H          12.257000    8.228000    8.880000 H         1 <1>         0.021500 
     40 H          12.528000    9.878000    9.568000 H         1 <1>         0.016900 
     41 N           9.966000    1.185000   11.205000 N.pl3     1 <1>        -0.820200 
     42 H          10.361000    0.641000   10.452000 H         1 <1>         0.372600 
     43 H           8.991000    1.092000   11.447000 H         1 <1>         0.367900 
@<TRIPOS>BOND
     1    1    2 ar   
     2    2    3 ar   
     3    3    4 ar   
     4    4    5 ar   
     5    5    6 ar   
     6    6    1 ar   
     7    6    7 1    
     8    7    8 1    
     9    7    9 1    
    10    5   10 ar   
    11   10   11 1    
    12   10   12 ar   
    13   12   13 ar   
    14   13   14 1    
    15   13   15 ar   
    16   15   16 1    
    17   15    4 ar   
    18   12   17 1    
    19   17   18 1    
    20   17   19 1    
    21   19   20 1    
    22   19   21 1    
    23   19   22 1    
    24   22   23 ar   
    25   23   24 1    
    26   23   25 ar   
    27   25   26 ar   
    28   26   27 1    
    29   26   28 ar   
    30   28   29 1    
    31   28   30 ar   
    32   30   22 ar   
    33   30   31 1    
    34   31   32 1    
    35   32   33 1    
    36   32   34 1    
    37   32   35 1    
    38   25   36 1    
    39   36   37 1    
    40   37   38 1    
    41   37   39 1    
    42   37   40 1    
    43    2   41 1    
    44   41   42 1    
    45   41   43 1    
@<TRIPOS>SUBSTRUCTURE
     1 ****        1 TEMP              0 ****  ****    0 ROOT 
@<TRIPOS>SET
UNITY_3DHIT     STATIC     ATOMS    <user>   **** Atoms matching 3D or FLEX Search
0
