#	Name:			15-4
#	Creating user name:	jeff
#	Creation time:		Thu Dec  4 18:13:27 2003

#	Modifying user name:	jeff
#	Modification time:	Thu Dec  4 18:13:27 2003

@<TRIPOS>MOLECULE
15-4
   43    45     1     0     1
SMALL
USER_CHARGES
****
From 3DB ct
@<TRIPOS>ATOM
      1 N          10.182000    2.757000   12.859000 N.ar      1 <1>        -0.664400 
      2 C          10.760000    2.071000   11.873000 C.ar      1 <1>         0.770000 
      3 N          12.045000    2.173000   11.534000 N.ar      1 <1>        -0.645000 
      4 C          12.805000    3.033000   12.225000 C.ar      1 <1>         0.400400 
      5 C          12.309000    3.804000   13.277000 C.ar      1 <1>        -0.362800 
      6 C          10.955000    3.599000   13.564000 C.ar      1 <1>         0.667300 
      7 N          10.297000    4.304000   14.557000 N.pl3     1 <1>        -0.747200 
      8 H          10.786000    4.479000   15.428000 H         1 <1>         0.332900 
      9 H           9.314000    4.072000   14.665000 H         1 <1>         0.321300 
     10 C          13.170000    4.711000   13.958000 C.ar      1 <1>        -0.233900 
     11 H          12.755000    5.304000   14.767000 H         1 <1>         0.112600 
     12 C          14.514000    4.858000   13.610000 C.ar      1 <1>         0.352900 
     13 C          14.985000    4.065000   12.562000 C.ar      1 <1>        -0.154200 
     14 H          16.026000    4.134000   12.248000 H         1 <1>         0.128200 
     15 C          14.141000    3.173000   11.886000 C.ar      1 <1>        -0.198700 
     16 H          14.551000    2.580000   11.070000 H         1 <1>         0.136400 
     17 N          15.382000    5.725000   14.234000 N.pl3     1 <1>        -0.691300 
     18 H          15.347000    5.795000   15.250000 H         1 <1>         0.348600 
     19 C          16.412000    6.528000   13.594000 C.3       1 <1>         0.153700 
     20 H          17.238000    5.870000   13.298000 H         1 <1>         0.039800 
     21 H          16.836000    7.246000   14.307000 H         1 <1>         0.038300 
     22 C          15.903000    7.216000   12.345000 C.ar      1 <1>         0.155000 
     23 C          16.779000    7.557000   11.302000 C.ar      1 <1>        -0.421100 
     24 H          17.835000    7.303000   11.383000 H         1 <1>         0.156100 
     25 C          16.318000    8.212000   10.157000 C.ar      1 <1>         0.394700 
     26 C          14.966000    8.539000   10.057000 C.ar      1 <1>        -0.412600 
     27 H          14.569000    9.046000    9.182000 H         1 <1>         0.149000 
     28 C          14.076000    8.217000   11.089000 C.ar      1 <1>         0.397700 
     29 C          14.547000    7.564000   12.230000 C.ar      1 <1>        -0.361100 
     30 H          13.878000    7.312000   13.049000 H         1 <1>         0.160200 
     31 O          12.780000    8.599000   10.863000 O.3       1 <1>        -0.306100 
     32 C          12.505000    9.242000    9.619000 C.3       1 <1>         0.065100 
     33 H          11.445000    9.513000    9.612000 H         1 <1>         0.052700 
     34 H          12.682000    8.562000    8.779000 H         1 <1>         0.036200 
     35 H          13.087000   10.164000    9.515000 H         1 <1>         0.031700 
     36 O          17.280000    8.473000    9.220000 O.3       1 <1>        -0.284000 
     37 C          18.611000    8.071000    9.538000 C.3       1 <1>        -0.003500 
     38 H          19.252000    8.345000    8.694000 H         1 <1>         0.072300 
     39 H          18.673000    6.985000    9.666000 H         1 <1>         0.049200 
     40 H          18.982000    8.598000   10.423000 H         1 <1>         0.044300 
     41 N           9.985000    1.208000   11.162000 N.pl3     1 <1>        -0.827500 
     42 H          10.393000    0.671000   10.411000 H         1 <1>         0.375600 
     43 H           9.008000    1.107000   11.395000 H         1 <1>         0.371200 
@<TRIPOS>BOND
     1    1    2 ar   
     2    2    3 ar   
     3    3    4 ar   
     4    4    5 ar   
     5    5    6 ar   
     6    6    1 ar   
     7    6    7 1    
     8    7    8 1    
     9    7    9 1    
    10    5   10 ar   
    11   10   11 1    
    12   10   12 ar   
    13   12   13 ar   
    14   13   14 1    
    15   13   15 ar   
    16   15   16 1    
    17   15    4 ar   
    18   12   17 1    
    19   17   18 1    
    20   17   19 1    
    21   19   20 1    
    22   19   21 1    
    23   19   22 1    
    24   22   23 ar   
    25   23   24 1    
    26   23   25 ar   
    27   25   26 ar   
    28   26   27 1    
    29   26   28 ar   
    30   28   29 ar   
    31   29   30 1    
    32   29   22 ar   
    33   28   31 1    
    34   31   32 1    
    35   32   33 1    
    36   32   34 1    
    37   32   35 1    
    38   25   36 1    
    39   36   37 1    
    40   37   38 1    
    41   37   39 1    
    42   37   40 1    
    43    2   41 1    
    44   41   42 1    
    45   41   43 1    
@<TRIPOS>SUBSTRUCTURE
     1 ****        1 TEMP              0 ****  ****    0 ROOT 
@<TRIPOS>SET
UNITY_3DHIT     STATIC     ATOMS    <user>   **** Atoms matching 3D or FLEX Search
0
