#	Name:			15-5
#	Creating user name:	jeff
#	Creation time:		Thu Dec  4 18:13:27 2003

#	Modifying user name:	jeff
#	Modification time:	Thu Dec  4 18:13:27 2003

@<TRIPOS>MOLECULE
15-5
   43    45     1     0     1
SMALL
USER_CHARGES
****
From 3DB ct
@<TRIPOS>ATOM
      1 N          10.184000    2.761000   12.874000 N.ar      1 <1>        -0.660900 
      2 C          10.749000    2.063000   11.890000 C.ar      1 <1>         0.762000 
      3 N          12.031000    2.158000   11.534000 N.ar      1 <1>        -0.644900 
      4 C          12.801000    3.023000   12.208000 C.ar      1 <1>         0.414800 
      5 C          12.318000    3.805000   13.257000 C.ar      1 <1>        -0.377000 
      6 C          10.967000    3.607000   13.562000 C.ar      1 <1>         0.667400 
      7 N          10.323000    4.324000   14.555000 N.pl3     1 <1>        -0.751500 
      8 H          10.826000    4.512000   15.416000 H         1 <1>         0.333200 
      9 H           9.341000    4.097000   14.682000 H         1 <1>         0.321300 
     10 C          13.191000    4.715000   13.916000 C.ar      1 <1>        -0.214000 
     11 H          12.800000    5.329000   14.725000 H         1 <1>         0.110300 
     12 C          14.537000    4.848000   13.558000 C.ar      1 <1>         0.302100 
     13 C          14.992000    4.052000   12.511000 C.ar      1 <1>        -0.122500 
     14 H          16.024000    4.102000   12.172000 H         1 <1>         0.131200 
     15 C          14.134000    3.158000   11.853000 C.ar      1 <1>        -0.216300 
     16 H          14.532000    2.556000   11.037000 H         1 <1>         0.136500 
     17 N          15.326000    5.747000   14.240000 N.pl3     1 <1>        -0.654700 
     18 H          15.262000    5.779000   15.256000 H         1 <1>         0.330200 
     19 C          16.320000    6.636000   13.650000 C.3       1 <1>         0.214600 
     20 H          17.206000    6.042000   13.391000 H         1 <1>         0.032200 
     21 H          16.658000    7.363000   14.394000 H         1 <1>         0.031000 
     22 C          15.820000    7.282000   12.371000 C.ar      1 <1>        -0.283700 
     23 C          14.445000    7.526000   12.213000 C.ar      1 <1>         0.133000 
     24 H          13.749000    7.274000   13.013000 H         1 <1>         0.098500 
     25 C          13.950000    8.097000   11.041000 C.ar      1 <1>        -0.415600 
     26 H          12.881000    8.282000   10.947000 H         1 <1>         0.167200 
     27 C          14.812000    8.426000    9.998000 C.ar      1 <1>         0.381500 
     28 C          16.180000    8.174000   10.133000 C.ar      1 <1>        -0.351600 
     29 H          16.852000    8.420000    9.319000 H         1 <1>         0.133100 
     30 C          16.690000    7.600000   11.310000 C.ar      1 <1>         0.282000 
     31 O          18.015000    7.307000   11.512000 O.3       1 <1>        -0.247100 
     32 C          18.926000    7.578000   10.449000 C.3       1 <1>        -0.001900 
     33 H          19.930000    7.313000   10.796000 H         1 <1>         0.069200 
     34 H          18.932000    8.644000   10.197000 H         1 <1>         0.043400 
     35 H          18.702000    6.960000    9.574000 H         1 <1>         0.048300 
     36 O          14.200000    8.978000    8.906000 O.3       1 <1>        -0.291200 
     37 C          15.035000    9.335000    7.806000 C.3       1 <1>         0.056200 
     38 H          14.396000    9.765000    7.029000 H         1 <1>         0.059600 
     39 H          15.527000    8.453000    7.384000 H         1 <1>         0.029000 
     40 H          15.764000   10.098000    8.097000 H         1 <1>         0.025200 
     41 N           9.966000    1.192000   11.198000 N.pl3     1 <1>        -0.824300 
     42 H          10.365000    0.648000   10.447000 H         1 <1>         0.374800 
     43 H           8.992000    1.094000   11.440000 H         1 <1>         0.369300 
@<TRIPOS>BOND
     1    1    2 ar   
     2    2    3 ar   
     3    3    4 ar   
     4    4    5 ar   
     5    5    6 ar   
     6    6    1 ar   
     7    6    7 1    
     8    7    8 1    
     9    7    9 1    
    10    5   10 ar   
    11   10   11 1    
    12   10   12 ar   
    13   12   13 ar   
    14   13   14 1    
    15   13   15 ar   
    16   15   16 1    
    17   15    4 ar   
    18   12   17 1    
    19   17   18 1    
    20   17   19 1    
    21   19   20 1    
    22   19   21 1    
    23   19   22 1    
    24   22   23 ar   
    25   23   24 1    
    26   23   25 ar   
    27   25   26 1    
    28   25   27 ar   
    29   27   28 ar   
    30   28   29 1    
    31   28   30 ar   
    32   30   22 ar   
    33   30   31 1    
    34   31   32 1    
    35   32   33 1    
    36   32   34 1    
    37   32   35 1    
    38   27   36 1    
    39   36   37 1    
    40   37   38 1    
    41   37   39 1    
    42   37   40 1    
    43    2   41 1    
    44   41   42 1    
    45   41   43 1    
@<TRIPOS>SUBSTRUCTURE
     1 ****        1 TEMP              0 ****  ****    0 ROOT 
@<TRIPOS>SET
UNITY_3DHIT     STATIC     ATOMS    <user>   **** Atoms matching 3D or FLEX Search
0
