#	Name:			15-6
#	Creating user name:	jeff
#	Creation time:		Thu Dec  4 18:13:27 2003

#	Modifying user name:	jeff
#	Modification time:	Thu Dec  4 18:13:27 2003

@<TRIPOS>MOLECULE
15-6
   47    49     1     0     1
SMALL
USER_CHARGES
****
From 3DB ct
@<TRIPOS>ATOM
      1 N          10.178000    2.758000   12.869000 N.ar      1 <1>        -0.665000 
      2 C          10.745000    2.062000   11.885000 C.ar      1 <1>         0.771100 
      3 N          12.027000    2.158000   11.532000 N.ar      1 <1>        -0.646800 
      4 C          12.796000    3.020000   12.209000 C.ar      1 <1>         0.407800 
      5 C          12.312000    3.800000   13.259000 C.ar      1 <1>        -0.379700 
      6 C          10.960000    3.602000   13.560000 C.ar      1 <1>         0.674900 
      7 N          10.315000    4.316000   14.556000 N.pl3     1 <1>        -0.753000 
      8 H          10.817000    4.500000   15.418000 H         1 <1>         0.335200 
      9 H           9.333000    4.088000   14.680000 H         1 <1>         0.323100 
     10 C          13.185000    4.706000   13.923000 C.ar      1 <1>        -0.213700 
     11 H          12.791000    5.320000   14.732000 H         1 <1>         0.111400 
     12 C          14.532000    4.839000   13.569000 C.ar      1 <1>         0.331800 
     13 C          14.988000    4.046000   12.520000 C.ar      1 <1>        -0.140100 
     14 H          16.018000    4.098000   12.178000 H         1 <1>         0.124400 
     15 C          14.130000    3.155000   11.858000 C.ar      1 <1>        -0.204100 
     16 H          14.529000    2.556000   11.040000 H         1 <1>         0.136200 
     17 N          15.318000    5.738000   14.254000 N.pl3     1 <1>        -0.700600 
     18 H          15.233000    5.779000   15.268000 H         1 <1>         0.346700 
     19 C          16.359000    6.582000   13.688000 C.3       1 <1>         0.196700 
     20 H          17.223000    5.955000   13.437000 H         1 <1>         0.033700 
     21 H          16.727000    7.310000   14.420000 H         1 <1>         0.033100 
     22 C          15.886000    7.251000   12.414000 C.ar      1 <1>         0.038000 
     23 C          16.802000    7.546000   11.387000 C.ar      1 <1>        -0.364600 
     24 H          17.843000    7.274000   11.542000 H         1 <1>         0.166600 
     25 C          16.381000    8.167000   10.210000 C.ar      1 <1>         0.308000 
     26 C          15.018000    8.476000   10.059000 C.ar      1 <1>        -0.100100 
     27 C          14.089000    8.213000   11.081000 C.ar      1 <1>         0.245100 
     28 C          14.533000    7.599000   12.254000 C.ar      1 <1>        -0.223100 
     29 H          13.847000    7.381000   13.068000 H         1 <1>         0.152600 
     30 O          12.795000    8.594000   10.834000 O.3       1 <1>        -0.306200 
     31 C          12.534000    9.249000    9.595000 C.3       1 <1>         0.113400 
     32 H          11.475000    9.526000    9.582000 H         1 <1>         0.029200 
     33 H          12.714000    8.576000    8.750000 H         1 <1>         0.029400 
     34 H          13.120000   10.170000    9.504000 H         1 <1>         0.025000 
     35 O          14.594000    9.118000    8.914000 O.3       1 <1>        -0.197500 
     36 C          15.698000    9.286000    8.017000 C.3       1 <1>        -0.044500 
     37 H          15.321000    9.775000    7.114000 H         1 <1>         0.063700 
     38 H          16.125000    8.320000    7.726000 H         1 <1>         0.056500 
     39 H          16.469000    9.928000    8.454000 H         1 <1>         0.059300 
     40 O          17.198000    8.508000    9.163000 O.3       1 <1>        -0.234300 
     41 C          18.583000    8.193000    9.290000 C.3       1 <1>        -0.057700 
     42 H          19.088000    8.548000    8.387000 H         1 <1>         0.085200 
     43 H          18.736000    7.111000    9.354000 H         1 <1>         0.053500 
     44 H          19.027000    8.710000   10.146000 H         1 <1>         0.058700 
     45 N           9.963000    1.192000   11.190000 N.pl3     1 <1>        -0.826300 
     46 H          10.365000    0.645000   10.442000 H         1 <1>         0.375500 
     47 H           8.989000    1.091000   11.433000 H         1 <1>         0.371300 
@<TRIPOS>BOND
     1    1    2 ar   
     2    2    3 ar   
     3    3    4 ar   
     4    4    5 ar   
     5    5    6 ar   
     6    6    1 ar   
     7    6    7 1    
     8    7    8 1    
     9    7    9 1    
    10    5   10 ar   
    11   10   11 1    
    12   10   12 ar   
    13   12   13 ar   
    14   13   14 1    
    15   13   15 ar   
    16   15   16 1    
    17   15    4 ar   
    18   12   17 1    
    19   17   18 1    
    20   17   19 1    
    21   19   20 1    
    22   19   21 1    
    23   19   22 1    
    24   22   23 ar   
    25   23   24 1    
    26   23   25 ar   
    27   25   26 ar   
    28   26   27 ar   
    29   27   28 ar   
    30   28   29 1    
    31   28   22 ar   
    32   27   30 1    
    33   30   31 1    
    34   31   32 1    
    35   31   33 1    
    36   31   34 1    
    37   26   35 1    
    38   35   36 1    
    39   36   37 1    
    40   36   38 1    
    41   36   39 1    
    42   25   40 1    
    43   40   41 1    
    44   41   42 1    
    45   41   43 1    
    46   41   44 1    
    47    2   45 1    
    48   45   46 1    
    49   45   47 1    
@<TRIPOS>SUBSTRUCTURE
     1 ****        1 TEMP              0 ****  ****    0 ROOT 
@<TRIPOS>SET
UNITY_3DHIT     STATIC     ATOMS    <user>   **** Atoms matching 3D or FLEX Search
0
