#	Name:			15-7
#	Creating user name:	jeff
#	Creation time:		Thu Dec  4 18:13:27 2003

#	Modifying user name:	jeff
#	Modification time:	Thu Dec  4 18:13:28 2003

@<TRIPOS>MOLECULE
15-7
   47    49     1     0     1
SMALL
USER_CHARGES
****
From 3DB ct
@<TRIPOS>ATOM
      1 N          10.178000    2.743000   12.851000 N.ar      1 <1>        -0.658200 
      2 C          10.766000    2.061000   11.870000 C.ar      1 <1>         0.759700 
      3 N          12.050000    2.174000   11.534000 N.ar      1 <1>        -0.643700 
      4 C          12.799000    3.044000   12.225000 C.ar      1 <1>         0.415400 
      5 C          12.293000    3.813000   13.273000 C.ar      1 <1>        -0.375500 
      6 C          10.940000    3.594000   13.556000 C.ar      1 <1>         0.665700 
      7 N          10.272000    4.294000   14.546000 N.pl3     1 <1>        -0.750400 
      8 H          10.758000    4.481000   15.417000 H         1 <1>         0.333700 
      9 H           9.291000    4.053000   14.655000 H         1 <1>         0.321600 
     10 C          13.142000    4.731000   13.953000 C.ar      1 <1>        -0.208800 
     11 H          12.718000    5.326000   14.758000 H         1 <1>         0.110400 
     12 C          14.487000    4.887000   13.611000 C.ar      1 <1>         0.287600 
     13 C          14.968000    4.097000   12.566000 C.ar      1 <1>        -0.118500 
     14 H          16.010000    4.173000   12.256000 H         1 <1>         0.132900 
     15 C          14.135000    3.196000   11.889000 C.ar      1 <1>        -0.215200 
     16 H          14.553000    2.605000   11.076000 H         1 <1>         0.135200 
     17 N          15.346000    5.761000   14.239000 N.pl3     1 <1>        -0.640600 
     18 H          15.288000    5.854000   15.252000 H         1 <1>         0.330300 
     19 C          16.383000    6.557000   13.596000 C.3       1 <1>         0.156600 
     20 H          17.201000    5.889000   13.298000 H         1 <1>         0.049000 
     21 H          16.812000    7.256000   14.322000 H         1 <1>         0.044800 
     22 C          15.885000    7.252000   12.346000 C.ar      1 <1>        -0.135900 
     23 C          14.534000    7.626000   12.235000 C.ar      1 <1>        -0.011600 
     24 H          13.841000    7.423000   13.052000 H         1 <1>         0.120000 
     25 C          14.061000    8.283000   11.098000 C.ar      1 <1>        -0.271000 
     26 H          13.016000    8.582000   11.044000 H         1 <1>         0.152800 
     27 C          14.933000    8.577000   10.051000 C.ar      1 <1>         0.228500 
     28 C          16.265000    8.151000   10.098000 C.ar      1 <1>         0.018400 
     29 C          16.732000    7.489000   11.248000 C.ar      1 <1>         0.124000 
     30 O          18.056000    7.124000   11.331000 O.3       1 <1>        -0.240300 
     31 C          18.243000    5.807000   10.798000 C.3       1 <1>         0.021000 
     32 H          19.282000    5.519000   10.984000 H         1 <1>         0.054500 
     33 H          18.075000    5.789000    9.717000 H         1 <1>         0.042700 
     34 H          17.594000    5.079000   11.297000 H         1 <1>         0.049100 
     35 O          17.176000    8.412000    9.104000 O.3       1 <1>        -0.284200 
     36 C          18.475000    7.877000    9.371000 C.3       1 <1>         0.068700 
     37 H          18.577000    6.887000    8.917000 H         1 <1>         0.024100 
     38 H          18.703000    7.838000   10.443000 H         1 <1>         0.026400 
     39 H          19.208000    8.537000    8.897000 H         1 <1>         0.057100 
     40 O          14.430000    9.261000    8.975000 O.3       1 <1>        -0.286000 
     41 C          15.464000    9.472000    8.007000 C.3       1 <1>         0.088100 
     42 H          15.023000   10.009000    7.161000 H         1 <1>         0.035700 
     43 H          15.861000    8.521000    7.636000 H         1 <1>         0.031000 
     44 H          16.270000   10.089000    8.419000 H         1 <1>         0.031700 
     45 N          10.003000    1.186000   11.159000 N.pl3     1 <1>        -0.817700 
     46 H          10.418000    0.656000   10.407000 H         1 <1>         0.373200 
     47 H           9.025000    1.078000   11.385000 H         1 <1>         0.367700 
@<TRIPOS>BOND
     1    1    2 ar   
     2    2    3 ar   
     3    3    4 ar   
     4    4    5 ar   
     5    5    6 ar   
     6    6    1 ar   
     7    6    7 1    
     8    7    8 1    
     9    7    9 1    
    10    5   10 ar   
    11   10   11 1    
    12   10   12 ar   
    13   12   13 ar   
    14   13   14 1    
    15   13   15 ar   
    16   15   16 1    
    17   15    4 ar   
    18   12   17 1    
    19   17   18 1    
    20   17   19 1    
    21   19   20 1    
    22   19   21 1    
    23   19   22 1    
    24   22   23 ar   
    25   23   24 1    
    26   23   25 ar   
    27   25   26 1    
    28   25   27 ar   
    29   27   28 ar   
    30   28   29 ar   
    31   29   22 ar   
    32   29   30 1    
    33   30   31 1    
    34   31   32 1    
    35   31   33 1    
    36   31   34 1    
    37   28   35 1    
    38   35   36 1    
    39   36   37 1    
    40   36   38 1    
    41   36   39 1    
    42   27   40 1    
    43   40   41 1    
    44   41   42 1    
    45   41   43 1    
    46   41   44 1    
    47    2   45 1    
    48   45   46 1    
    49   45   47 1    
@<TRIPOS>SUBSTRUCTURE
     1 ****        1 TEMP              0 ****  ****    0 ROOT 
@<TRIPOS>SET
UNITY_3DHIT     STATIC     ATOMS    <user>   **** Atoms matching 3D or FLEX Search
0
