#	Name:			16-10
#	Creating user name:	jeff
#	Creation time:		Thu Dec  4 18:13:28 2003

#	Modifying user name:	jeff
#	Modification time:	Thu Dec  4 18:13:28 2003

@<TRIPOS>MOLECULE
16-10
   44    46     1     0     1
SMALL
USER_CHARGES
****
From 3DB ct
@<TRIPOS>ATOM
      1 N          10.503000    2.811000   13.283000 N.ar      1 <1>        -0.705000 
      2 C          10.662000    2.030000   12.212000 C.ar      1 <1>         0.829100 
      3 N          11.747000    1.976000   11.451000 N.ar      1 <1>        -0.583000 
      4 C          12.717000    2.817000   11.841000 C.ar      1 <1>         0.245400 
      5 C          12.681000    3.694000   12.915000 C.ar      1 <1>        -0.520000 
      6 C          11.492000    3.645000   13.670000 C.ar      1 <1>         0.770600 
      7 N          11.245000    4.377000   14.805000 N.pl3     1 <1>        -0.780000 
      8 H          11.925000    4.962000   15.263000 H         1 <1>         0.324100 
      9 H          10.358000    4.238000   15.275000 H         1 <1>         0.334600 
     10 C          13.913000    4.468000   12.992000 C.ar      1 <1>         0.007900 
     11 C          14.810000    4.066000   12.014000 C.ar      1 <1>        -0.327200 
     12 H          15.814000    4.436000   11.845000 H         1 <1>         0.229900 
     13 S          14.184000    2.864000   10.983000 S.3       1 <1>         0.168800 
     14 C          14.194000    5.544000   14.014000 C.3       1 <1>         0.416200 
     15 H          14.570000    5.035000   14.911000 H         1 <1>         0.006800 
     16 H          13.248000    6.035000   14.268000 H         1 <1>         0.008800 
     17 N          15.130000    6.590000   13.622000 N.pl3     1 <1>        -0.985100 
     18 H          15.945000    6.716000   14.220000 H         1 <1>         0.381500 
     19 C          15.172000    7.218000   12.385000 C.ar      1 <1>         1.030500 
     20 C          16.411000    7.612000   11.828000 C.ar      1 <1>        -0.923100 
     21 C          16.473000    8.259000   10.586000 C.ar      1 <1>         0.502800 
     22 C          15.289000    8.588000    9.918000 C.ar      1 <1>        -0.201700 
     23 C          14.046000    8.205000   10.438000 C.ar      1 <1>         0.509300 
     24 C          14.002000    7.530000   11.666000 C.ar      1 <1>        -0.724000 
     25 H          13.043000    7.237000   12.080000 H         1 <1>         0.229700 
     26 O          12.951000    8.538000    9.682000 O.3       1 <1>        -0.304500 
     27 C          13.189000    9.088000    8.389000 C.3       1 <1>         0.047300 
     28 H          12.216000    9.288000    7.929000 H         1 <1>         0.051200 
     29 H          13.720000    8.376000    7.750000 H         1 <1>         0.043400 
     30 H          13.726000   10.040000    8.459000 H         1 <1>         0.053300 
     31 O          15.344000    9.244000    8.709000 O.3       1 <1>        -0.224800 
     32 C          16.709000    9.471000    8.339000 C.3       1 <1>        -0.064000 
     33 H          16.711000   10.013000    7.389000 H         1 <1>         0.056000 
     34 H          17.241000    8.525000    8.191000 H         1 <1>         0.067300 
     35 H          17.225000   10.087000    9.083000 H         1 <1>         0.082100 
     36 O          17.687000    8.639000   10.062000 O.3       1 <1>        -0.294700 
     37 C          18.754000    8.204000   10.912000 C.3       1 <1>         0.026400 
     38 H          19.676000    8.669000   10.553000 H         1 <1>         0.040200 
     39 H          18.880000    7.118000   10.860000 H         1 <1>         0.046300 
     40 H          18.597000    8.518000   11.950000 H         1 <1>         0.046800 
     41 Br         18.031000    7.247000   12.779000 Br        1 <1>         0.160900 
     42 N           9.622000    1.216000   11.878000 N.pl3     1 <1>        -0.856700 
     43 H           9.698000    0.607000   11.077000 H         1 <1>         0.387800 
     44 H           8.780000    1.229000   12.435000 H         1 <1>         0.388600 
@<TRIPOS>BOND
     1    1    2 ar   
     2    2    3 ar   
     3    3    4 ar   
     4    4    5 ar   
     5    5    6 ar   
     6    6    1 ar   
     7    6    7 1    
     8    7    8 1    
     9    7    9 1    
    10    5   10 ar   
    11   10   11 ar   
    12   11   12 1    
    13   11   13 ar   
    14   13    4 ar   
    15   10   14 1    
    16   14   15 1    
    17   14   16 1    
    18   14   17 1    
    19   17   18 1    
    20   17   19 1    
    21   19   20 ar   
    22   20   21 ar   
    23   21   22 ar   
    24   22   23 ar   
    25   23   24 ar   
    26   24   25 1    
    27   24   19 ar   
    28   23   26 1    
    29   26   27 1    
    30   27   28 1    
    31   27   29 1    
    32   27   30 1    
    33   22   31 1    
    34   31   32 1    
    35   32   33 1    
    36   32   34 1    
    37   32   35 1    
    38   21   36 1    
    39   36   37 1    
    40   37   38 1    
    41   37   39 1    
    42   37   40 1    
    43   20   41 1    
    44    2   42 1    
    45   42   43 1    
    46   42   44 1    
@<TRIPOS>SUBSTRUCTURE
     1 ****        1 TEMP              0 ****  ****    0 ROOT 
@<TRIPOS>SET
UNITY_3DHIT     STATIC     ATOMS    <user>   **** Atoms matching 3D or FLEX Search
0
