#	Name:			16-11
#	Creating user name:	jeff
#	Creation time:		Thu Dec  4 18:13:28 2003

#	Modifying user name:	jeff
#	Modification time:	Thu Dec  4 18:13:28 2003

@<TRIPOS>MOLECULE
16-11
   47    49     1     0     1
SMALL
USER_CHARGES
****
From 3DB ct
@<TRIPOS>ATOM
      1 N          10.141000    2.615000   12.896000 N.ar      1 <1>        -0.685500 
      2 C          10.742000    1.949000   11.910000 C.ar      1 <1>         0.810900 
      3 N          12.013000    2.121000   11.545000 N.ar      1 <1>        -0.674300 
      4 C          12.735000    3.033000   12.209000 C.ar      1 <1>         0.504500 
      5 C          12.210000    3.789000   13.261000 C.ar      1 <1>        -0.501500 
      6 C          10.875000    3.510000   13.575000 C.ar      1 <1>         0.711600 
      7 N          10.196000    4.189000   14.572000 N.pl3     1 <1>        -0.756300 
      8 H          10.692000    4.407000   15.430000 H         1 <1>         0.333200 
      9 H           9.230000    3.902000   14.706000 H         1 <1>         0.327900 
     10 C          13.026000    4.752000   13.913000 C.ar      1 <1>         0.009000 
     11 H          12.611000    5.355000   14.720000 H         1 <1>         0.104200 
     12 C          14.360000    4.950000   13.533000 C.ar      1 <1>        -0.028400 
     13 C          14.866000    4.188000   12.480000 C.ar      1 <1>         0.000200 
     14 H          15.893000    4.326000   12.144000 H         1 <1>         0.103500 
     15 C          14.056000    3.245000   11.837000 C.ar      1 <1>        -0.286200 
     16 H          14.477000    2.665000   11.017000 H         1 <1>         0.145600 
     17 C          15.216000    5.990000   14.217000 C.3       1 <1>        -0.108400 
     18 H          15.547000    5.601000   15.186000 H         1 <1>         0.107900 
     19 H          14.614000    6.884000   14.429000 H         1 <1>         0.101000 
     20 N          16.335000    6.336000   13.347000 N.pl3     1 <1>        -0.617300 
     21 H          16.983000    5.561000   13.204000 H         1 <1>         0.332400 
     22 C          16.049000    7.088000   12.202000 C.ar      1 <1>         0.809400 
     23 C          14.763000    7.644000   12.087000 C.ar      1 <1>        -0.563400 
     24 H          14.015000    7.443000   12.852000 H         1 <1>         0.193200 
     25 C          14.428000    8.460000   11.007000 C.ar      1 <1>         0.442700 
     26 C          15.359000    8.714000    9.999000 C.ar      1 <1>        -0.179600 
     27 C          16.661000    8.215000   10.117000 C.ar      1 <1>         0.548000 
     28 C          17.001000    7.385000   11.202000 C.ar      1 <1>        -0.899000 
     29 Br         18.736000    6.583000   11.245000 Br        1 <1>         0.159400 
     30 O          17.580000    8.468000    9.124000 O.3       1 <1>        -0.321800 
     31 C          18.811000    7.791000    9.404000 C.3       1 <1>         0.063800 
     32 H          19.452000    7.891000    8.523000 H         1 <1>         0.046500 
     33 H          18.649000    6.723000    9.587000 H         1 <1>         0.033800 
     34 H          19.328000    8.248000   10.253000 H         1 <1>         0.032100 
     35 O          15.010000    9.496000    8.926000 O.3       1 <1>        -0.251100 
     36 C          16.127000    9.633000    8.040000 C.3       1 <1>         0.011800 
     37 H          15.813000   10.266000    7.205000 H         1 <1>         0.055700 
     38 H          16.432000    8.662000    7.634000 H         1 <1>         0.039700 
     39 H          16.971000   10.121000    8.538000 H         1 <1>         0.043400 
     40 O          13.147000    8.942000   10.924000 O.3       1 <1>        -0.308800 
     41 C          13.000000    9.742000    9.746000 C.3       1 <1>         0.056900 
     42 H          11.976000   10.127000    9.729000 H         1 <1>         0.047600 
     43 H          13.154000    9.147000    8.839000 H         1 <1>         0.043900 
     44 H          13.685000   10.598000    9.763000 H         1 <1>         0.035600 
     45 N          10.008000    1.030000   11.225000 N.pl3     1 <1>        -0.831800 
     46 H          10.434000    0.510000   10.473000 H         1 <1>         0.382400 
     47 H           9.043000    0.875000   11.474000 H         1 <1>         0.375500 
@<TRIPOS>BOND
     1    1    2 ar   
     2    2    3 ar   
     3    3    4 ar   
     4    4    5 ar   
     5    5    6 ar   
     6    6    1 ar   
     7    6    7 1    
     8    7    8 1    
     9    7    9 1    
    10    5   10 ar   
    11   10   11 1    
    12   10   12 ar   
    13   12   13 ar   
    14   13   14 1    
    15   13   15 ar   
    16   15   16 1    
    17   15    4 ar   
    18   12   17 1    
    19   17   18 1    
    20   17   19 1    
    21   17   20 1    
    22   20   21 1    
    23   20   22 1    
    24   22   23 ar   
    25   23   24 1    
    26   23   25 ar   
    27   25   26 ar   
    28   26   27 ar   
    29   27   28 ar   
    30   28   22 ar   
    31   28   29 1    
    32   27   30 1    
    33   30   31 1    
    34   31   32 1    
    35   31   33 1    
    36   31   34 1    
    37   26   35 1    
    38   35   36 1    
    39   36   37 1    
    40   36   38 1    
    41   36   39 1    
    42   25   40 1    
    43   40   41 1    
    44   41   42 1    
    45   41   43 1    
    46   41   44 1    
    47    2   45 1    
    48   45   46 1    
    49   45   47 1    
@<TRIPOS>SUBSTRUCTURE
     1 ****        1 TEMP              0 ****  ****    0 ROOT 
@<TRIPOS>SET
UNITY_3DHIT     STATIC     ATOMS    <user>   **** Atoms matching 3D or FLEX Search
0
