#	Name:			16-12
#	Creating user name:	jeff
#	Creation time:		Thu Dec  4 18:13:28 2003

#	Modifying user name:	jeff
#	Modification time:	Thu Dec  4 18:13:28 2003

@<TRIPOS>MOLECULE
16-12
   45    47     1     0     1
SMALL
USER_CHARGES
****
From 3DB ct
@<TRIPOS>ATOM
      1 N          10.460000    2.783000   13.285000 N.ar      1 <1>        -0.706900 
      2 C          10.664000    1.972000   12.243000 C.ar      1 <1>         0.824900 
      3 N          11.746000    1.961000   11.475000 N.ar      1 <1>        -0.584900 
      4 C          12.670000    2.864000   11.837000 C.ar      1 <1>         0.238900 
      5 C          12.594000    3.760000   12.892000 C.ar      1 <1>        -0.535200 
      6 C          11.399000    3.688000   13.636000 C.ar      1 <1>         0.781300 
      7 N          11.096000    4.477000   14.717000 N.pl3     1 <1>        -0.803300 
      8 H          11.707000    5.197000   15.071000 H         1 <1>         0.344200 
      9 H          10.204000    4.342000   15.179000 H         1 <1>         0.339800 
     10 C          13.803000    4.576000   12.971000 C.ar      1 <1>         0.169400 
     11 C          14.691000    4.235000   11.963000 C.ar      1 <1>        -0.419800 
     12 H          15.665000    4.659000   11.759000 H         1 <1>         0.259800 
     13 S          14.118000    2.983000   10.958000 S.3       1 <1>         0.170300 
     14 C          14.038000    5.646000   14.015000 C.3       1 <1>        -0.059800 
     15 H          14.148000    5.150000   14.988000 H         1 <1>         0.063400 
     16 H          13.135000    6.268000   14.072000 H         1 <1>         0.026700 
     17 C          15.260000    6.544000   13.787000 C.3       1 <1>        -0.107500 
     18 H          15.303000    7.315000   14.570000 H         1 <1>         0.034200 
     19 H          16.194000    5.983000   13.901000 H         1 <1>         0.020000 
     20 C          15.220000    7.226000   12.432000 C.ar      1 <1>         0.551700 
     21 C          14.027000    7.513000   11.742000 C.ar      1 <1>        -0.530900 
     22 H          13.029000    7.253000   12.147000 H         1 <1>         0.194400 
     23 C          14.078000    8.175000   10.505000 C.ar      1 <1>         0.439900 
     24 C          15.315000    8.499000    9.930000 C.ar      1 <1>        -0.170700 
     25 C          16.511000    8.249000   10.615000 C.ar      1 <1>         0.593200 
     26 C          16.452000    7.616000   11.860000 C.ar      1 <1>        -0.856600 
     27 Br         18.122000    7.346000   12.810000 Br        1 <1>         0.191300 
     28 O          17.662000    8.653000    9.991000 O.3       1 <1>        -0.345400 
     29 C          18.300000    7.714000    9.126000 C.3       1 <1>        -0.001500 
     30 H          19.195000    8.193000    8.717000 H         1 <1>         0.078000 
     31 H          17.649000    7.450000    8.286000 H         1 <1>         0.048900 
     32 H          18.619000    6.825000    9.678000 H         1 <1>         0.035300 
     33 O          15.355000    9.123000    8.703000 O.3       1 <1>        -0.244300 
     34 C          16.707000    9.466000    8.377000 C.3       1 <1>         0.059200 
     35 H          16.698000    9.966000    7.404000 H         1 <1>         0.048700 
     36 H          17.334000    8.572000    8.295000 H         1 <1>         0.042600 
     37 H          17.128000   10.161000    9.112000 H         1 <1>         0.025000 
     38 O          12.916000    8.446000    9.818000 O.3       1 <1>        -0.316300 
     39 C          13.219000    9.028000    8.544000 C.3       1 <1>         0.085400 
     40 H          12.280000    9.390000    8.114000 H         1 <1>         0.042900 
     41 H          13.639000    8.284000    7.862000 H         1 <1>         0.021300 
     42 H          13.899000    9.882000    8.642000 H         1 <1>         0.035000 
     43 N           9.677000    1.081000   11.948000 N.pl3     1 <1>        -0.854400 
     44 H           9.793000    0.442000   11.175000 H         1 <1>         0.384800 
     45 H           8.844000    1.053000   12.517000 H         1 <1>         0.387000 
@<TRIPOS>BOND
     1    1    2 ar   
     2    2    3 ar   
     3    3    4 ar   
     4    4    5 ar   
     5    5    6 ar   
     6    6    1 ar   
     7    6    7 1    
     8    7    8 1    
     9    7    9 1    
    10    5   10 ar   
    11   10   11 ar   
    12   11   12 1    
    13   11   13 ar   
    14   13    4 ar   
    15   10   14 1    
    16   14   15 1    
    17   14   16 1    
    18   14   17 1    
    19   17   18 1    
    20   17   19 1    
    21   17   20 1    
    22   20   21 ar   
    23   21   22 1    
    24   21   23 ar   
    25   23   24 ar   
    26   24   25 ar   
    27   25   26 ar   
    28   26   20 ar   
    29   26   27 1    
    30   25   28 1    
    31   28   29 1    
    32   29   30 1    
    33   29   31 1    
    34   29   32 1    
    35   24   33 1    
    36   33   34 1    
    37   34   35 1    
    38   34   36 1    
    39   34   37 1    
    40   23   38 1    
    41   38   39 1    
    42   39   40 1    
    43   39   41 1    
    44   39   42 1    
    45    2   43 1    
    46   43   44 1    
    47   43   45 1    
@<TRIPOS>SUBSTRUCTURE
     1 ****        1 TEMP              0 ****  ****    0 ROOT 
@<TRIPOS>SET
UNITY_3DHIT     STATIC     ATOMS    <user>   **** Atoms matching 3D or FLEX Search
0
