#	Name:			16-8a
#	Creating user name:	jeff
#	Creation time:		Thu Dec  4 18:13:28 2003

#	Modifying user name:	jeff
#	Modification time:	Thu Dec  4 18:13:28 2003

@<TRIPOS>MOLECULE
16-8a
   45    47     1     0     1
SMALL
USER_CHARGES
****
From 3DB ct
@<TRIPOS>ATOM
      1 N          10.239000    2.644000   13.022000 N.ar      1 <1>        -0.719600 
      2 C          10.830000    1.851000   12.123000 C.ar      1 <1>         0.835200 
      3 N          12.063000    1.997000   11.657000 N.ar      1 <1>        -0.562400 
      4 C          12.709000    3.054000   12.174000 C.ar      1 <1>         0.204100 
      5 C          12.222000    3.957000   13.103000 C.ar      1 <1>        -0.576900 
      6 C          10.905000    3.702000   13.534000 C.ar      1 <1>         0.804500 
      7 N          10.222000    4.452000   14.459000 N.pl3     1 <1>        -0.774300 
      8 H          10.624000    5.245000   14.937000 H         1 <1>         0.339300 
      9 H           9.278000    4.179000   14.705000 H         1 <1>         0.328700 
     10 C          13.219000    4.975000   13.407000 C.ar      1 <1>         0.220800 
     11 C          14.410000    4.746000   12.723000 C.ar      1 <1>        -0.195700 
     12 S          14.299000    3.387000   11.688000 S.3       1 <1>         0.159700 
     13 C          15.708000    5.528000   12.767000 C.3       1 <1>        -0.236900 
     14 H          16.490000    4.830000   12.454000 H         1 <1>         0.095100 
     15 H          15.961000    5.820000   13.794000 H         1 <1>         0.077900 
     16 C          15.698000    6.796000   11.922000 C.ar      1 <1>         0.602300 
     17 C          16.857000    7.346000   11.339000 C.ar      1 <1>        -0.821300 
     18 C          16.769000    8.517000   10.566000 C.ar      1 <1>         0.621900 
     19 C          15.544000    9.187000   10.436000 C.ar      1 <1>        -0.226600 
     20 C          14.380000    8.662000   11.008000 C.ar      1 <1>         0.457400 
     21 C          14.472000    7.486000   11.757000 C.ar      1 <1>        -0.537800 
     22 H          13.587000    7.080000   12.240000 H         1 <1>         0.196800 
     23 O          13.225000    9.368000   10.793000 O.3       1 <1>        -0.313100 
     24 C          13.238000   10.332000    9.742000 C.3       1 <1>         0.076000 
     25 H          12.281000   10.863000    9.765000 H         1 <1>         0.047000 
     26 H          13.325000    9.845000    8.766000 H         1 <1>         0.023700 
     27 H          14.033000   11.071000    9.891000 H         1 <1>         0.033100 
     28 O          15.470000   10.341000    9.689000 O.3       1 <1>        -0.234900 
     29 C          16.672000   10.508000    8.928000 C.3       1 <1>         0.075000 
     30 H          16.583000   11.442000    8.366000 H         1 <1>         0.052200 
     31 H          16.803000    9.690000    8.211000 H         1 <1>         0.030600 
     32 H          17.548000   10.586000    9.581000 H         1 <1>         0.016800 
     33 O          17.899000    9.054000    9.992000 O.3       1 <1>        -0.386400 
     34 C          18.053000    8.567000    8.653000 C.3       1 <1>         0.176200 
     35 H          19.046000    8.865000    8.304000 H         1 <1>         0.027600 
     36 H          17.311000    9.014000    7.985000 H         1 <1>         0.002400 
     37 H          17.993000    7.474000    8.611000 H         1 <1>        -0.007900 
     38 Br         18.576000    6.551000   11.588000 Br        1 <1>         0.188600 
     39 C          12.989000    6.119000   14.347000 C.3       1 <1>        -0.206100 
     40 H          13.811000    6.839000   14.334000 H         1 <1>         0.066300 
     41 H          12.881000    5.751000   15.372000 H         1 <1>         0.055500 
     42 H          12.085000    6.668000   14.066000 H         1 <1>         0.072900 
     43 N          10.101000    0.803000   11.648000 N.pl3     1 <1>        -0.870400 
     44 H          10.506000    0.179000   10.966000 H         1 <1>         0.388600 
     45 H           9.156000    0.663000   11.975000 H         1 <1>         0.394000 
@<TRIPOS>BOND
     1    1    2 ar   
     2    2    3 ar   
     3    3    4 ar   
     4    4    5 ar   
     5    5    6 ar   
     6    6    1 ar   
     7    6    7 1    
     8    7    8 1    
     9    7    9 1    
    10    5   10 ar   
    11   10   11 ar   
    12   11   12 ar   
    13   12    4 ar   
    14   11   13 1    
    15   13   14 1    
    16   13   15 1    
    17   13   16 1    
    18   16   17 ar   
    19   17   18 ar   
    20   18   19 ar   
    21   19   20 ar   
    22   20   21 ar   
    23   21   22 1    
    24   21   16 ar   
    25   20   23 1    
    26   23   24 1    
    27   24   25 1    
    28   24   26 1    
    29   24   27 1    
    30   19   28 1    
    31   28   29 1    
    32   29   30 1    
    33   29   31 1    
    34   29   32 1    
    35   18   33 1    
    36   33   34 1    
    37   34   35 1    
    38   34   36 1    
    39   34   37 1    
    40   17   38 1    
    41   10   39 1    
    42   39   40 1    
    43   39   41 1    
    44   39   42 1    
    45    2   43 1    
    46   43   44 1    
    47   43   45 1    
@<TRIPOS>SUBSTRUCTURE
     1 ****        1 TEMP              0 ****  ****    0 ROOT 
@<TRIPOS>SET
UNITY_3DHIT     STATIC     ATOMS    <user>   **** Atoms matching 3D or FLEX Search
0
