#	Name:			16-9a
#	Creating user name:	jeff
#	Creation time:		Thu Dec  4 18:13:28 2003

#	Modifying user name:	jeff
#	Modification time:	Thu Dec  4 18:13:28 2003

@<TRIPOS>MOLECULE
16-9a
   47    49     1     0     1
SMALL
USER_CHARGES
****
From 3DB ct
@<TRIPOS>ATOM
      1 N          10.128000    2.570000   12.871000 N.ar      1 <1>        -0.657200 
      2 C          10.762000    1.933000   11.895000 C.ar      1 <1>         0.799600 
      3 N          12.028000    2.156000   11.561000 N.ar      1 <1>        -0.646400 
      4 C          12.709000    3.081000   12.248000 C.ar      1 <1>         0.324200 
      5 C          12.166000    3.829000   13.301000 C.ar      1 <1>        -0.170300 
      6 C          10.815000    3.500000   13.560000 C.ar      1 <1>         0.609800 
      7 N          10.072000    4.110000   14.567000 N.pl3     1 <1>        -0.767700 
      8 H          10.450000    3.948000   15.500000 H         1 <1>         0.352400 
      9 H           9.976000    5.117000   14.441000 H         1 <1>         0.352100 
     10 C          13.011000    4.795000   13.957000 C.ar      1 <1>        -0.347900 
     11 C          14.353000    4.984000   13.568000 C.ar      1 <1>         0.301800 
     12 C          14.842000    4.221000   12.505000 C.ar      1 <1>        -0.183400 
     13 H          15.867000    4.348000   12.159000 H         1 <1>         0.127600 
     14 C          14.025000    3.289000   11.870000 C.ar      1 <1>        -0.129700 
     15 H          14.441000    2.708000   11.046000 H         1 <1>         0.130300 
     16 C          15.278000    5.992000   14.214000 C.3       1 <1>        -0.190000 
     17 H          15.641000    5.586000   15.165000 H         1 <1>         0.100600 
     18 H          14.735000    6.907000   14.481000 H         1 <1>         0.101300 
     19 N          16.381000    6.293000   13.305000 N.pl3     1 <1>        -0.509400 
     20 H          16.980000    5.486000   13.125000 H         1 <1>         0.302600 
     21 C          16.081000    7.060000   12.173000 C.ar      1 <1>         0.722200 
     22 C          14.793000    7.614000   12.078000 C.ar      1 <1>        -0.519100 
     23 H          14.053000    7.402000   12.848000 H         1 <1>         0.182700 
     24 C          14.447000    8.445000   11.012000 C.ar      1 <1>         0.428300 
     25 C          15.368000    8.715000   10.000000 C.ar      1 <1>        -0.191400 
     26 C          16.672000    8.216000   10.098000 C.ar      1 <1>         0.577200 
     27 C          17.023000    7.372000   11.168000 C.ar      1 <1>        -0.879200 
     28 Br         18.762000    6.575000   11.188000 Br        1 <1>         0.162900 
     29 O          17.582000    8.486000    9.102000 O.3       1 <1>        -0.329700 
     30 C          18.818000    7.813000    9.364000 C.3       1 <1>         0.034100 
     31 H          19.452000    7.927000    8.479000 H         1 <1>         0.063600 
     32 H          18.665000    6.742000    9.536000 H         1 <1>         0.040000 
     33 H          19.340000    8.263000   10.214000 H         1 <1>         0.032600 
     34 O          15.007000    9.513000    8.943000 O.3       1 <1>        -0.248800 
     35 C          16.105000    9.642000    8.033000 C.3       1 <1>         0.036100 
     36 H          15.779000   10.281000    7.207000 H         1 <1>         0.055800 
     37 H          16.391000    8.670000    7.617000 H         1 <1>         0.032200 
     38 H          16.965000   10.120000    8.514000 H         1 <1>         0.031600 
     39 O          13.165000    8.927000   10.946000 O.3       1 <1>        -0.324000 
     40 C          13.004000    9.726000    9.769000 C.3       1 <1>         0.100700 
     41 H          11.977000   10.102000    9.759000 H         1 <1>         0.036200 
     42 H          13.158000    9.132000    8.861000 H         1 <1>         0.033900 
     43 H          13.681000   10.587000    9.781000 H         1 <1>         0.020100 
     44 Cl         12.390000    5.781000   15.254000 Cl        1 <1>         0.069400 
     45 N          10.076000    0.992000   11.192000 N.pl3     1 <1>        -0.819300 
     46 H          10.535000    0.492000   10.444000 H         1 <1>         0.380100 
     47 H           9.113000    0.799000   11.422000 H         1 <1>         0.371600 
@<TRIPOS>BOND
     1    1    2 ar   
     2    2    3 ar   
     3    3    4 ar   
     4    4    5 ar   
     5    5    6 ar   
     6    6    1 ar   
     7    6    7 1    
     8    7    8 1    
     9    7    9 1    
    10    5   10 ar   
    11   10   11 ar   
    12   11   12 ar   
    13   12   13 1    
    14   12   14 ar   
    15   14   15 1    
    16   14    4 ar   
    17   11   16 1    
    18   16   17 1    
    19   16   18 1    
    20   16   19 1    
    21   19   20 1    
    22   19   21 1    
    23   21   22 ar   
    24   22   23 1    
    25   22   24 ar   
    26   24   25 ar   
    27   25   26 ar   
    28   26   27 ar   
    29   27   21 ar   
    30   27   28 1    
    31   26   29 1    
    32   29   30 1    
    33   30   31 1    
    34   30   32 1    
    35   30   33 1    
    36   25   34 1    
    37   34   35 1    
    38   35   36 1    
    39   35   37 1    
    40   35   38 1    
    41   24   39 1    
    42   39   40 1    
    43   40   41 1    
    44   40   42 1    
    45   40   43 1    
    46   10   44 1    
    47    2   45 1    
    48   45   46 1    
    49   45   47 1    
@<TRIPOS>SUBSTRUCTURE
     1 ****        1 TEMP              0 ****  ****    0 ROOT 
@<TRIPOS>SET
UNITY_3DHIT     STATIC     ATOMS    <user>   **** Atoms matching 3D or FLEX Search
0
