#	Name:			18-4
#	Creating user name:	jeff
#	Creation time:		Thu Dec  4 18:13:28 2003

#	Modifying user name:	jeff
#	Modification time:	Thu Dec  4 18:13:28 2003

@<TRIPOS>MOLECULE
18-4
   46    50     1     0     1
SMALL
USER_CHARGES
****
From 3DB ct
@<TRIPOS>ATOM
      1 C          10.699000    2.119000   11.823000 C.ar      1 <1>         0.797400 
      2 N          11.982000    2.188000   11.366000 N.ar      1 <1>        -0.639100 
      3 C          12.927000    2.933000   12.019000 C.ar      1 <1>         0.258500 
      4 C          12.573000    3.693000   13.194000 C.ar      1 <1>        -0.145000 
      5 C          11.223000    3.606000   13.645000 C.ar      1 <1>         0.644500 
      6 N          10.334000    2.828000   12.936000 N.ar      1 <1>        -0.670900 
      7 N          10.814000    4.277000   14.743000 N.pl3     1 <1>        -0.761800 
      8 H          11.396000    4.788000   15.200000 H         1 <1>         0.360200 
      9 H           9.959000    4.214000   15.017000 H         1 <1>         0.354600 
     10 N          13.552000    4.439000   13.855000 N.ar      1 <1>        -0.392700 
     11 C          14.841000    4.468000   13.379000 C.ar      1 <1>         0.439900 
     12 C          15.168000    3.713000   12.196000 C.ar      1 <1>        -0.305300 
     13 H          16.055000    3.723000   11.857000 H         1 <1>         0.166200 
     14 C          14.211000    2.980000   11.553000 C.ar      1 <1>        -0.056200 
     15 H          14.475000    2.425000   10.654000 H         1 <1>         0.122100 
     16 C          15.988000    5.264000   14.113000 C.3       1 <1>        -0.269700 
     17 H          15.607000    5.964000   14.630000 H         1 <1>         0.118200 
     18 H          16.444000    4.669000   14.697000 H         1 <1>         0.116400 
     19 N          17.027000    5.921000   13.170000 N.pl3     1 <1>        -0.233800 
     20 C          18.240000    6.185000   13.947000 C.ar      1 <1>         0.186000 
     21 C          18.243000    5.907000   15.371000 C.ar      1 <1>        -0.199700 
     22 H          17.429000    5.700000   15.816000 H         1 <1>         0.125700 
     23 C          19.448000    5.939000   16.111000 C.ar      1 <1>        -0.082700 
     24 H          19.431000    5.804000   17.051000 H         1 <1>         0.109100 
     25 C          20.668000    6.172000   15.444000 C.ar      1 <1>        -0.137600 
     26 H          21.484000    6.165000   15.930000 H         1 <1>         0.110900 
     27 C          20.691000    6.418000   14.053000 C.ar      1 <1>        -0.133400 
     28 H          21.520000    6.538000   13.605000 H         1 <1>         0.121600 
     29 C          19.504000    6.497000   13.274000 C.ar      1 <1>         0.050500 
     30 C          19.695000    6.730000   11.765000 C.2       1 <1>        -0.167800 
     31 H          20.545000    6.588000   11.366000 H         1 <1>         0.109400 
     32 C          18.777000    7.132000   10.854000 C.2       1 <1>        -0.162200 
     33 H          19.030000    7.248000    9.945000 H         1 <1>         0.107600 
     34 C          17.299000    7.447000   11.098000 C.ar      1 <1>         0.095300 
     35 C          16.644000    8.199000   10.057000 C.ar      1 <1>        -0.161700 
     36 H          17.132000    8.472000    9.289000 H         1 <1>         0.124000 
     37 C          15.268000    8.550000   10.143000 C.ar      1 <1>        -0.112300 
     38 H          14.864000    9.063000    9.452000 H         1 <1>         0.107600 
     39 C          14.493000    8.138000   11.262000 C.ar      1 <1>        -0.119800 
     40 H          13.586000    8.411000   11.338000 H         1 <1>         0.114300 
     41 C          15.078000    7.322000   12.258000 C.ar      1 <1>        -0.099500 
     42 H          14.550000    7.003000   12.981000 H         1 <1>         0.101000 
     43 C          16.477000    6.947000   12.215000 C.ar      1 <1>         0.079900 
     44 N           9.803000    1.347000   11.173000 N.pl3     1 <1>        -0.822200 
     45 H          10.055000    0.882000   10.445000 H         1 <1>         0.377700 
     46 H           8.955000    1.296000   11.469000 H         1 <1>         0.374600 
@<TRIPOS>BOND
     1    1    2 ar   
     2    2    3 ar   
     3    3    4 ar   
     4    4    5 ar   
     5    5    6 ar   
     6    6    1 ar   
     7    5    7 1    
     8    7    8 1    
     9    7    9 1    
    10    4   10 ar   
    11   10   11 ar   
    12   11   12 ar   
    13   12   13 1    
    14   12   14 ar   
    15   14   15 1    
    16   14    3 ar   
    17   11   16 1    
    18   16   17 1    
    19   16   18 1    
    20   16   19 1    
    21   19   20 1    
    22   20   21 ar   
    23   21   22 1    
    24   21   23 ar   
    25   23   24 1    
    26   23   25 ar   
    27   25   26 1    
    28   25   27 ar   
    29   27   28 1    
    30   27   29 ar   
    31   29   20 ar   
    32   29   30 1    
    33   30   31 1    
    34   30   32 2    
    35   32   33 1    
    36   32   34 1    
    37   34   35 ar   
    38   35   36 1    
    39   35   37 ar   
    40   37   38 1    
    41   37   39 ar   
    42   39   40 1    
    43   39   41 ar   
    44   41   42 1    
    45   41   43 ar   
    46   43   34 ar   
    47   43   19 1    
    48    1   44 1    
    49   44   45 1    
    50   44   46 1    
@<TRIPOS>SUBSTRUCTURE
     1 ****        1 TEMP              0 ****  ****    0 ROOT 
@<TRIPOS>SET
UNITY_3DHIT     STATIC     ATOMS    <user>   **** Atoms matching 3D or FLEX Search
0
