#	Name:			18-5
#	Creating user name:	jeff
#	Creation time:		Thu Dec  4 18:13:28 2003

#	Modifying user name:	jeff
#	Modification time:	Thu Dec  4 18:13:28 2003

@<TRIPOS>MOLECULE
18-5
   47    51     1     0     1
SMALL
USER_CHARGES
****
From 3DB ct
@<TRIPOS>ATOM
      1 C          10.699000    2.119000   11.823000 C.ar      1 <1>         0.795100 
      2 N          11.982000    2.188000   11.366000 N.ar      1 <1>        -0.663600 
      3 C          12.927000    2.933000   12.019000 C.ar      1 <1>         0.435200 
      4 C          12.573000    3.693000   13.194000 C.ar      1 <1>        -0.436800 
      5 C          11.223000    3.606000   13.645000 C.ar      1 <1>         0.702900 
      6 N          10.334000    2.828000   12.936000 N.ar      1 <1>        -0.680700 
      7 N          10.814000    4.277000   14.743000 N.pl3     1 <1>        -0.764400 
      8 H          11.396000    4.788000   15.200000 H         1 <1>         0.336400 
      9 H           9.959000    4.214000   15.017000 H         1 <1>         0.326600 
     10 C          13.552000    4.439000   13.855000 C.ar      1 <1>        -0.161000 
     11 H          13.328000    4.930000   14.637000 H         1 <1>         0.102800 
     12 C          14.841000    4.468000   13.379000 C.ar      1 <1>         0.320700 
     13 C          15.168000    3.713000   12.196000 C.ar      1 <1>        -0.130800 
     14 H          16.055000    3.723000   11.857000 H         1 <1>         0.109300 
     15 C          14.211000    2.980000   11.553000 C.ar      1 <1>        -0.213400 
     16 H          14.433000    2.493000   10.768000 H         1 <1>         0.141700 
     17 N          15.988000    5.264000   14.113000 N.pl3     1 <1>        -0.739400 
     18 H          16.002000    5.309000   15.012000 H         1 <1>         0.358700 
     19 C          17.027000    5.921000   13.170000 C.3       1 <1>         0.281000 
     20 H          17.285000    5.207000   12.598000 H         1 <1>         0.062400 
     21 C          18.240000    6.185000   13.947000 C.ar      1 <1>        -0.002500 
     22 C          18.243000    5.907000   15.371000 C.ar      1 <1>        -0.121600 
     23 H          17.429000    5.700000   15.816000 H         1 <1>         0.099500 
     24 C          19.448000    5.939000   16.111000 C.ar      1 <1>        -0.093000 
     25 H          19.431000    5.804000   17.051000 H         1 <1>         0.108300 
     26 C          20.668000    6.172000   15.444000 C.ar      1 <1>        -0.133500 
     27 H          21.484000    6.165000   15.930000 H         1 <1>         0.114000 
     28 C          20.691000    6.418000   14.053000 C.ar      1 <1>        -0.109800 
     29 H          21.520000    6.538000   13.605000 H         1 <1>         0.115500 
     30 C          19.504000    6.497000   13.274000 C.ar      1 <1>         0.027400 
     31 C          19.695000    6.730000   11.765000 C.2       1 <1>        -0.150900 
     32 H          20.545000    6.588000   11.366000 H         1 <1>         0.109900 
     33 C          18.777000    7.132000   10.854000 C.2       1 <1>        -0.159600 
     34 H          19.030000    7.248000    9.945000 H         1 <1>         0.106500 
     35 C          17.299000    7.447000   11.098000 C.ar      1 <1>         0.126600 
     36 C          16.644000    8.199000   10.057000 C.ar      1 <1>        -0.180500 
     37 H          17.132000    8.472000    9.289000 H         1 <1>         0.125600 
     38 C          15.268000    8.550000   10.143000 C.ar      1 <1>        -0.075700 
     39 H          14.864000    9.063000    9.452000 H         1 <1>         0.104500 
     40 C          14.493000    8.138000   11.262000 C.ar      1 <1>        -0.143200 
     41 H          13.586000    8.411000   11.338000 H         1 <1>         0.114500 
     42 C          15.078000    7.322000   12.258000 C.ar      1 <1>        -0.053200 
     43 H          14.550000    7.003000   12.981000 H         1 <1>         0.090300 
     44 C          16.477000    6.947000   12.215000 C.ar      1 <1>        -0.116100 
     45 N           9.803000    1.347000   11.173000 N.pl3     1 <1>        -0.840200 
     46 H          10.055000    0.882000   10.445000 H         1 <1>         0.379300 
     47 H           8.955000    1.296000   11.469000 H         1 <1>         0.375300 
@<TRIPOS>BOND
     1    1    2 ar   
     2    2    3 ar   
     3    3    4 ar   
     4    4    5 ar   
     5    5    6 ar   
     6    6    1 ar   
     7    5    7 1    
     8    7    8 1    
     9    7    9 1    
    10    4   10 ar   
    11   10   11 1    
    12   10   12 ar   
    13   12   13 ar   
    14   13   14 1    
    15   13   15 ar   
    16   15   16 1    
    17   15    3 ar   
    18   12   17 1    
    19   17   18 1    
    20   17   19 1    
    21   19   20 1    
    22   19   21 1    
    23   21   22 ar   
    24   22   23 1    
    25   22   24 ar   
    26   24   25 1    
    27   24   26 ar   
    28   26   27 1    
    29   26   28 ar   
    30   28   29 1    
    31   28   30 ar   
    32   30   21 ar   
    33   30   31 1    
    34   31   32 1    
    35   31   33 2    
    36   33   34 1    
    37   33   35 1    
    38   35   36 ar   
    39   36   37 1    
    40   36   38 ar   
    41   38   39 1    
    42   38   40 ar   
    43   40   41 1    
    44   40   42 ar   
    45   42   43 1    
    46   42   44 ar   
    47   44   35 ar   
    48   44   19 1    
    49    1   45 1    
    50   45   46 1    
    51   45   47 1    
@<TRIPOS>SUBSTRUCTURE
     1 ****        1 TEMP              0 ****  ****    0 ROOT 
@<TRIPOS>SET
UNITY_3DHIT     STATIC     ATOMS    <user>   **** Atoms matching 3D or FLEX Search
0
@<TRIPOS>UNITY_BOND_ATTR
35 1
S N
