#	Name:			18-6
#	Creating user name:	jeff
#	Creation time:		Thu Dec 12 14:13:27 2002

#	Modifying user name:	jeff
#	Modification time:	Thu Dec 12 14:16:14 2002

@<TRIPOS>MOLECULE
18-6
   49    53     1     0     1
SMALL
USER_CHARGES
****
From 3DB ct
@<TRIPOS>ATOM
      1 C          10.6990    2.1190   11.8230 C.ar      1 <1>         0.7962 
      2 N          11.9820    2.1880   11.3660 N.ar      1 <1>        -0.6628 
      3 C          12.9270    2.9330   12.0190 C.ar      1 <1>         0.4219 
      4 C          12.5730    3.6930   13.1940 C.ar      1 <1>        -0.4316 
      5 C          11.2230    3.6060   13.6450 C.ar      1 <1>         0.7068 
      6 N          10.3340    2.8280   12.9360 N.ar      1 <1>        -0.6829 
      7 N          10.8140    4.2770   14.7430 N.pl3     1 <1>        -0.7661 
      8 H          11.3960    4.7880   15.2000 H         1 <1>         0.3355 
      9 H           9.9590    4.2140   15.0170 H         1 <1>         0.3269 
     10 C          13.5520    4.4390   13.8550 C.ar      1 <1>        -0.1759 
     11 H          13.3280    4.9300   14.6370 H         1 <1>         0.1079 
     12 C          14.8410    4.4680   13.3790 C.ar      1 <1>         0.3782 
     13 C          15.1680    3.7130   12.1960 C.ar      1 <1>        -0.1808 
     14 H          16.0550    3.7230   11.8570 H         1 <1>         0.1202 
     15 C          14.2110    2.9800   11.5530 C.ar      1 <1>        -0.1878 
     16 H          14.4330    2.4930   10.7680 H         1 <1>         0.1382 
     17 N          15.9880    5.2640   14.1130 N.pl3     1 <1>        -0.8135 
     18 H          16.0020    5.3090   15.0120 H         1 <1>         0.3673 
     19 C          17.0270    5.9210   13.1700 C.3       1 <1>         0.3665 
     20 H          17.2850    5.2070   12.5980 H         1 <1>         0.0570 
     21 C          18.2056    6.5800   13.9056 C.ar      1 <1>        -0.0478 
     22 C          18.0425    7.1382   15.1804 C.ar      1 <1>        -0.0949 
     23 H          17.0575    7.2471   15.6199 H         1 <1>         0.0950 
     24 C          19.1495    7.5780   15.9105 C.ar      1 <1>        -0.1026 
     25 H          19.0220    7.9605   16.9186 H         1 <1>         0.1072 
     26 C          20.4226    7.5251   15.3398 C.ar      1 <1>        -0.1302 
     27 H          21.2893    7.8427   15.9110 H         1 <1>         0.1121 
     28 C          20.5747    7.0689   14.0289 C.ar      1 <1>        -0.0869 
     29 H          21.5677    7.0572   13.5922 H         1 <1>         0.1082 
     30 C          19.4634    6.6411   13.2917 C.ar      1 <1>        -0.0317 
     31 C          19.6094    6.2604   11.8117 C.3       1 <1>        -0.1352 
     32 H          20.6698    6.3293   11.5180 H         1 <1>         0.0559 
     33 H          19.3143    5.2176   11.6284 H         1 <1>         0.0542 
     34 C          18.8216    7.2509   10.9099 C.3       1 <1>         0.0038 
     35 H          19.2689    8.2503   11.0322 H         1 <1>         0.0374 
     36 H          18.9892    6.9331    9.8673 H         1 <1>         0.0232 
     37 C          17.2990    7.4470   11.0980 C.ar      1 <1>        -0.0026 
     38 C          16.6440    8.1990   10.0570 C.ar      1 <1>        -0.1378 
     39 H          17.1320    8.4720    9.2890 H         1 <1>         0.1014 
     40 C          15.2680    8.5500   10.1430 C.ar      1 <1>        -0.0873 
     41 H          14.8640    9.0630    9.4520 H         1 <1>         0.1081 
     42 C          14.4930    8.1380   11.2620 C.ar      1 <1>        -0.1400 
     43 H          13.5860    8.4110   11.3380 H         1 <1>         0.1165 
     44 C          15.0780    7.3220   12.2580 C.ar      1 <1>        -0.0803 
     45 H          14.5500    7.0030   12.9810 H         1 <1>         0.0943 
     46 C          16.4770    6.9470   12.2150 C.ar      1 <1>        -0.0763 
     47 N           9.8030    1.3470   11.1730 N.pl3     1 <1>        -0.8376 
     48 H          10.0550    0.8820   10.4450 H         1 <1>         0.3786 
     49 H           8.9550    1.2960   11.4690 H         1 <1>         0.3742 
@<TRIPOS>BOND
     1    1    2 ar   
     2    2    3 ar   
     3    3    4 ar   
     4    4    5 ar   
     5    5    6 ar   
     6    6    1 ar   
     7    5    7 1    
     8    7    8 1    
     9    7    9 1    
    10    4   10 ar   
    11   10   11 1    
    12   10   12 ar   
    13   12   13 ar   
    14   13   14 1    
    15   13   15 ar   
    16   15   16 1    
    17   15    3 ar   
    18   12   17 1    
    19   17   18 1    
    20   17   19 1    
    21   19   20 1    
    22   19   21 1    
    23   21   22 ar   
    24   22   23 1    
    25   22   24 ar   
    26   24   25 1    
    27   24   26 ar   
    28   26   27 1    
    29   26   28 ar   
    30   28   29 1    
    31   28   30 ar   
    32   30   21 ar   
    33   30   31 1    
    34   31   32 1    
    35   31   33 1    
    36   31   34 1    
    37   34   35 1    
    38   34   36 1    
    39   34   37 1    
    40   37   38 ar   
    41   38   39 1    
    42   38   40 ar   
    43   40   41 1    
    44   40   42 ar   
    45   42   43 1    
    46   42   44 ar   
    47   44   45 1    
    48   44   46 ar   
    49   46   37 ar   
    50   46   19 1    
    51    1   47 1    
    52   47   48 1    
    53   47   49 1    
@<TRIPOS>SUBSTRUCTURE
     1 ****        1 TEMP              0 ****  ****    0 ROOT 
@<TRIPOS>SET
UNITY_3DHIT     STATIC     ATOMS    <user>   **** Atoms matching 3D or FLEX Search
0
