#	Name:			19-12
#	Creating user name:	jeff
#	Creation time:		Thu Dec  4 18:13:29 2003

#	Modifying user name:	jeff
#	Modification time:	Thu Dec  4 18:13:29 2003

@<TRIPOS>MOLECULE
19-12
   39    41     1     0     1
SMALL
USER_CHARGES
****
From 3DB ct
@<TRIPOS>ATOM
      1 C          12.200000    3.860000   13.273000 C.ar      1 <1>        -0.459800 
      2 C          10.845000    3.466000   13.630000 C.ar      1 <1>         0.685000 
      3 N          10.144000    2.594000   12.896000 N.ar      1 <1>        -0.684700 
      4 C          10.698000    1.979000   11.824000 C.ar      1 <1>         0.788100 
      5 N          12.040000    2.147000   11.544000 N.ar      1 <1>        -0.660400 
      6 C          12.771000    3.054000   12.316000 C.ar      1 <1>         0.417100 
      7 C          14.262000    3.050000   12.022000 C.3       1 <1>        -0.035900 
      8 H          14.577000    2.021000   11.785000 H         1 <1>         0.042100 
      9 H          14.471000    3.652000   11.120000 H         1 <1>         0.031700 
     10 C          15.021000    3.623000   13.226000 C.3       1 <1>        -0.012500 
     11 H          16.090000    3.736000   12.974000 H         1 <1>        -0.019200 
     12 H          14.970000    2.934000   14.088000 H         1 <1>         0.029000 
     13 C          14.378000    4.985000   13.572000 C.3       1 <1>         0.181600 
     14 H          14.174000    5.427000   12.581000 H         1 <1>         0.013100 
     15 C          12.959000    4.853000   14.179000 C.3       1 <1>        -0.319500 
     16 H          13.026000    4.413000   15.192000 H         1 <1>         0.097000 
     17 H          12.520000    5.695000   14.203000 H         1 <1>         0.117100 
     18 C          15.364000    5.904000   14.300000 C.3       1 <1>         0.189000 
     19 H          14.867000    6.766000   14.778000 H         1 <1>         0.016800 
     20 H          15.853000    5.358000   15.123000 H         1 <1>         0.039200 
     21 N          16.387000    6.412000   13.414000 N.pl3     1 <1>        -0.908300 
     22 H          17.216000    5.847000   13.348000 H         1 <1>         0.359700 
     23 C          16.036000    7.098000   12.249000 C.ar      1 <1>         1.069600 
     24 C          14.739000    7.659000   12.082000 C.ar      1 <1>        -0.714100 
     25 C          14.455000    8.476000   10.990000 C.ar      1 <1>         0.306900 
     26 H          13.457000    8.949000   10.871000 H         1 <1>         0.041100 
     27 C          15.417000    8.725000   10.019000 C.ar      1 <1>        -0.385100 
     28 H          15.133000    9.358000    9.154000 H         1 <1>         0.146200 
     29 C          16.672000    8.201000   10.095000 C.ar      1 <1>         0.325700 
     30 H          17.446000    8.403000    9.331000 H         1 <1>         0.044900 
     31 C          17.003000    7.433000   11.280000 C.ar      1 <1>        -0.765500 
     32 Cl         18.636000    6.860000   11.382000 Cl        1 <1>         0.093100 
     33 Cl         13.416000    7.908000   13.201000 Cl        1 <1>         0.089100 
     34 N          10.000000    1.203000   11.073000 N.pl3     1 <1>        -0.811200 
     35 H           9.131000    1.063000   11.257000 H         1 <1>         0.370300 
     36 H          10.381000    0.801000   10.364000 H         1 <1>         0.375100 
     37 N          10.182000    3.960000   14.711000 N.pl3     1 <1>        -0.753300 
     38 H          10.582000    4.562000   15.248000 H         1 <1>         0.335900 
     39 H           9.344000    3.684000   14.890000 H         1 <1>         0.325300 
@<TRIPOS>BOND
     1    1    2 ar   
     2    2    3 ar   
     3    3    4 ar   
     4    4    5 ar   
     5    5    6 ar   
     6    6    1 ar   
     7    6    7 1    
     8    7    8 1    
     9    7    9 1    
    10    7   10 1    
    11   10   11 1    
    12   10   12 1    
    13   10   13 1    
    14   13   14 1    
    15   13   15 1    
    16   15   16 1    
    17   15   17 1    
    18   15    1 1    
    19   13   18 1    
    20   18   19 1    
    21   18   20 1    
    22   18   21 1    
    23   21   22 1    
    24   21   23 1    
    25   23   24 ar   
    26   24   25 ar   
    27   25   26 1    
    28   25   27 ar   
    29   27   28 1    
    30   27   29 ar   
    31   29   30 1    
    32   29   31 ar   
    33   31   23 ar   
    34   31   32 1    
    35   24   33 1    
    36    4   34 1    
    37   34   35 1    
    38   34   36 1    
    39    2   37 1    
    40   37   38 1    
    41   37   39 1    
@<TRIPOS>SUBSTRUCTURE
     1 ****        1 TEMP              0 ****  ****    0 ROOT 
@<TRIPOS>SET
UNITY_3DHIT     STATIC     ATOMS    <user>   **** Atoms matching 3D or FLEX Search
0
