#	Name:			19-15
#	Creating user name:	jeff
#	Creation time:		Thu Dec  4 18:13:29 2003

#	Modifying user name:	jeff
#	Modification time:	Thu Dec  4 18:13:29 2003

@<TRIPOS>MOLECULE
19-15
   39    41     1     0     1
SMALL
USER_CHARGES
****
From 3DB ct
@<TRIPOS>ATOM
      1 C          12.200000    3.860000   13.273000 C.ar      1 <1>        -0.565200 
      2 C          10.845000    3.466000   13.630000 C.ar      1 <1>         0.736300 
      3 N          10.144000    2.594000   12.896000 N.ar      1 <1>        -0.702600 
      4 C          10.698000    1.979000   11.824000 C.ar      1 <1>         0.806300 
      5 N          12.040000    2.147000   11.544000 N.ar      1 <1>        -0.667600 
      6 C          12.771000    3.054000   12.316000 C.ar      1 <1>         0.440400 
      7 C          14.262000    3.050000   12.022000 C.3       1 <1>        -0.042500 
      8 H          14.577000    2.021000   11.785000 H         1 <1>         0.049100 
      9 H          14.471000    3.652000   11.120000 H         1 <1>         0.035600 
     10 C          15.021000    3.623000   13.226000 C.3       1 <1>        -0.104400 
     11 H          16.090000    3.736000   12.974000 H         1 <1>         0.022100 
     12 H          14.970000    2.934000   14.088000 H         1 <1>         0.049000 
     13 C          14.378000    4.985000   13.572000 C.3       1 <1>         0.184400 
     14 H          14.174000    5.427000   12.581000 H         1 <1>         0.018300 
     15 C          12.959000    4.853000   14.179000 C.3       1 <1>        -0.060100 
     16 H          13.026000    4.413000   15.192000 H         1 <1>         0.050600 
     17 H          12.520000    5.695000   14.203000 H         1 <1>         0.029700 
     18 C          15.364000    5.904000   14.300000 C.3       1 <1>        -0.071700 
     19 H          14.867000    6.766000   14.778000 H         1 <1>         0.076100 
     20 H          15.853000    5.358000   15.123000 H         1 <1>         0.078400 
     21 N          16.387000    6.412000   13.414000 N.pl3     1 <1>        -0.619800 
     22 H          17.216000    5.847000   13.348000 H         1 <1>         0.339800 
     23 C          16.036000    7.098000   12.249000 C.ar      1 <1>         0.301100 
     24 C          14.739000    7.659000   12.082000 C.ar      1 <1>        -0.140900 
     25 H          13.935000    7.546000   12.829000 H         1 <1>         0.104500 
     26 C          14.455000    8.476000   10.990000 C.ar      1 <1>        -0.190600 
     27 H          13.445000    8.922000   10.886000 H         1 <1>         0.127500 
     28 C          15.417000    8.725000   10.019000 C.ar      1 <1>         0.157200 
     29 H          15.120000    9.358000    9.158000 H         1 <1>         0.040700 
     30 C          16.672000    8.201000   10.095000 C.ar      1 <1>        -0.471700 
     31 C          17.003000    7.433000   11.280000 C.ar      1 <1>        -0.005400 
     32 H          18.037000    7.052000   11.379000 H         1 <1>         0.060500 
     33 Br         17.980000    8.540000    8.731000 Br        1 <1>         0.114800 
     34 N          10.000000    1.203000   11.073000 N.pl3     1 <1>        -0.819200 
     35 H           9.131000    1.063000   11.257000 H         1 <1>         0.373400 
     36 H          10.381000    0.801000   10.364000 H         1 <1>         0.376600 
     37 N          10.182000    3.960000   14.711000 N.pl3     1 <1>        -0.788000 
     38 H          10.582000    4.562000   15.248000 H         1 <1>         0.343600 
     39 H           9.344000    3.684000   14.890000 H         1 <1>         0.333800 
@<TRIPOS>BOND
     1    1    2 ar   
     2    2    3 ar   
     3    3    4 ar   
     4    4    5 ar   
     5    5    6 ar   
     6    6    1 ar   
     7    6    7 1    
     8    7    8 1    
     9    7    9 1    
    10    7   10 1    
    11   10   11 1    
    12   10   12 1    
    13   10   13 1    
    14   13   14 1    
    15   13   15 1    
    16   15   16 1    
    17   15   17 1    
    18   15    1 1    
    19   13   18 1    
    20   18   19 1    
    21   18   20 1    
    22   18   21 1    
    23   21   22 1    
    24   21   23 1    
    25   23   24 ar   
    26   24   25 1    
    27   24   26 ar   
    28   26   27 1    
    29   26   28 ar   
    30   28   29 1    
    31   28   30 ar   
    32   30   31 ar   
    33   31   32 1    
    34   31   23 ar   
    35   30   33 1    
    36    4   34 1    
    37   34   35 1    
    38   34   36 1    
    39    2   37 1    
    40   37   38 1    
    41   37   39 1    
@<TRIPOS>SUBSTRUCTURE
     1 ****        1 TEMP              0 ****  ****    0 ROOT 
@<TRIPOS>SET
UNITY_3DHIT     STATIC     ATOMS    <user>   **** Atoms matching 3D or FLEX Search
0
