#	Name:			19-14
#	Creating user name:	jeff
#	Creation time:		Thu Dec  4 18:13:29 2003

#	Modifying user name:	jeff
#	Modification time:	Thu Dec  4 18:13:29 2003

@<TRIPOS>MOLECULE
19-14
   42    44     1     0     1
SMALL
USER_CHARGES
****
From 3DB ct
@<TRIPOS>ATOM
      1 C          12.200000    3.860000   13.273000 C.ar      1 <1>        -0.599600 
      2 C          10.845000    3.466000   13.630000 C.ar      1 <1>         0.746400 
      3 N          10.144000    2.594000   12.896000 N.ar      1 <1>        -0.706800 
      4 C          10.698000    1.979000   11.824000 C.ar      1 <1>         0.814400 
      5 N          12.040000    2.147000   11.544000 N.ar      1 <1>        -0.675700 
      6 C          12.771000    3.054000   12.316000 C.ar      1 <1>         0.460700 
      7 C          14.262000    3.050000   12.022000 C.3       1 <1>        -0.054300 
      8 H          14.577000    2.021000   11.785000 H         1 <1>         0.051900 
      9 H          14.471000    3.652000   11.120000 H         1 <1>         0.039900 
     10 C          15.021000    3.623000   13.226000 C.3       1 <1>        -0.115700 
     11 H          16.090000    3.736000   12.974000 H         1 <1>         0.030800 
     12 H          14.970000    2.934000   14.088000 H         1 <1>         0.056200 
     13 C          14.378000    4.985000   13.572000 C.3       1 <1>         0.144800 
     14 H          14.174000    5.427000   12.581000 H         1 <1>         0.025600 
     15 C          12.959000    4.853000   14.179000 C.3       1 <1>         0.008100 
     16 H          13.026000    4.413000   15.192000 H         1 <1>         0.039100 
     17 H          12.520000    5.695000   14.203000 H         1 <1>         0.023800 
     18 C          15.364000    5.904000   14.300000 C.3       1 <1>        -0.164100 
     19 H          14.867000    6.766000   14.778000 H         1 <1>         0.072800 
     20 H          15.853000    5.358000   15.123000 H         1 <1>         0.107800 
     21 N          16.387000    6.412000   13.414000 N.pl3     1 <1>        -0.305600 
     22 C          16.036000    7.098000   12.249000 C.ar      1 <1>         0.376000 
     23 C          14.739000    7.659000   12.082000 C.ar      1 <1>        -0.338300 
     24 H          13.935000    7.546000   12.829000 H         1 <1>         0.123900 
     25 C          14.455000    8.476000   10.990000 C.ar      1 <1>         0.218500 
     26 H          13.447000    8.926000   10.881000 H         1 <1>         0.049100 
     27 C          15.417000    8.725000   10.019000 C.ar      1 <1>        -0.497400 
     28 C          16.672000    8.201000   10.095000 C.ar      1 <1>         0.228300 
     29 H          17.446000    8.403000    9.331000 H         1 <1>         0.048300 
     30 C          17.003000    7.433000   11.280000 C.ar      1 <1>        -0.348100 
     31 H          18.037000    7.052000   11.379000 H         1 <1>         0.124800 
     32 Cl         14.989000    9.714000    8.658000 Cl        1 <1>         0.067900 
     33 C          17.501000    5.654000   13.325000 C.3       1 <1>        -0.027000 
     34 H          17.584000    5.025000   14.212000 H         1 <1>         0.059900 
     35 H          17.443000    5.025000   12.437000 H         1 <1>         0.049600 
     36 H          18.375000    6.301000   13.256000 H         1 <1>         0.049400 
     37 N          10.000000    1.203000   11.073000 N.pl3     1 <1>        -0.824100 
     38 H           9.131000    1.063000   11.257000 H         1 <1>         0.374900 
     39 H          10.381000    0.801000   10.364000 H         1 <1>         0.378300 
     40 N          10.182000    3.960000   14.711000 N.pl3     1 <1>        -0.795000 
     41 H          10.582000    4.562000   15.248000 H         1 <1>         0.343400 
     42 H           9.344000    3.684000   14.890000 H         1 <1>         0.336900 
@<TRIPOS>BOND
     1    1    2 ar   
     2    2    3 ar   
     3    3    4 ar   
     4    4    5 ar   
     5    5    6 ar   
     6    6    1 ar   
     7    6    7 1    
     8    7    8 1    
     9    7    9 1    
    10    7   10 1    
    11   10   11 1    
    12   10   12 1    
    13   10   13 1    
    14   13   14 1    
    15   13   15 1    
    16   15   16 1    
    17   15   17 1    
    18   15    1 1    
    19   13   18 1    
    20   18   19 1    
    21   18   20 1    
    22   18   21 1    
    23   21   22 1    
    24   22   23 ar   
    25   23   24 1    
    26   23   25 ar   
    27   25   26 1    
    28   25   27 ar   
    29   27   28 ar   
    30   28   29 1    
    31   28   30 ar   
    32   30   31 1    
    33   30   22 ar   
    34   27   32 1    
    35   21   33 1    
    36   33   34 1    
    37   33   35 1    
    38   33   36 1    
    39    4   37 1    
    40   37   38 1    
    41   37   39 1    
    42    2   40 1    
    43   40   41 1    
    44   40   42 1    
@<TRIPOS>SUBSTRUCTURE
     1 ****        1 TEMP              0 ****  ****    0 ROOT 
@<TRIPOS>SET
UNITY_3DHIT     STATIC     ATOMS    <user>   **** Atoms matching 3D or FLEX Search
0
