#	Name:			19-1
#	Creating user name:	jeff
#	Creation time:		Thu Dec  4 18:13:28 2003

#	Modifying user name:	jeff
#	Modification time:	Thu Dec  4 18:13:29 2003

@<TRIPOS>MOLECULE
19-1
   51    53     1     0     1
SMALL
USER_CHARGES
****
From 3DB ct
@<TRIPOS>ATOM
      1 C          12.200000    3.860000   13.273000 C.ar      1 <1>        -0.590000 
      2 C          10.845000    3.466000   13.630000 C.ar      1 <1>         0.756900 
      3 N          10.144000    2.594000   12.896000 N.ar      1 <1>        -0.709300 
      4 C          10.698000    1.979000   11.824000 C.ar      1 <1>         0.808800 
      5 N          12.040000    2.147000   11.544000 N.ar      1 <1>        -0.670400 
      6 C          12.771000    3.054000   12.316000 C.ar      1 <1>         0.451000 
      7 C          14.262000    3.050000   12.022000 C.3       1 <1>        -0.053900 
      8 H          14.577000    2.021000   11.785000 H         1 <1>         0.052200 
      9 H          14.471000    3.652000   11.120000 H         1 <1>         0.034300 
     10 C          15.021000    3.623000   13.226000 C.3       1 <1>        -0.116200 
     11 H          16.090000    3.736000   12.974000 H         1 <1>         0.021700 
     12 H          14.970000    2.934000   14.088000 H         1 <1>         0.050500 
     13 C          14.378000    4.985000   13.572000 C.3       1 <1>         0.231000 
     14 H          14.174000    5.427000   12.581000 H         1 <1>         0.023600 
     15 C          12.959000    4.853000   14.179000 C.3       1 <1>        -0.069300 
     16 H          13.026000    4.413000   15.192000 H         1 <1>         0.058500 
     17 H          12.520000    5.695000   14.203000 H         1 <1>         0.032600 
     18 C          15.364000    5.904000   14.300000 C.3       1 <1>        -0.172300 
     19 H          14.867000    6.766000   14.778000 H         1 <1>         0.097000 
     20 H          15.853000    5.358000   15.123000 H         1 <1>         0.083700 
     21 N          16.387000    6.412000   13.414000 N.pl3     1 <1>        -0.425500 
     22 H          17.229000    5.857000   13.382000 H         1 <1>         0.288100 
     23 C          16.036000    7.098000   12.249000 C.ar      1 <1>         0.232500 
     24 C          14.739000    7.659000   12.082000 C.ar      1 <1>        -0.242400 
     25 H          13.935000    7.546000   12.829000 H         1 <1>         0.130100 
     26 C          14.455000    8.476000   10.990000 C.ar      1 <1>         0.183100 
     27 C          15.417000    8.725000   10.019000 C.ar      1 <1>        -0.077700 
     28 C          16.672000    8.201000   10.095000 C.ar      1 <1>         0.298800 
     29 C          17.003000    7.433000   11.280000 C.ar      1 <1>        -0.415500 
     30 H          17.904000    7.155000   11.393000 H         1 <1>         0.147500 
     31 O          17.631000    8.412000    9.115000 O.3       1 <1>        -0.235900 
     32 C          18.900000    7.794000    9.341000 C.3       1 <1>        -0.045300 
     33 H          19.364000    8.163000   10.269000 H         1 <1>         0.056700 
     34 H          18.803000    6.700000    9.406000 H         1 <1>         0.058600 
     35 H          19.541000    8.051000    8.489000 H         1 <1>         0.074700 
     36 O          15.056000    9.490000    8.899000 O.3       1 <1>        -0.209700 
     37 C          16.046000    9.746000    7.902000 C.3       1 <1>        -0.009600 
     38 H          16.201000    8.875000    7.247000 H         1 <1>         0.052200 
     39 H          15.677000   10.582000    7.293000 H         1 <1>         0.052200 
     40 H          17.011000   10.027000    8.349000 H         1 <1>         0.046500 
     41 O          13.154000    8.983000   10.818000 O.3       1 <1>        -0.270000 
     42 C          12.836000    9.820000    9.710000 C.3       1 <1>         0.059900 
     43 H          13.712000   10.364000    9.328000 H         1 <1>         0.039700 
     44 H          12.409000    9.221000    8.889000 H         1 <1>         0.040400 
     45 H          12.086000   10.549000   10.050000 H         1 <1>         0.034600 
     46 N          10.000000    1.203000   11.073000 N.pl3     1 <1>        -0.819300 
     47 H           9.131000    1.063000   11.257000 H         1 <1>         0.373200 
     48 H          10.381000    0.801000   10.364000 H         1 <1>         0.375600 
     49 N          10.182000    3.960000   14.711000 N.pl3     1 <1>        -0.795000 
     50 H          10.582000    4.562000   15.248000 H         1 <1>         0.346700 
     51 H           9.344000    3.684000   14.890000 H         1 <1>         0.334500 
@<TRIPOS>BOND
     1    1    2 ar   
     2    2    3 ar   
     3    3    4 ar   
     4    4    5 ar   
     5    5    6 ar   
     6    6    1 ar   
     7    6    7 1    
     8    7    8 1    
     9    7    9 1    
    10    7   10 1    
    11   10   11 1    
    12   10   12 1    
    13   10   13 1    
    14   13   14 1    
    15   13   15 1    
    16   15   16 1    
    17   15   17 1    
    18   15    1 1    
    19   13   18 1    
    20   18   19 1    
    21   18   20 1    
    22   18   21 1    
    23   21   22 1    
    24   21   23 1    
    25   23   24 ar   
    26   24   25 1    
    27   24   26 ar   
    28   26   27 ar   
    29   27   28 ar   
    30   28   29 ar   
    31   29   30 1    
    32   29   23 ar   
    33   28   31 1    
    34   31   32 1    
    35   32   33 1    
    36   32   34 1    
    37   32   35 1    
    38   27   36 1    
    39   36   37 1    
    40   37   38 1    
    41   37   39 1    
    42   37   40 1    
    43   26   41 1    
    44   41   42 1    
    45   42   43 1    
    46   42   44 1    
    47   42   45 1    
    48    4   46 1    
    49   46   47 1    
    50   46   48 1    
    51    2   49 1    
    52   49   50 1    
    53   49   51 1    
@<TRIPOS>SUBSTRUCTURE
     1 ****        1 TEMP              0 ****  ****    0 ROOT 
@<TRIPOS>SET
UNITY_3DHIT     STATIC     ATOMS    <user>   **** Atoms matching 3D or FLEX Search
0
