#	Name:			19-20
#	Creating user name:	jeff
#	Creation time:		Thu Dec  4 18:13:29 2003

#	Modifying user name:	jeff
#	Modification time:	Thu Dec  4 18:13:29 2003

@<TRIPOS>MOLECULE
19-20
   48    51     1     0     1
SMALL
USER_CHARGES
****
From 3DB ct
@<TRIPOS>ATOM
      1 C          12.200000    3.860000   13.273000 C.ar      1 <1>        -0.606000 
      2 C          10.845000    3.466000   13.630000 C.ar      1 <1>         0.752200 
      3 N          10.144000    2.594000   12.896000 N.ar      1 <1>        -0.708300 
      4 C          10.698000    1.979000   11.824000 C.ar      1 <1>         0.817700 
      5 N          12.040000    2.147000   11.544000 N.ar      1 <1>        -0.672700 
      6 C          12.771000    3.054000   12.316000 C.ar      1 <1>         0.439200 
      7 C          14.262000    3.050000   12.022000 C.3       1 <1>        -0.024300 
      8 H          14.577000    2.021000   11.785000 H         1 <1>         0.042500 
      9 H          14.471000    3.652000   11.120000 H         1 <1>         0.030300 
     10 C          15.021000    3.623000   13.226000 C.3       1 <1>        -0.069000 
     11 H          16.090000    3.736000   12.974000 H         1 <1>         0.008200 
     12 H          14.970000    2.934000   14.088000 H         1 <1>         0.045500 
     13 C          14.378000    4.985000   13.572000 C.3       1 <1>         0.060800 
     14 H          14.174000    5.427000   12.581000 H         1 <1>         0.051800 
     15 C          12.959000    4.853000   14.179000 C.3       1 <1>         0.092000 
     16 H          13.026000    4.413000   15.192000 H         1 <1>         0.027500 
     17 H          12.520000    5.695000   14.203000 H         1 <1>        -0.005300 
     18 C          15.364000    5.904000   14.300000 C.3       1 <1>        -0.214300 
     19 H          14.867000    6.766000   14.778000 H         1 <1>         0.071800 
     20 H          15.853000    5.358000   15.123000 H         1 <1>         0.111900 
     21 N          16.387000    6.412000   13.414000 N.pl3     1 <1>        -0.220100 
     22 C          16.036000    7.098000   12.249000 C.ar      1 <1>         0.158800 
     23 C          14.739000    7.659000   12.082000 C.ar      1 <1>        -0.182700 
     24 H          13.935000    7.546000   12.829000 H         1 <1>         0.120500 
     25 C          14.455000    8.476000   10.990000 C.ar      1 <1>        -0.074700 
     26 H          13.447000    8.926000   10.881000 H         1 <1>         0.106700 
     27 C          15.417000    8.725000   10.019000 C.ar      1 <1>        -0.237400 
     28 H          15.208000    9.276000    9.274000 H         1 <1>         0.132600 
     29 C          16.672000    8.201000   10.095000 C.ar      1 <1>         0.201600 
     30 C          17.003000    7.433000   11.280000 C.ar      1 <1>        -0.107000 
     31 C          18.347000    6.968000   11.344000 C.ar      1 <1>        -0.006400 
     32 H          18.678000    6.370000   12.217000 H         1 <1>         0.083500 
     33 C          19.276000    7.215000   10.358000 C.ar      1 <1>        -0.181500 
     34 H          20.306000    6.822000   10.463000 H         1 <1>         0.116600 
     35 C          18.927000    7.971000    9.201000 C.ar      1 <1>        -0.029600 
     36 H          19.683000    8.164000    8.418000 H         1 <1>         0.095000 
     37 C          17.651000    8.455000    9.087000 C.ar      1 <1>        -0.248500 
     38 H          17.359000    9.061000    8.206000 H         1 <1>         0.129600 
     39 C          17.501000    5.654000   13.325000 C.3       1 <1>        -0.023800 
     40 H          17.584000    5.025000   14.212000 H         1 <1>         0.024700 
     41 H          17.443000    5.025000   12.437000 H         1 <1>         0.046800 
     42 H          18.375000    6.301000   13.256000 H         1 <1>         0.043400 
     43 N          10.000000    1.203000   11.073000 N.pl3     1 <1>        -0.830700 
     44 H           9.131000    1.063000   11.257000 H         1 <1>         0.375100 
     45 H          10.381000    0.801000   10.364000 H         1 <1>         0.379100 
     46 N          10.182000    3.960000   14.711000 N.pl3     1 <1>        -0.812900 
     47 H          10.582000    4.562000   15.248000 H         1 <1>         0.349700 
     48 H           9.344000    3.684000   14.890000 H         1 <1>         0.339700 
@<TRIPOS>BOND
     1    1    2 ar   
     2    2    3 ar   
     3    3    4 ar   
     4    4    5 ar   
     5    5    6 ar   
     6    6    1 ar   
     7    6    7 1    
     8    7    8 1    
     9    7    9 1    
    10    7   10 1    
    11   10   11 1    
    12   10   12 1    
    13   10   13 1    
    14   13   14 1    
    15   13   15 1    
    16   15   16 1    
    17   15   17 1    
    18   15    1 1    
    19   13   18 1    
    20   18   19 1    
    21   18   20 1    
    22   18   21 1    
    23   21   22 1    
    24   22   23 ar   
    25   23   24 1    
    26   23   25 ar   
    27   25   26 1    
    28   25   27 ar   
    29   27   28 1    
    30   27   29 ar   
    31   29   30 ar   
    32   30   22 ar   
    33   30   31 ar   
    34   31   32 1    
    35   31   33 ar   
    36   33   34 1    
    37   33   35 ar   
    38   35   36 1    
    39   35   37 ar   
    40   37   38 1    
    41   37   29 ar   
    42   21   39 1    
    43   39   40 1    
    44   39   41 1    
    45   39   42 1    
    46    4   43 1    
    47   43   44 1    
    48   43   45 1    
    49    2   46 1    
    50   46   47 1    
    51   46   48 1    
@<TRIPOS>SUBSTRUCTURE
     1 ****        1 TEMP              0 ****  ****    0 ROOT 
@<TRIPOS>SET
UNITY_3DHIT     STATIC     ATOMS    <user>   **** Atoms matching 3D or FLEX Search
0
