#	Name:			19-3
#	Creating user name:	jeff
#	Creation time:		Thu Dec  4 18:13:29 2003

#	Modifying user name:	jeff
#	Modification time:	Thu Dec  4 18:13:29 2003

@<TRIPOS>MOLECULE
19-3
   53    55     1     0     1
SMALL
USER_CHARGES
****
From 3DB ct
@<TRIPOS>ATOM
      1 C          12.200000    3.860000   13.273000 C.ar      1 <1>        -0.640800 
      2 C          10.845000    3.466000   13.630000 C.ar      1 <1>         0.778500 
      3 N          10.144000    2.594000   12.896000 N.ar      1 <1>        -0.719000 
      4 C          10.698000    1.979000   11.824000 C.ar      1 <1>         0.823400 
      5 N          12.040000    2.147000   11.544000 N.ar      1 <1>        -0.676500 
      6 C          12.771000    3.054000   12.316000 C.ar      1 <1>         0.470000 
      7 C          14.262000    3.050000   12.022000 C.3       1 <1>        -0.065400 
      8 H          14.577000    2.021000   11.785000 H         1 <1>         0.055400 
      9 H          14.471000    3.652000   11.120000 H         1 <1>         0.038600 
     10 C          15.021000    3.623000   13.226000 C.3       1 <1>        -0.118100 
     11 H          16.090000    3.736000   12.974000 H         1 <1>         0.033400 
     12 H          14.970000    2.934000   14.088000 H         1 <1>         0.061300 
     13 C          14.378000    4.985000   13.572000 C.3       1 <1>         0.161600 
     14 H          14.174000    5.427000   12.581000 H         1 <1>         0.048100 
     15 C          12.959000    4.853000   14.179000 C.3       1 <1>         0.035900 
     16 H          13.026000    4.413000   15.192000 H         1 <1>         0.044400 
     17 H          12.520000    5.695000   14.203000 H         1 <1>         0.017200 
     18 C          15.364000    5.904000   14.300000 C.3       1 <1>        -0.337500 
     19 H          14.867000    6.766000   14.778000 H         1 <1>         0.120400 
     20 H          15.853000    5.358000   15.123000 H         1 <1>         0.146100 
     21 N          16.387000    6.412000   13.414000 N.pl3     1 <1>        -0.020700 
     22 C          16.036000    7.098000   12.249000 C.ar      1 <1>         0.154200 
     23 C          14.739000    7.659000   12.082000 C.ar      1 <1>        -0.311400 
     24 H          13.935000    7.546000   12.829000 H         1 <1>         0.148800 
     25 C          14.455000    8.476000   10.990000 C.ar      1 <1>         0.282300 
     26 C          15.417000    8.725000   10.019000 C.ar      1 <1>        -0.068000 
     27 C          16.672000    8.201000   10.095000 C.ar      1 <1>         0.243900 
     28 C          17.003000    7.433000   11.280000 C.ar      1 <1>        -0.333500 
     29 H          17.904000    7.155000   11.393000 H         1 <1>         0.153800 
     30 O          17.631000    8.412000    9.115000 O.3       1 <1>        -0.235400 
     31 C          18.900000    7.794000    9.341000 C.3       1 <1>        -0.017400 
     32 H          19.364000    8.163000   10.269000 H         1 <1>         0.056500 
     33 H          18.803000    6.700000    9.406000 H         1 <1>         0.048800 
     34 H          19.541000    8.051000    8.489000 H         1 <1>         0.065500 
     35 O          15.056000    9.490000    8.899000 O.3       1 <1>        -0.181800 
     36 C          16.046000    9.746000    7.902000 C.3       1 <1>        -0.063900 
     37 H          16.201000    8.875000    7.247000 H         1 <1>         0.055000 
     38 H          15.677000   10.582000    7.293000 H         1 <1>         0.069400 
     39 H          17.011000   10.027000    8.349000 H         1 <1>         0.072300 
     40 O          13.154000    8.983000   10.818000 O.3       1 <1>        -0.313100 
     41 C          12.836000    9.820000    9.710000 C.3       1 <1>         0.117400 
     42 H          13.712000   10.364000    9.328000 H         1 <1>         0.016700 
     43 H          12.409000    9.221000    8.889000 H         1 <1>         0.012300 
     44 H          12.086000   10.549000   10.050000 H         1 <1>         0.031000 
     45 C          17.700000    6.043000   13.602000 C.1       1 <1>        -0.007000 
     46 C          18.848000    5.724000   13.768000 C.1       1 <1>        -0.346900 
     47 H          19.852000    5.445000   13.912000 H         1 <1>         0.293100 
     48 N          10.000000    1.203000   11.073000 N.pl3     1 <1>        -0.832100 
     49 H           9.131000    1.063000   11.257000 H         1 <1>         0.376900 
     50 H          10.381000    0.801000   10.364000 H         1 <1>         0.379600 
     51 N          10.182000    3.960000   14.711000 N.pl3     1 <1>        -0.811100 
     52 H          10.582000    4.562000   15.248000 H         1 <1>         0.348500 
     53 H           9.344000    3.684000   14.890000 H         1 <1>         0.339200 
@<TRIPOS>BOND
     1    1    2 ar   
     2    2    3 ar   
     3    3    4 ar   
     4    4    5 ar   
     5    5    6 ar   
     6    6    1 ar   
     7    6    7 1    
     8    7    8 1    
     9    7    9 1    
    10    7   10 1    
    11   10   11 1    
    12   10   12 1    
    13   10   13 1    
    14   13   14 1    
    15   13   15 1    
    16   15   16 1    
    17   15   17 1    
    18   15    1 1    
    19   13   18 1    
    20   18   19 1    
    21   18   20 1    
    22   18   21 1    
    23   21   22 1    
    24   22   23 ar   
    25   23   24 1    
    26   23   25 ar   
    27   25   26 ar   
    28   26   27 ar   
    29   27   28 ar   
    30   28   29 1    
    31   28   22 ar   
    32   27   30 1    
    33   30   31 1    
    34   31   32 1    
    35   31   33 1    
    36   31   34 1    
    37   26   35 1    
    38   35   36 1    
    39   36   37 1    
    40   36   38 1    
    41   36   39 1    
    42   25   40 1    
    43   40   41 1    
    44   41   42 1    
    45   41   43 1    
    46   41   44 1    
    47   21   45 1    
    48   45   46 3    
    49   46   47 1    
    50    4   48 1    
    51   48   49 1    
    52   48   50 1    
    53    2   51 1    
    54   51   52 1    
    55   51   53 1    
@<TRIPOS>SUBSTRUCTURE
     1 ****        1 TEMP              0 ****  ****    0 ROOT 
@<TRIPOS>SET
UNITY_3DHIT     STATIC     ATOMS    <user>   **** Atoms matching 3D or FLEX Search
0
