#	Name:			19-4
#	Creating user name:	jeff
#	Creation time:		Thu Dec  4 18:13:29 2003

#	Modifying user name:	jeff
#	Modification time:	Thu Dec  4 18:13:30 2003

@<TRIPOS>MOLECULE
19-4
   47    49     1     0     1
SMALL
USER_CHARGES
****
From 3DB ct
@<TRIPOS>ATOM
      1 C          12.200000    3.860000   13.273000 C.ar      1 <1>        -0.601600 
      2 C          10.845000    3.466000   13.630000 C.ar      1 <1>         0.746900 
      3 N          10.144000    2.594000   12.896000 N.ar      1 <1>        -0.700200 
      4 C          10.698000    1.979000   11.824000 C.ar      1 <1>         0.795300 
      5 N          12.040000    2.147000   11.544000 N.ar      1 <1>        -0.664400 
      6 C          12.771000    3.054000   12.316000 C.ar      1 <1>         0.462200 
      7 C          14.262000    3.050000   12.022000 C.3       1 <1>        -0.094200 
      8 H          14.577000    2.021000   11.785000 H         1 <1>         0.057500 
      9 H          14.471000    3.652000   11.120000 H         1 <1>         0.045200 
     10 C          15.021000    3.623000   13.226000 C.3       1 <1>        -0.062300 
     11 H          16.090000    3.736000   12.974000 H         1 <1>         0.014700 
     12 H          14.970000    2.934000   14.088000 H         1 <1>         0.040300 
     13 C          14.378000    4.985000   13.572000 C.3       1 <1>         0.184500 
     14 H          14.174000    5.427000   12.581000 H         1 <1>         0.021700 
     15 C          12.959000    4.853000   14.179000 C.3       1 <1>         0.013100 
     16 H          13.026000    4.413000   15.192000 H         1 <1>         0.038400 
     17 H          12.520000    5.695000   14.203000 H         1 <1>         0.011100 
     18 C          15.364000    5.904000   14.300000 C.3       1 <1>        -0.194800 
     19 H          14.867000    6.766000   14.778000 H         1 <1>         0.114700 
     20 H          15.853000    5.358000   15.123000 H         1 <1>         0.092500 
     21 N          16.387000    6.412000   13.414000 N.pl3     1 <1>        -0.470800 
     22 H          17.255000    6.284000   13.617000 H         1 <1>         0.312900 
     23 C          16.036000    7.098000   12.249000 C.ar      1 <1>         0.345800 
     24 C          14.739000    7.659000   12.082000 C.ar      1 <1>        -0.427000 
     25 H          13.935000    7.546000   12.829000 H         1 <1>         0.158900 
     26 C          14.455000    8.476000   10.990000 C.ar      1 <1>         0.380800 
     27 C          15.417000    8.725000   10.019000 C.ar      1 <1>        -0.308800 
     28 H          15.208000    9.276000    9.274000 H         1 <1>         0.128300 
     29 C          16.672000    8.201000   10.095000 C.ar      1 <1>        -0.079200 
     30 H          17.290000    8.345000    9.389000 H         1 <1>         0.144300 
     31 C          17.003000    7.433000   11.280000 C.ar      1 <1>        -0.061000 
     32 O          18.237000    7.052000   11.435000 O.3       1 <1>        -0.283200 
     33 C          19.228000    7.380000   10.470000 C.3       1 <1>         0.075800 
     34 H          18.787000    7.967000    9.663000 H         1 <1>         0.024600 
     35 H          20.018000    7.960000   10.947000 H         1 <1>         0.013800 
     36 H          19.651000    6.463000   10.059000 H         1 <1>         0.040500 
     37 O          13.154000    8.983000   10.818000 O.3       1 <1>        -0.298800 
     38 C          12.836000    9.820000    9.710000 C.3       1 <1>         0.034000 
     39 H          13.712000   10.364000    9.328000 H         1 <1>         0.035700 
     40 H          12.409000    9.221000    8.889000 H         1 <1>         0.034700 
     41 H          12.086000   10.549000   10.050000 H         1 <1>         0.062500 
     42 N          10.000000    1.203000   11.073000 N.pl3     1 <1>        -0.812100 
     43 H           9.131000    1.063000   11.257000 H         1 <1>         0.370200 
     44 H          10.381000    0.801000   10.364000 H         1 <1>         0.373900 
     45 N          10.182000    3.960000   14.711000 N.pl3     1 <1>        -0.798700 
     46 H          10.582000    4.562000   15.248000 H         1 <1>         0.347400 
     47 H           9.344000    3.684000   14.890000 H         1 <1>         0.334900 
@<TRIPOS>BOND
     1    1    2 ar   
     2    2    3 ar   
     3    3    4 ar   
     4    4    5 ar   
     5    5    6 ar   
     6    6    1 ar   
     7    6    7 1    
     8    7    8 1    
     9    7    9 1    
    10    7   10 1    
    11   10   11 1    
    12   10   12 1    
    13   10   13 1    
    14   13   14 1    
    15   13   15 1    
    16   15   16 1    
    17   15   17 1    
    18   15    1 1    
    19   13   18 1    
    20   18   19 1    
    21   18   20 1    
    22   18   21 1    
    23   21   22 1    
    24   21   23 1    
    25   23   24 ar   
    26   24   25 1    
    27   24   26 ar   
    28   26   27 ar   
    29   27   28 1    
    30   27   29 ar   
    31   29   30 1    
    32   29   31 ar   
    33   31   23 ar   
    34   31   32 1    
    35   32   33 1    
    36   33   34 1    
    37   33   35 1    
    38   33   36 1    
    39   26   37 1    
    40   37   38 1    
    41   38   39 1    
    42   38   40 1    
    43   38   41 1    
    44    4   42 1    
    45   42   43 1    
    46   42   44 1    
    47    2   45 1    
    48   45   46 1    
    49   45   47 1    
@<TRIPOS>SUBSTRUCTURE
     1 ****        1 TEMP              0 ****  ****    0 ROOT 
@<TRIPOS>SET
UNITY_3DHIT     STATIC     ATOMS    <user>   **** Atoms matching 3D or FLEX Search
0
