#	Name:			19-6
#	Creating user name:	jeff
#	Creation time:		Thu Dec  4 18:13:30 2003

#	Modifying user name:	jeff
#	Modification time:	Thu Dec  4 18:13:30 2003

@<TRIPOS>MOLECULE
19-6
   53    55     1     0     1
SMALL
USER_CHARGES
****
From 3DB ct
@<TRIPOS>ATOM
      1 C          12.200000    3.860000   13.273000 C.ar      1 <1>        -0.609500 
      2 C          10.845000    3.466000   13.630000 C.ar      1 <1>         0.751300 
      3 N          10.144000    2.594000   12.896000 N.ar      1 <1>        -0.705300 
      4 C          10.698000    1.979000   11.824000 C.ar      1 <1>         0.804000 
      5 N          12.040000    2.147000   11.544000 N.ar      1 <1>        -0.664500 
      6 C          12.771000    3.054000   12.316000 C.ar      1 <1>         0.460700 
      7 C          14.262000    3.050000   12.022000 C.3       1 <1>        -0.104500 
      8 H          14.577000    2.021000   11.785000 H         1 <1>         0.059700 
      9 H          14.471000    3.652000   11.120000 H         1 <1>         0.045900 
     10 C          15.021000    3.623000   13.226000 C.3       1 <1>        -0.033100 
     11 H          16.090000    3.736000   12.974000 H         1 <1>         0.004100 
     12 H          14.970000    2.934000   14.088000 H         1 <1>         0.045200 
     13 C          14.378000    4.985000   13.572000 C.3       1 <1>         0.107900 
     14 H          14.174000    5.427000   12.581000 H         1 <1>         0.054300 
     15 C          12.959000    4.853000   14.179000 C.3       1 <1>         0.044500 
     16 H          13.026000    4.413000   15.192000 H         1 <1>         0.033300 
     17 H          12.520000    5.695000   14.203000 H         1 <1>         0.013400 
     18 C          15.364000    5.904000   14.300000 C.3       1 <1>        -0.262900 
     19 H          14.867000    6.766000   14.778000 H         1 <1>         0.082600 
     20 H          15.853000    5.358000   15.123000 H         1 <1>         0.132000 
     21 N          16.387000    6.412000   13.414000 N.pl3     1 <1>        -0.160000 
     22 C          16.036000    7.098000   12.249000 C.ar      1 <1>         0.110000 
     23 C          14.739000    7.659000   12.082000 C.ar      1 <1>        -0.361300 
     24 H          13.935000    7.546000   12.829000 H         1 <1>         0.159800 
     25 C          14.455000    8.476000   10.990000 C.ar      1 <1>         0.352200 
     26 C          15.417000    8.725000   10.019000 C.ar      1 <1>        -0.259100 
     27 H          15.190000    9.269000    9.086000 H         1 <1>         0.129400 
     28 C          16.672000    8.201000   10.095000 C.ar      1 <1>        -0.164400 
     29 H          17.225000    8.396000    9.164000 H         1 <1>         0.135100 
     30 C          17.003000    7.433000   11.280000 C.ar      1 <1>         0.097400 
     31 O          18.237000    7.052000   11.435000 O.3       1 <1>        -0.190600 
     32 C          19.228000    7.380000   10.470000 C.3       1 <1>        -0.045800 
     33 H          18.787000    7.967000    9.663000 H         1 <1>         0.054800 
     34 H          20.018000    7.960000   10.947000 H         1 <1>         0.069200 
     35 H          19.651000    6.463000   10.059000 H         1 <1>         0.043700 
     36 O          13.154000    8.983000   10.818000 O.3       1 <1>        -0.308200 
     37 C          12.836000    9.820000    9.710000 C.3       1 <1>         0.048900 
     38 H          13.712000   10.364000    9.328000 H         1 <1>         0.028400 
     39 H          12.409000    9.221000    8.889000 H         1 <1>         0.029700 
     40 H          12.086000   10.549000   10.050000 H         1 <1>         0.059800 
     41 C          17.720000    6.396000   14.018000 C.3       1 <1>         0.072800 
     42 H          17.693000    6.051000   15.060000 H         1 <1>         0.014500 
     43 H          18.165000    7.404000   14.031000 H         1 <1>         0.048800 
     44 C          18.463000    5.497000   13.081000 C.3       1 <1>        -0.108400 
     45 H          19.556000    5.525000   13.179000 H         1 <1>         0.028200 
     46 H          18.091000    4.470000   13.014000 H         1 <1>         0.018000 
     47 H          18.104000    6.149000   12.105000 H         1 <1>         0.033100 
     48 N          10.000000    1.203000   11.073000 N.pl3     1 <1>        -0.823400 
     49 H           9.131000    1.063000   11.257000 H         1 <1>         0.373100 
     50 H          10.381000    0.801000   10.364000 H         1 <1>         0.375700 
     51 N          10.182000    3.960000   14.711000 N.pl3     1 <1>        -0.801700 
     52 H          10.582000    4.562000   15.248000 H         1 <1>         0.345800 
     53 H           9.344000    3.684000   14.890000 H         1 <1>         0.335900 
@<TRIPOS>BOND
     1    1    2 ar   
     2    2    3 ar   
     3    3    4 ar   
     4    4    5 ar   
     5    5    6 ar   
     6    6    1 ar   
     7    6    7 1    
     8    7    8 1    
     9    7    9 1    
    10    7   10 1    
    11   10   11 1    
    12   10   12 1    
    13   10   13 1    
    14   13   14 1    
    15   13   15 1    
    16   15   16 1    
    17   15   17 1    
    18   15    1 1    
    19   13   18 1    
    20   18   19 1    
    21   18   20 1    
    22   18   21 1    
    23   21   22 1    
    24   22   23 ar   
    25   23   24 1    
    26   23   25 ar   
    27   25   26 ar   
    28   26   27 1    
    29   26   28 ar   
    30   28   29 1    
    31   28   30 ar   
    32   30   22 ar   
    33   30   31 1    
    34   31   32 1    
    35   32   33 1    
    36   32   34 1    
    37   32   35 1    
    38   25   36 1    
    39   36   37 1    
    40   37   38 1    
    41   37   39 1    
    42   37   40 1    
    43   21   41 1    
    44   41   42 1    
    45   41   43 1    
    46   41   44 1    
    47   44   45 1    
    48   44   46 1    
    49   44   47 1    
    50    4   48 1    
    51   48   49 1    
    52   48   50 1    
    53    2   51 1    
    54   51   52 1    
    55   51   53 1    
@<TRIPOS>SUBSTRUCTURE
     1 ****        1 TEMP              0 ****  ****    0 ROOT 
@<TRIPOS>SET
UNITY_3DHIT     STATIC     ATOMS    <user>   **** Atoms matching 3D or FLEX Search
0
