#	Name:			19-7
#	Creating user name:	jeff
#	Creation time:		Thu Dec  4 18:13:30 2003

#	Modifying user name:	jeff
#	Modification time:	Thu Dec  4 18:13:30 2003

@<TRIPOS>MOLECULE
19-7
   53    55     1     0     1
SMALL
USER_CHARGES
****
From 3DB ct
@<TRIPOS>ATOM
      1 C          12.200000    3.860000   13.273000 C.ar      1 <1>        -0.588700 
      2 C          10.845000    3.466000   13.630000 C.ar      1 <1>         0.741900 
      3 N          10.144000    2.594000   12.896000 N.ar      1 <1>        -0.702500 
      4 C          10.698000    1.979000   11.824000 C.ar      1 <1>         0.802700 
      5 N          12.040000    2.147000   11.544000 N.ar      1 <1>        -0.667200 
      6 C          12.771000    3.054000   12.316000 C.ar      1 <1>         0.455200 
      7 C          14.262000    3.050000   12.022000 C.3       1 <1>        -0.081900 
      8 H          14.577000    2.021000   11.785000 H         1 <1>         0.055000 
      9 H          14.471000    3.652000   11.120000 H         1 <1>         0.041100 
     10 C          15.021000    3.623000   13.226000 C.3       1 <1>        -0.082100 
     11 H          16.090000    3.736000   12.974000 H         1 <1>         0.020500 
     12 H          14.970000    2.934000   14.088000 H         1 <1>         0.038400 
     13 C          14.378000    4.985000   13.572000 C.3       1 <1>         0.231700 
     14 H          14.174000    5.427000   12.581000 H         1 <1>         0.004500 
     15 C          12.959000    4.853000   14.179000 C.3       1 <1>        -0.023600 
     16 H          13.026000    4.413000   15.192000 H         1 <1>         0.040400 
     17 H          12.520000    5.695000   14.203000 H         1 <1>         0.016800 
     18 C          15.364000    5.904000   14.300000 C.3       1 <1>        -0.127700 
     19 H          14.867000    6.766000   14.778000 H         1 <1>         0.082300 
     20 H          15.853000    5.358000   15.123000 H         1 <1>         0.074100 
     21 N          16.387000    6.412000   13.414000 N.pl3     1 <1>        -0.427200 
     22 H          17.216000    5.847000   13.348000 H         1 <1>         0.281300 
     23 C          16.036000    7.098000   12.249000 C.ar      1 <1>         0.212800 
     24 C          14.739000    7.659000   12.082000 C.ar      1 <1>        -0.285600 
     25 H          13.935000    7.546000   12.829000 H         1 <1>         0.138600 
     26 C          14.455000    8.476000   10.990000 C.ar      1 <1>         0.253000 
     27 C          15.417000    8.725000   10.019000 C.ar      1 <1>        -0.273300 
     28 H          15.208000    9.276000    9.274000 H         1 <1>         0.107500 
     29 C          16.672000    8.201000   10.095000 C.ar      1 <1>        -0.070300 
     30 H          17.290000    8.345000    9.389000 H         1 <1>         0.096500 
     31 C          17.003000    7.433000   11.280000 C.ar      1 <1>        -0.023800 
     32 O          18.237000    7.052000   11.435000 O.3       1 <1>        -0.279900 
     33 C          19.327000    7.313000   10.545000 C.3       1 <1>         0.246300 
     34 H          19.490000    8.393000   10.397000 H         1 <1>         0.005400 
     35 H          18.975000    6.921000    9.577000 H         1 <1>         0.006200 
     36 C          20.641000    6.611000   10.911000 C.3       1 <1>        -0.220900 
     37 H          21.402000    6.783000   10.134000 H         1 <1>         0.051400 
     38 H          21.042000    6.974000   11.871000 H         1 <1>         0.062600 
     39 H          20.480000    5.525000   11.004000 H         1 <1>         0.064500 
     40 O          13.184000    8.989000   10.944000 O.3       1 <1>        -0.321600 
     41 C          12.757000    9.811000    9.859000 C.3       1 <1>         0.264200 
     42 H          13.390000   10.712000    9.788000 H         1 <1>         0.003000 
     43 H          12.856000    9.268000    8.904000 H         1 <1>         0.002700 
     44 C          11.297000   10.212000   10.083000 C.3       1 <1>        -0.225000 
     45 H          10.916000   10.849000    9.270000 H         1 <1>         0.049800 
     46 H          10.660000    9.314000   10.143000 H         1 <1>         0.067700 
     47 H          11.193000   10.765000   11.030000 H         1 <1>         0.066600 
     48 N          10.000000    1.203000   11.073000 N.pl3     1 <1>        -0.820600 
     49 H           9.131000    1.063000   11.257000 H         1 <1>         0.373300 
     50 H          10.381000    0.801000   10.364000 H         1 <1>         0.375600 
     51 N          10.182000    3.960000   14.711000 N.pl3     1 <1>        -0.792500 
     52 H          10.582000    4.562000   15.248000 H         1 <1>         0.347000 
     53 H           9.344000    3.684000   14.890000 H         1 <1>         0.333700 
@<TRIPOS>BOND
     1    1    2 ar   
     2    2    3 ar   
     3    3    4 ar   
     4    4    5 ar   
     5    5    6 ar   
     6    6    1 ar   
     7    6    7 1    
     8    7    8 1    
     9    7    9 1    
    10    7   10 1    
    11   10   11 1    
    12   10   12 1    
    13   10   13 1    
    14   13   14 1    
    15   13   15 1    
    16   15   16 1    
    17   15   17 1    
    18   15    1 1    
    19   13   18 1    
    20   18   19 1    
    21   18   20 1    
    22   18   21 1    
    23   21   22 1    
    24   21   23 1    
    25   23   24 ar   
    26   24   25 1    
    27   24   26 ar   
    28   26   27 ar   
    29   27   28 1    
    30   27   29 ar   
    31   29   30 1    
    32   29   31 ar   
    33   31   23 ar   
    34   31   32 1    
    35   32   33 1    
    36   33   34 1    
    37   33   35 1    
    38   33   36 1    
    39   36   37 1    
    40   36   38 1    
    41   36   39 1    
    42   26   40 1    
    43   40   41 1    
    44   41   42 1    
    45   41   43 1    
    46   41   44 1    
    47   44   45 1    
    48   44   46 1    
    49   44   47 1    
    50    4   48 1    
    51   48   49 1    
    52   48   50 1    
    53    2   51 1    
    54   51   52 1    
    55   51   53 1    
@<TRIPOS>SUBSTRUCTURE
     1 ****        1 TEMP              0 ****  ****    0 ROOT 
@<TRIPOS>SET
UNITY_3DHIT     STATIC     ATOMS    <user>   **** Atoms matching 3D or FLEX Search
0
