#	Name:			19-8
#	Creating user name:	jeff
#	Creation time:		Thu Dec  4 18:13:30 2003

#	Modifying user name:	jeff
#	Modification time:	Thu Dec  4 18:13:30 2003

@<TRIPOS>MOLECULE
19-8
   56    58     1     0     1
SMALL
USER_CHARGES
****
From 3DB ct
@<TRIPOS>ATOM
      1 C          12.200000    3.860000   13.273000 C.ar      1 <1>        -0.615400 
      2 C          10.845000    3.466000   13.630000 C.ar      1 <1>         0.761800 
      3 N          10.144000    2.594000   12.896000 N.ar      1 <1>        -0.710400 
      4 C          10.698000    1.979000   11.824000 C.ar      1 <1>         0.808800 
      5 N          12.040000    2.147000   11.544000 N.ar      1 <1>        -0.667400 
      6 C          12.771000    3.054000   12.316000 C.ar      1 <1>         0.463300 
      7 C          14.262000    3.050000   12.022000 C.3       1 <1>        -0.094300 
      8 H          14.577000    2.021000   11.785000 H         1 <1>         0.059200 
      9 H          14.471000    3.652000   11.120000 H         1 <1>         0.044200 
     10 C          15.021000    3.623000   13.226000 C.3       1 <1>        -0.069100 
     11 H          16.090000    3.736000   12.974000 H         1 <1>         0.021600 
     12 H          14.970000    2.934000   14.088000 H         1 <1>         0.047400 
     13 C          14.378000    4.985000   13.572000 C.3       1 <1>         0.162500 
     14 H          14.174000    5.427000   12.581000 H         1 <1>         0.040600 
     15 C          12.959000    4.853000   14.179000 C.3       1 <1>         0.010100 
     16 H          13.026000    4.413000   15.192000 H         1 <1>         0.042300 
     17 H          12.520000    5.695000   14.203000 H         1 <1>         0.017300 
     18 C          15.364000    5.904000   14.300000 C.3       1 <1>        -0.239700 
     19 H          14.867000    6.766000   14.778000 H         1 <1>         0.086600 
     20 H          15.853000    5.358000   15.123000 H         1 <1>         0.115400 
     21 N          16.387000    6.412000   13.414000 N.pl3     1 <1>        -0.185200 
     22 C          16.036000    7.098000   12.249000 C.ar      1 <1>         0.184600 
     23 C          14.739000    7.659000   12.082000 C.ar      1 <1>        -0.356700 
     24 H          13.935000    7.546000   12.829000 H         1 <1>         0.161700 
     25 C          14.455000    8.476000   10.990000 C.ar      1 <1>         0.292000 
     26 C          15.417000    8.725000   10.019000 C.ar      1 <1>        -0.246500 
     27 H          15.208000    9.276000    9.274000 H         1 <1>         0.109300 
     28 C          16.672000    8.201000   10.095000 C.ar      1 <1>        -0.146200 
     29 H          17.290000    8.345000    9.389000 H         1 <1>         0.120300 
     30 C          17.003000    7.433000   11.280000 C.ar      1 <1>         0.068700 
     31 O          18.237000    7.052000   11.435000 O.3       1 <1>        -0.283900 
     32 C          19.327000    7.313000   10.545000 C.3       1 <1>         0.213100 
     33 H          19.421000    8.386000   10.310000 H         1 <1>         0.010300 
     34 H          19.024000    6.819000    9.607000 H         1 <1>         0.007000 
     35 C          20.677000    6.735000   10.991000 C.3       1 <1>        -0.182200 
     36 H          21.441000    6.895000   10.216000 H         1 <1>         0.042600 
     37 H          21.031000    7.203000   11.923000 H         1 <1>         0.048900 
     38 H          20.587000    5.652000   11.171000 H         1 <1>         0.058300 
     39 O          13.184000    8.989000   10.944000 O.3       1 <1>        -0.334900 
     40 C          12.757000    9.811000    9.859000 C.3       1 <1>         0.285100 
     41 H          13.390000   10.712000    9.788000 H         1 <1>        -0.004500 
     42 H          12.856000    9.268000    8.904000 H         1 <1>        -0.003400 
     43 C          11.297000   10.212000   10.083000 C.3       1 <1>        -0.229300 
     44 H          10.916000   10.849000    9.270000 H         1 <1>         0.049800 
     45 H          10.660000    9.314000   10.143000 H         1 <1>         0.067100 
     46 H          11.193000   10.765000   11.030000 H         1 <1>         0.068400 
     47 C          17.620000    6.806000   14.114000 C.3       1 <1>        -0.127600 
     48 H          17.520000    6.660000   15.199000 H         1 <1>         0.066200 
     49 H          18.474000    6.195000   13.779000 H         1 <1>         0.068200 
     50 H          17.847000    7.869000   13.949000 H         1 <1>         0.088600 
     51 N          10.000000    1.203000   11.073000 N.pl3     1 <1>        -0.826700 
     52 H           9.131000    1.063000   11.257000 H         1 <1>         0.374800 
     53 H          10.381000    0.801000   10.364000 H         1 <1>         0.376900 
     54 N          10.182000    3.960000   14.711000 N.pl3     1 <1>        -0.803000 
     55 H          10.582000    4.562000   15.248000 H         1 <1>         0.347200 
     56 H           9.344000    3.684000   14.890000 H         1 <1>         0.335800 
@<TRIPOS>BOND
     1    1    2 ar   
     2    2    3 ar   
     3    3    4 ar   
     4    4    5 ar   
     5    5    6 ar   
     6    6    1 ar   
     7    6    7 1    
     8    7    8 1    
     9    7    9 1    
    10    7   10 1    
    11   10   11 1    
    12   10   12 1    
    13   10   13 1    
    14   13   14 1    
    15   13   15 1    
    16   15   16 1    
    17   15   17 1    
    18   15    1 1    
    19   13   18 1    
    20   18   19 1    
    21   18   20 1    
    22   18   21 1    
    23   21   22 1    
    24   22   23 ar   
    25   23   24 1    
    26   23   25 ar   
    27   25   26 ar   
    28   26   27 1    
    29   26   28 ar   
    30   28   29 1    
    31   28   30 ar   
    32   30   22 ar   
    33   30   31 1    
    34   31   32 1    
    35   32   33 1    
    36   32   34 1    
    37   32   35 1    
    38   35   36 1    
    39   35   37 1    
    40   35   38 1    
    41   25   39 1    
    42   39   40 1    
    43   40   41 1    
    44   40   42 1    
    45   40   43 1    
    46   43   44 1    
    47   43   45 1    
    48   43   46 1    
    49   21   47 1    
    50   47   48 1    
    51   47   49 1    
    52   47   50 1    
    53    4   51 1    
    54   51   52 1    
    55   51   53 1    
    56    2   54 1    
    57   54   55 1    
    58   54   56 1    
@<TRIPOS>SUBSTRUCTURE
     1 ****        1 TEMP              0 ****  ****    0 ROOT 
@<TRIPOS>SET
UNITY_3DHIT     STATIC     ATOMS    <user>   **** Atoms matching 3D or FLEX Search
0
