#	Name:			19-9
#	Creating user name:	jeff
#	Creation time:		Thu Dec  4 18:13:30 2003

#	Modifying user name:	jeff
#	Modification time:	Thu Dec  4 18:13:30 2003

@<TRIPOS>MOLECULE
19-9
   39    41     1     0     1
SMALL
USER_CHARGES
****
From 3DB ct
@<TRIPOS>ATOM
      1 C          12.200000    3.860000   13.273000 C.ar      1 <1>        -0.548000 
      2 C          10.845000    3.466000   13.630000 C.ar      1 <1>         0.726100 
      3 N          10.144000    2.594000   12.896000 N.ar      1 <1>        -0.700400 
      4 C          10.698000    1.979000   11.824000 C.ar      1 <1>         0.805000 
      5 N          12.040000    2.147000   11.544000 N.ar      1 <1>        -0.667900 
      6 C          12.771000    3.054000   12.316000 C.ar      1 <1>         0.438300 
      7 C          14.262000    3.050000   12.022000 C.3       1 <1>        -0.047100 
      8 H          14.577000    2.021000   11.785000 H         1 <1>         0.052500 
      9 H          14.471000    3.652000   11.120000 H         1 <1>         0.038800 
     10 C          15.021000    3.623000   13.226000 C.3       1 <1>        -0.110200 
     11 H          16.090000    3.736000   12.974000 H         1 <1>         0.024600 
     12 H          14.970000    2.934000   14.088000 H         1 <1>         0.055000 
     13 C          14.378000    4.985000   13.572000 C.3       1 <1>         0.160300 
     14 H          14.174000    5.427000   12.581000 H         1 <1>         0.026700 
     15 C          12.959000    4.853000   14.179000 C.3       1 <1>        -0.072100 
     16 H          13.026000    4.413000   15.192000 H         1 <1>         0.053700 
     17 H          12.520000    5.695000   14.203000 H         1 <1>         0.033600 
     18 C          15.364000    5.904000   14.300000 C.3       1 <1>        -0.060000 
     19 H          14.867000    6.766000   14.778000 H         1 <1>         0.082700 
     20 H          15.853000    5.358000   15.123000 H         1 <1>         0.083800 
     21 N          16.387000    6.412000   13.414000 N.pl3     1 <1>        -0.675100 
     22 H          17.216000    5.847000   13.348000 H         1 <1>         0.359400 
     23 C          16.036000    7.098000   12.249000 C.ar      1 <1>         0.445900 
     24 C          14.739000    7.659000   12.082000 C.ar      1 <1>        -0.306800 
     25 H          13.935000    7.546000   12.829000 H         1 <1>         0.130200 
     26 C          14.455000    8.476000   10.990000 C.ar      1 <1>         0.168200 
     27 H          13.446000    8.924000   10.884000 H         1 <1>         0.060300 
     28 C          15.417000    8.725000   10.019000 C.ar      1 <1>        -0.330600 
     29 C          16.672000    8.201000   10.095000 C.ar      1 <1>        -0.103600 
     30 C          17.003000    7.433000   11.280000 C.ar      1 <1>        -0.149300 
     31 H          18.038000    7.053000   11.373000 H         1 <1>         0.074900 
     32 Cl         17.912000    8.460000    8.936000 Cl        1 <1>         0.059000 
     33 Cl         14.926000    9.721000    8.684000 Cl        1 <1>         0.064100 
     34 N          10.000000    1.203000   11.073000 N.pl3     1 <1>        -0.818600 
     35 H           9.131000    1.063000   11.257000 H         1 <1>         0.374700 
     36 H          10.381000    0.801000   10.364000 H         1 <1>         0.378400 
     37 N          10.182000    3.960000   14.711000 N.pl3     1 <1>        -0.785100 
     38 H          10.582000    4.562000   15.248000 H         1 <1>         0.343300 
     39 H           9.344000    3.684000   14.890000 H         1 <1>         0.335200 
@<TRIPOS>BOND
     1    1    2 ar   
     2    2    3 ar   
     3    3    4 ar   
     4    4    5 ar   
     5    5    6 ar   
     6    6    1 ar   
     7    6    7 1    
     8    7    8 1    
     9    7    9 1    
    10    7   10 1    
    11   10   11 1    
    12   10   12 1    
    13   10   13 1    
    14   13   14 1    
    15   13   15 1    
    16   15   16 1    
    17   15   17 1    
    18   15    1 1    
    19   13   18 1    
    20   18   19 1    
    21   18   20 1    
    22   18   21 1    
    23   21   22 1    
    24   21   23 1    
    25   23   24 ar   
    26   24   25 1    
    27   24   26 ar   
    28   26   27 1    
    29   26   28 ar   
    30   28   29 ar   
    31   29   30 ar   
    32   30   31 1    
    33   30   23 ar   
    34   29   32 1    
    35   28   33 1    
    36    4   34 1    
    37   34   35 1    
    38   34   36 1    
    39    2   37 1    
    40   37   38 1    
    41   37   39 1    
@<TRIPOS>SUBSTRUCTURE
     1 ****        1 TEMP              0 ****  ****    0 ROOT 
@<TRIPOS>SET
UNITY_3DHIT     STATIC     ATOMS    <user>   **** Atoms matching 3D or FLEX Search
0
