#	Name:			20-5k
#	Creating user name:	jeff
#	Creation time:		Thu Dec  4 18:13:31 2003

#	Modifying user name:	jeff
#	Modification time:	Thu Dec  4 18:13:31 2003

@<TRIPOS>MOLECULE
20-5k
   45    47     1     0     1
SMALL
USER_CHARGES
****
From 3DB ct
@<TRIPOS>ATOM
      1 C          12.401000    3.958000   12.987000 C.ar      1 <1>        -0.625800 
      2 C          11.084000    3.794000   13.583000 C.ar      1 <1>         0.767200 
      3 N          10.239000    2.837000   13.181000 N.ar      1 <1>        -0.713600 
      4 C          10.606000    1.928000   12.247000 C.ar      1 <1>         0.819000 
      5 N          11.907000    1.894000   11.784000 N.ar      1 <1>        -0.683400 
      6 C          12.788000    2.890000   12.211000 C.ar      1 <1>         0.460700 
      7 C          14.225000    2.674000   11.763000 C.3       1 <1>        -0.010600 
      8 H          14.441000    1.593000   11.764000 H         1 <1>         0.041100 
      9 H          14.350000    3.012000   10.719000 H         1 <1>         0.027000 
     10 C          15.171000    3.452000   12.686000 C.3       1 <1>        -0.142400 
     11 H          16.201000    3.398000   12.295000 H         1 <1>         0.031900 
     12 H          15.191000    3.005000   13.696000 H         1 <1>         0.056400 
     13 C          14.666000    4.912000   12.741000 C.3       1 <1>         0.135800 
     14 H          14.361000    5.112000   11.699000 H         1 <1>         0.027100 
     15 C          13.334000    5.067000   13.518000 C.3       1 <1>         0.046700 
     16 H          13.507000    4.886000   14.595000 H         1 <1>         0.043700 
     17 H          12.956000    5.927000   13.374000 H         1 <1>         0.011800 
     18 C          15.750000    5.908000   13.178000 C.3       1 <1>        -0.246000 
     19 H          15.567000    6.365000   14.165000 H         1 <1>         0.078200 
     20 H          16.785000    5.561000   13.314000 H         1 <1>         0.070200 
     21 C          15.640000    7.003000   12.083000 C.ar      1 <1>         0.046300 
     22 C          16.800000    7.457000   11.480000 C.ar      1 <1>        -0.280900 
     23 H          17.632000    7.043000   11.678000 H         1 <1>         0.171000 
     24 C          16.711000    8.519000   10.594000 C.ar      1 <1>         0.160500 
     25 C          15.485000    9.128000   10.332000 C.ar      1 <1>         0.194900 
     26 C          14.373000    8.659000   10.984000 C.ar      1 <1>        -0.215300 
     27 H          13.528000    9.067000   10.835000 H         1 <1>         0.146500 
     28 C          14.437000    7.605000   11.859000 C.ar      1 <1>        -0.108800 
     29 H          13.659000    7.293000   12.306000 H         1 <1>         0.113900 
     30 O          15.416000   10.113000    9.487000 O.3       1 <1>        -0.306300 
     31 C          16.580000   10.585000    8.820000 C.3       1 <1>         0.107600 
     32 H          17.449000   10.001000    9.124000 H         1 <1>         0.012700 
     33 H          16.441000   10.492000    7.743000 H         1 <1>         0.037700 
     34 H          16.742000   11.633000    9.073000 H         1 <1>         0.020300 
     35 O          17.778000    8.958000    9.997000 O.3       1 <1>        -0.258400 
     36 C          19.047000    8.363000   10.239000 C.3       1 <1>         0.030700 
     37 H          18.947000    7.540000   10.947000 H         1 <1>         0.026000 
     38 H          19.453000    7.985000    9.301000 H         1 <1>         0.059400 
     39 H          19.725000    9.111000   10.649000 H         1 <1>         0.042300 
     40 N           9.767000    1.060000   11.804000 N.pl3     1 <1>        -0.826200 
     41 H           8.922000    1.052000   12.114000 H         1 <1>         0.373800 
     42 H          10.025000    0.462000   11.183000 H         1 <1>         0.378100 
     43 N          10.602000    4.599000   14.569000 N.pl3     1 <1>        -0.814400 
     44 H          11.106000    5.274000   14.885000 H         1 <1>         0.352200 
     45 H           9.780000    4.455000   14.906000 H         1 <1>         0.341600 
@<TRIPOS>BOND
     1    1    2 ar   
     2    2    3 ar   
     3    3    4 ar   
     4    4    5 ar   
     5    5    6 ar   
     6    6    1 ar   
     7    6    7 1    
     8    7    8 1    
     9    7    9 1    
    10    7   10 1    
    11   10   11 1    
    12   10   12 1    
    13   10   13 1    
    14   13   14 1    
    15   13   15 1    
    16   15   16 1    
    17   15   17 1    
    18   15    1 1    
    19   13   18 1    
    20   18   19 1    
    21   18   20 1    
    22   18   21 1    
    23   21   22 ar   
    24   22   23 1    
    25   22   24 ar   
    26   24   25 ar   
    27   25   26 ar   
    28   26   27 1    
    29   26   28 ar   
    30   28   29 1    
    31   28   21 ar   
    32   25   30 1    
    33   30   31 1    
    34   31   32 1    
    35   31   33 1    
    36   31   34 1    
    37   24   35 1    
    38   35   36 1    
    39   36   37 1    
    40   36   38 1    
    41   36   39 1    
    42    4   40 1    
    43   40   41 1    
    44   40   42 1    
    45    2   43 1    
    46   43   44 1    
    47   43   45 1    
@<TRIPOS>SUBSTRUCTURE
     1 ****        1 TEMP              0 ****  ****    0 ROOT 
@<TRIPOS>SET
UNITY_3DHIT     STATIC     ATOMS    <user>   **** Atoms matching 3D or FLEX Search
0
