#	Name:			20-5d
#	Creating user name:	jeff
#	Creation time:		Thu Dec  4 18:13:30 2003

#	Modifying user name:	jeff
#	Modification time:	Thu Dec  4 18:13:30 2003

@<TRIPOS>MOLECULE
20-5d
   41    43     1     0     1
SMALL
USER_CHARGES
****
From 3DB ct
@<TRIPOS>ATOM
      1 C          12.401000    3.958000   12.987000 C.ar      1 <1>        -0.649300 
      2 C          11.084000    3.794000   13.583000 C.ar      1 <1>         0.766900 
      3 N          10.239000    2.837000   13.181000 N.ar      1 <1>        -0.714700 
      4 C          10.606000    1.928000   12.247000 C.ar      1 <1>         0.826800 
      5 N          11.907000    1.894000   11.784000 N.ar      1 <1>        -0.693300 
      6 C          12.788000    2.890000   12.211000 C.ar      1 <1>         0.473200 
      7 C          14.225000    2.674000   11.763000 C.3       1 <1>        -0.002400 
      8 H          14.441000    1.593000   11.764000 H         1 <1>         0.037900 
      9 H          14.350000    3.012000   10.719000 H         1 <1>         0.023500 
     10 C          15.171000    3.452000   12.686000 C.3       1 <1>        -0.188200 
     11 H          16.201000    3.398000   12.295000 H         1 <1>         0.056600 
     12 H          15.191000    3.005000   13.696000 H         1 <1>         0.061900 
     13 C          14.666000    4.912000   12.741000 C.3       1 <1>         0.188700 
     14 H          14.361000    5.112000   11.699000 H         1 <1>         0.004000 
     15 C          13.334000    5.067000   13.518000 C.3       1 <1>         0.105200 
     16 H          13.507000    4.886000   14.595000 H         1 <1>         0.027500 
     17 H          12.956000    5.927000   13.374000 H         1 <1>        -0.015800 
     18 C          15.750000    5.908000   13.178000 C.3       1 <1>        -0.237900 
     19 H          15.567000    6.365000   14.165000 H         1 <1>         0.055200 
     20 H          16.785000    5.561000   13.314000 H         1 <1>         0.074200 
     21 C          15.640000    7.003000   12.083000 C.ar      1 <1>        -0.052400 
     22 C          16.800000    7.457000   11.480000 C.ar      1 <1>         0.247500 
     23 O          17.922000    6.758000   11.870000 O.3       1 <1>        -0.260100 
     24 C          19.199000    7.084000   11.356000 C.3       1 <1>         0.017400 
     25 H          19.849000    6.502000   11.732000 H         1 <1>         0.060900 
     26 H          19.195000    6.985000   10.411000 H         1 <1>         0.043000 
     27 H          19.410000    7.982000   11.580000 H         1 <1>         0.039800 
     28 C          16.711000    8.519000   10.594000 C.ar      1 <1>        -0.235100 
     29 H          17.491000    8.840000   10.158000 H         1 <1>         0.119200 
     30 C          15.485000    9.128000   10.332000 C.ar      1 <1>        -0.066100 
     31 H          15.434000    9.848000    9.714000 H         1 <1>         0.111100 
     32 C          14.373000    8.659000   10.984000 C.ar      1 <1>        -0.176300 
     33 H          13.528000    9.067000   10.835000 H         1 <1>         0.116200 
     34 C          14.437000    7.605000   11.859000 C.ar      1 <1>        -0.077100 
     35 H          13.659000    7.293000   12.306000 H         1 <1>         0.114800 
     36 N           9.767000    1.060000   11.804000 N.pl3     1 <1>        -0.833600 
     37 H           8.922000    1.052000   12.114000 H         1 <1>         0.374300 
     38 H          10.025000    0.462000   11.183000 H         1 <1>         0.380500 
     39 N          10.602000    4.599000   14.569000 N.pl3     1 <1>        -0.817200 
     40 H          11.106000    5.274000   14.885000 H         1 <1>         0.352900 
     41 H           9.780000    4.455000   14.906000 H         1 <1>         0.340500 
@<TRIPOS>BOND
     1    1    2 ar   
     2    2    3 ar   
     3    3    4 ar   
     4    4    5 ar   
     5    5    6 ar   
     6    6    1 ar   
     7    6    7 1    
     8    7    8 1    
     9    7    9 1    
    10    7   10 1    
    11   10   11 1    
    12   10   12 1    
    13   10   13 1    
    14   13   14 1    
    15   13   15 1    
    16   15   16 1    
    17   15   17 1    
    18   15    1 1    
    19   13   18 1    
    20   18   19 1    
    21   18   20 1    
    22   18   21 1    
    23   21   22 ar   
    24   22   23 1    
    25   23   24 1    
    26   24   25 1    
    27   24   26 1    
    28   24   27 1    
    29   22   28 ar   
    30   28   29 1    
    31   28   30 ar   
    32   30   31 1    
    33   30   32 ar   
    34   32   33 1    
    35   32   34 ar   
    36   34   35 1    
    37   34   21 ar   
    38    4   36 1    
    39   36   37 1    
    40   36   38 1    
    41    2   39 1    
    42   39   40 1    
    43   39   41 1    
@<TRIPOS>SUBSTRUCTURE
     1 ****        1 TEMP              0 ****  ****    0 ROOT 
@<TRIPOS>SET
UNITY_3DHIT     STATIC     ATOMS    <user>   **** Atoms matching 3D or FLEX Search
0
