#	Name:			20-5g
#	Creating user name:	jeff
#	Creation time:		Thu Dec  4 18:13:31 2003

#	Modifying user name:	jeff
#	Modification time:	Thu Dec  4 18:13:31 2003

@<TRIPOS>MOLECULE
20-5g
   40    42     1     0     1
SMALL
USER_CHARGES
****
From 3DB ct
@<TRIPOS>ATOM
      1 C          12.401000    3.958000   12.987000 C.ar      1 <1>        -0.704600 
      2 C          11.084000    3.794000   13.583000 C.ar      1 <1>         0.809500 
      3 N          10.239000    2.837000   13.181000 N.ar      1 <1>        -0.727800 
      4 C          10.606000    1.928000   12.247000 C.ar      1 <1>         0.832700 
      5 N          11.907000    1.894000   11.784000 N.ar      1 <1>        -0.684100 
      6 C          12.788000    2.890000   12.211000 C.ar      1 <1>         0.498000 
      7 C          14.225000    2.674000   11.763000 C.3       1 <1>        -0.077900 
      8 H          14.441000    1.593000   11.764000 H         1 <1>         0.058100 
      9 H          14.350000    3.012000   10.719000 H         1 <1>         0.039500 
     10 C          15.171000    3.452000   12.686000 C.3       1 <1>        -0.126900 
     11 H          16.201000    3.398000   12.295000 H         1 <1>         0.033700 
     12 H          15.191000    3.005000   13.696000 H         1 <1>         0.051300 
     13 C          14.666000    4.912000   12.741000 C.3       1 <1>         0.267300 
     14 H          14.361000    5.112000   11.699000 H         1 <1>        -0.000800 
     15 C          13.334000    5.067000   13.518000 C.3       1 <1>         0.091300 
     16 H          13.507000    4.886000   14.595000 H         1 <1>         0.039400 
     17 H          12.956000    5.927000   13.374000 H         1 <1>        -0.007100 
     18 C          15.750000    5.908000   13.178000 C.3       1 <1>        -0.509300 
     19 H          15.567000    6.365000   14.165000 H         1 <1>         0.125300 
     20 H          16.785000    5.561000   13.314000 H         1 <1>         0.126300 
     21 C          15.640000    7.003000   12.083000 C.ar      1 <1>         0.194300 
     22 C          16.800000    7.457000   11.480000 C.ar      1 <1>        -0.110700 
     23 H          17.774000    6.968000   11.700000 H         1 <1>         0.141400 
     24 C          16.711000    8.519000   10.594000 C.ar      1 <1>        -0.323700 
     25 C          15.485000    9.128000   10.332000 C.ar      1 <1>        -0.010500 
     26 H          15.434000    9.848000    9.714000 H         1 <1>         0.112700 
     27 C          14.373000    8.659000   10.984000 C.ar      1 <1>        -0.139000 
     28 H          13.391000    9.141000   10.794000 H         1 <1>         0.121100 
     29 C          14.437000    7.605000   11.859000 C.ar      1 <1>        -0.097400 
     30 H          13.659000    7.293000   12.306000 H         1 <1>         0.108500 
     31 C          17.983000    9.021000    9.884000 C.3       1 <1>         1.060300 
     32 F          19.062000    8.890000   10.642000 F         1 <1>        -0.328500 
     33 F          18.236000    8.363000    8.761000 F         1 <1>        -0.327700 
     34 F          17.898000   10.301000    9.553000 F         1 <1>        -0.327000 
     35 N           9.767000    1.060000   11.804000 N.pl3     1 <1>        -0.836700 
     36 H           8.922000    1.052000   12.114000 H         1 <1>         0.380000 
     37 H          10.025000    0.462000   11.183000 H         1 <1>         0.379300 
     38 N          10.602000    4.599000   14.569000 N.pl3     1 <1>        -0.825700 
     39 H          11.106000    5.274000   14.885000 H         1 <1>         0.351900 
     40 H           9.780000    4.455000   14.906000 H         1 <1>         0.343600 
@<TRIPOS>BOND
     1    1    2 ar   
     2    2    3 ar   
     3    3    4 ar   
     4    4    5 ar   
     5    5    6 ar   
     6    6    1 ar   
     7    6    7 1    
     8    7    8 1    
     9    7    9 1    
    10    7   10 1    
    11   10   11 1    
    12   10   12 1    
    13   10   13 1    
    14   13   14 1    
    15   13   15 1    
    16   15   16 1    
    17   15   17 1    
    18   15    1 1    
    19   13   18 1    
    20   18   19 1    
    21   18   20 1    
    22   18   21 1    
    23   21   22 ar   
    24   22   23 1    
    25   22   24 ar   
    26   24   25 ar   
    27   25   26 1    
    28   25   27 ar   
    29   27   28 1    
    30   27   29 ar   
    31   29   30 1    
    32   29   21 ar   
    33   24   31 1    
    34   31   32 1    
    35   31   33 1    
    36   31   34 1    
    37    4   35 1    
    38   35   36 1    
    39   35   37 1    
    40    2   38 1    
    41   38   39 1    
    42   38   40 1    
@<TRIPOS>SUBSTRUCTURE
     1 ****        1 TEMP              0 ****  ****    0 ROOT 
@<TRIPOS>SET
UNITY_3DHIT     STATIC     ATOMS    <user>   **** Atoms matching 3D or FLEX Search
0
