#	Name:			20-5h
#	Creating user name:	jeff
#	Creation time:		Thu Dec  4 18:13:31 2003

#	Modifying user name:	jeff
#	Modification time:	Thu Dec  4 18:13:31 2003

@<TRIPOS>MOLECULE
20-5h
   41    43     1     0     1
SMALL
USER_CHARGES
****
From 3DB ct
@<TRIPOS>ATOM
      1 C          12.401000    3.958000   12.987000 C.ar      1 <1>        -0.624500 
      2 C          11.084000    3.794000   13.583000 C.ar      1 <1>         0.767600 
      3 N          10.239000    2.837000   13.181000 N.ar      1 <1>        -0.716200 
      4 C          10.606000    1.928000   12.247000 C.ar      1 <1>         0.826300 
      5 N          11.907000    1.894000   11.784000 N.ar      1 <1>        -0.682700 
      6 C          12.788000    2.890000   12.211000 C.ar      1 <1>         0.461500 
      7 C          14.225000    2.674000   11.763000 C.3       1 <1>        -0.022400 
      8 H          14.441000    1.593000   11.764000 H         1 <1>         0.046800 
      9 H          14.350000    3.012000   10.719000 H         1 <1>         0.031500 
     10 C          15.171000    3.452000   12.686000 C.3       1 <1>        -0.165400 
     11 H          16.201000    3.398000   12.295000 H         1 <1>         0.038400 
     12 H          15.191000    3.005000   13.696000 H         1 <1>         0.060800 
     13 C          14.666000    4.912000   12.741000 C.3       1 <1>         0.228700 
     14 H          14.361000    5.112000   11.699000 H         1 <1>         0.006900 
     15 C          13.334000    5.067000   13.518000 C.3       1 <1>         0.008600 
     16 H          13.507000    4.886000   14.595000 H         1 <1>         0.048500 
     17 H          12.956000    5.927000   13.374000 H         1 <1>         0.012700 
     18 C          15.750000    5.908000   13.178000 C.3       1 <1>        -0.325600 
     19 H          15.567000    6.365000   14.165000 H         1 <1>         0.083800 
     20 H          16.785000    5.561000   13.314000 H         1 <1>         0.086300 
     21 C          15.640000    7.003000   12.083000 C.ar      1 <1>         0.212600 
     22 C          16.800000    7.457000   11.480000 C.ar      1 <1>        -0.375300 
     23 H          17.632000    7.043000   11.678000 H         1 <1>         0.178800 
     24 C          16.711000    8.519000   10.594000 C.ar      1 <1>         0.310200 
     25 C          15.485000    9.128000   10.332000 C.ar      1 <1>        -0.219600 
     26 H          15.434000    9.848000    9.714000 H         1 <1>         0.153900 
     27 C          14.373000    8.659000   10.984000 C.ar      1 <1>        -0.057500 
     28 H          13.528000    9.067000   10.835000 H         1 <1>         0.117600 
     29 C          14.437000    7.605000   11.859000 C.ar      1 <1>        -0.203500 
     30 H          13.659000    7.293000   12.306000 H         1 <1>         0.124400 
     31 O          17.778000    8.958000    9.997000 O.3       1 <1>        -0.443400 
     32 C          19.107000    8.448000   10.101000 C.3       1 <1>         1.167400 
     33 F          19.162000    7.187000    9.716000 F         1 <1>        -0.319700 
     34 F          19.900000    9.155000    9.316000 F         1 <1>        -0.302400 
     35 F          19.558000    8.551000   11.338000 F         1 <1>        -0.320200 
     36 N           9.767000    1.060000   11.804000 N.pl3     1 <1>        -0.834100 
     37 H           8.922000    1.052000   12.114000 H         1 <1>         0.377000 
     38 H          10.025000    0.462000   11.183000 H         1 <1>         0.381100 
     39 N          10.602000    4.599000   14.569000 N.pl3     1 <1>        -0.809500 
     40 H          11.106000    5.274000   14.885000 H         1 <1>         0.350000 
     41 H           9.780000    4.455000   14.906000 H         1 <1>         0.340400 
@<TRIPOS>BOND
     1    1    2 ar   
     2    2    3 ar   
     3    3    4 ar   
     4    4    5 ar   
     5    5    6 ar   
     6    6    1 ar   
     7    6    7 1    
     8    7    8 1    
     9    7    9 1    
    10    7   10 1    
    11   10   11 1    
    12   10   12 1    
    13   10   13 1    
    14   13   14 1    
    15   13   15 1    
    16   15   16 1    
    17   15   17 1    
    18   15    1 1    
    19   13   18 1    
    20   18   19 1    
    21   18   20 1    
    22   18   21 1    
    23   21   22 ar   
    24   22   23 1    
    25   22   24 ar   
    26   24   25 ar   
    27   25   26 1    
    28   25   27 ar   
    29   27   28 1    
    30   27   29 ar   
    31   29   30 1    
    32   29   21 ar   
    33   24   31 1    
    34   31   32 1    
    35   32   33 1    
    36   32   34 1    
    37   32   35 1    
    38    4   36 1    
    39   36   37 1    
    40   36   38 1    
    41    2   39 1    
    42   39   40 1    
    43   39   41 1    
@<TRIPOS>SUBSTRUCTURE
     1 ****        1 TEMP              0 ****  ****    0 ROOT 
@<TRIPOS>SET
UNITY_3DHIT     STATIC     ATOMS    <user>   **** Atoms matching 3D or FLEX Search
0
