#	Name:			20-5j
#	Creating user name:	jeff
#	Creation time:		Thu Dec  4 18:13:31 2003

#	Modifying user name:	jeff
#	Modification time:	Thu Dec  4 18:13:31 2003

@<TRIPOS>MOLECULE
20-5j
   45    47     1     0     1
SMALL
USER_CHARGES
****
From 3DB ct
@<TRIPOS>ATOM
      1 C          12.401000    3.958000   12.987000 C.ar      1 <1>        -0.645100 
      2 C          11.084000    3.794000   13.583000 C.ar      1 <1>         0.768300 
      3 N          10.239000    2.837000   13.181000 N.ar      1 <1>        -0.718200 
      4 C          10.606000    1.928000   12.247000 C.ar      1 <1>         0.834600 
      5 N          11.907000    1.894000   11.784000 N.ar      1 <1>        -0.688700 
      6 C          12.788000    2.890000   12.211000 C.ar      1 <1>         0.456400 
      7 C          14.225000    2.674000   11.763000 C.3       1 <1>        -0.004600 
      8 H          14.441000    1.593000   11.764000 H         1 <1>         0.037600 
      9 H          14.350000    3.012000   10.719000 H         1 <1>         0.027000 
     10 C          15.171000    3.452000   12.686000 C.3       1 <1>        -0.133800 
     11 H          16.201000    3.398000   12.295000 H         1 <1>         0.029300 
     12 H          15.191000    3.005000   13.696000 H         1 <1>         0.055900 
     13 C          14.666000    4.912000   12.741000 C.3       1 <1>         0.073100 
     14 H          14.361000    5.112000   11.699000 H         1 <1>         0.025800 
     15 C          13.334000    5.067000   13.518000 C.3       1 <1>         0.138500 
     16 H          13.507000    4.886000   14.595000 H         1 <1>         0.014200 
     17 H          12.956000    5.927000   13.374000 H         1 <1>        -0.014600 
     18 C          15.750000    5.908000   13.178000 C.3       1 <1>        -0.056300 
     19 H          15.567000    6.365000   14.165000 H         1 <1>         0.029100 
     20 H          16.785000    5.561000   13.314000 H         1 <1>         0.016200 
     21 C          15.640000    7.003000   12.083000 C.ar      1 <1>         0.006600 
     22 C          16.800000    7.457000   11.480000 C.ar      1 <1>         0.136300 
     23 O          17.922000    6.758000   11.870000 O.3       1 <1>        -0.198800 
     24 C          19.199000    7.084000   11.356000 C.3       1 <1>        -0.024100 
     25 H          19.849000    6.502000   11.732000 H         1 <1>         0.068100 
     26 H          19.195000    6.985000   10.411000 H         1 <1>         0.049100 
     27 H          19.410000    7.982000   11.580000 H         1 <1>         0.047300 
     28 C          16.711000    8.519000   10.594000 C.ar      1 <1>        -0.178400 
     29 H          17.491000    8.840000   10.158000 H         1 <1>         0.127200 
     30 C          15.485000    9.128000   10.332000 C.ar      1 <1>        -0.237100 
     31 H          15.434000    9.848000    9.714000 H         1 <1>         0.132400 
     32 C          14.373000    8.659000   10.984000 C.ar      1 <1>         0.322500 
     33 O          13.034000    9.120000   10.868000 O.3       1 <1>        -0.312300 
     34 C          13.021000   10.003000    9.734000 C.3       1 <1>         0.071300 
     35 H          12.143000   10.343000    9.607000 H         1 <1>         0.054600 
     36 H          13.621000   10.723000    9.886000 H         1 <1>         0.024300 
     37 H          13.290000    9.525000    8.958000 H         1 <1>         0.023300 
     38 C          14.437000    7.605000   11.859000 C.ar      1 <1>        -0.309600 
     39 H          13.659000    7.293000   12.306000 H         1 <1>         0.161100 
     40 N           9.767000    1.060000   11.804000 N.pl3     1 <1>        -0.842500 
     41 H           8.922000    1.052000   12.114000 H         1 <1>         0.377200 
     42 H          10.025000    0.462000   11.183000 H         1 <1>         0.382200 
     43 N          10.602000    4.599000   14.569000 N.pl3     1 <1>        -0.817400 
     44 H          11.106000    5.274000   14.885000 H         1 <1>         0.350300 
     45 H           9.780000    4.455000   14.906000 H         1 <1>         0.341700 
@<TRIPOS>BOND
     1    1    2 ar   
     2    2    3 ar   
     3    3    4 ar   
     4    4    5 ar   
     5    5    6 ar   
     6    6    1 ar   
     7    6    7 1    
     8    7    8 1    
     9    7    9 1    
    10    7   10 1    
    11   10   11 1    
    12   10   12 1    
    13   10   13 1    
    14   13   14 1    
    15   13   15 1    
    16   15   16 1    
    17   15   17 1    
    18   15    1 1    
    19   13   18 1    
    20   18   19 1    
    21   18   20 1    
    22   18   21 1    
    23   21   22 ar   
    24   22   23 1    
    25   23   24 1    
    26   24   25 1    
    27   24   26 1    
    28   24   27 1    
    29   22   28 ar   
    30   28   29 1    
    31   28   30 ar   
    32   30   31 1    
    33   30   32 ar   
    34   32   33 1    
    35   33   34 1    
    36   34   35 1    
    37   34   36 1    
    38   34   37 1    
    39   32   38 ar   
    40   38   39 1    
    41   38   21 ar   
    42    4   40 1    
    43   40   41 1    
    44   40   42 1    
    45    2   43 1    
    46   43   44 1    
    47   43   45 1    
@<TRIPOS>SUBSTRUCTURE
     1 ****        1 TEMP              0 ****  ****    0 ROOT 
@<TRIPOS>SET
UNITY_3DHIT     STATIC     ATOMS    <user>   **** Atoms matching 3D or FLEX Search
0
