#	Name:			20-5a
#	Creating user name:	jeff
#	Creation time:		Thu Dec  4 18:13:30 2003

#	Modifying user name:	jeff
#	Modification time:	Thu Dec  4 18:13:30 2003

@<TRIPOS>MOLECULE
20-5a
   37    39     1     0     1
SMALL
USER_CHARGES
****
From 3DB ct
@<TRIPOS>ATOM
      1 C          12.401000    3.958000   12.987000 C.ar      1 <1>        -0.592300 
      2 C          11.084000    3.794000   13.583000 C.ar      1 <1>         0.759700 
      3 N          10.239000    2.837000   13.181000 N.ar      1 <1>        -0.710900 
      4 C          10.606000    1.928000   12.247000 C.ar      1 <1>         0.807200 
      5 N          11.907000    1.894000   11.784000 N.ar      1 <1>        -0.670400 
      6 C          12.788000    2.890000   12.211000 C.ar      1 <1>         0.446000 
      7 C          14.225000    2.674000   11.763000 C.3       1 <1>        -0.042600 
      8 H          14.441000    1.593000   11.764000 H         1 <1>         0.050300 
      9 H          14.350000    3.012000   10.719000 H         1 <1>         0.028900 
     10 C          15.171000    3.452000   12.686000 C.3       1 <1>        -0.122600 
     11 H          16.201000    3.398000   12.295000 H         1 <1>         0.026300 
     12 H          15.191000    3.005000   13.696000 H         1 <1>         0.055600 
     13 C          14.666000    4.912000   12.741000 C.3       1 <1>         0.247100 
     14 H          14.361000    5.112000   11.699000 H         1 <1>         0.012100 
     15 C          13.334000    5.067000   13.518000 C.3       1 <1>        -0.031500 
     16 H          13.507000    4.886000   14.595000 H         1 <1>         0.058200 
     17 H          12.956000    5.927000   13.374000 H         1 <1>         0.023500 
     18 C          15.750000    5.908000   13.178000 C.3       1 <1>        -0.504200 
     19 H          15.567000    6.365000   14.165000 H         1 <1>         0.131800 
     20 H          16.785000    5.561000   13.314000 H         1 <1>         0.122900 
     21 C          15.640000    7.003000   12.083000 C.ar      1 <1>         0.225000 
     22 C          16.800000    7.457000   11.480000 C.ar      1 <1>        -0.221900 
     23 H          17.632000    7.043000   11.678000 H         1 <1>         0.136000 
     24 C          16.711000    8.519000   10.594000 C.ar      1 <1>        -0.073900 
     25 H          17.491000    8.840000   10.158000 H         1 <1>         0.103000 
     26 C          15.485000    9.128000   10.332000 C.ar      1 <1>        -0.128700 
     27 H          15.434000    9.848000    9.714000 H         1 <1>         0.104800 
     28 C          14.373000    8.659000   10.984000 C.ar      1 <1>        -0.083200 
     29 H          13.528000    9.067000   10.835000 H         1 <1>         0.103400 
     30 C          14.437000    7.605000   11.859000 C.ar      1 <1>        -0.191500 
     31 H          13.659000    7.293000   12.306000 H         1 <1>         0.119900 
     32 N           9.767000    1.060000   11.804000 N.pl3     1 <1>        -0.820700 
     33 H           8.922000    1.052000   12.114000 H         1 <1>         0.371500 
     34 H          10.025000    0.462000   11.183000 H         1 <1>         0.376300 
     35 N          10.602000    4.599000   14.569000 N.pl3     1 <1>        -0.807900 
     36 H          11.106000    5.274000   14.885000 H         1 <1>         0.352900 
     37 H           9.780000    4.455000   14.906000 H         1 <1>         0.340100 
@<TRIPOS>BOND
     1    1    2 ar   
     2    2    3 ar   
     3    3    4 ar   
     4    4    5 ar   
     5    5    6 ar   
     6    6    1 ar   
     7    6    7 1    
     8    7    8 1    
     9    7    9 1    
    10    7   10 1    
    11   10   11 1    
    12   10   12 1    
    13   10   13 1    
    14   13   14 1    
    15   13   15 1    
    16   15   16 1    
    17   15   17 1    
    18   15    1 1    
    19   13   18 1    
    20   18   19 1    
    21   18   20 1    
    22   18   21 1    
    23   21   22 ar   
    24   22   23 1    
    25   22   24 ar   
    26   24   25 1    
    27   24   26 ar   
    28   26   27 1    
    29   26   28 ar   
    30   28   29 1    
    31   28   30 ar   
    32   30   31 1    
    33   30   21 ar   
    34    4   32 1    
    35   32   33 1    
    36   32   34 1    
    37    2   35 1    
    38   35   36 1    
    39   35   37 1    
@<TRIPOS>SUBSTRUCTURE
     1 ****        1 TEMP              0 ****  ****    0 ROOT 
@<TRIPOS>SET
UNITY_3DHIT     STATIC     ATOMS    <user>   **** Atoms matching 3D or FLEX Search
0
