#	Name:			20-9a
#	Creating user name:	jeff
#	Creation time:		Thu Dec  4 18:13:31 2003

#	Modifying user name:	jeff
#	Modification time:	Thu Dec  4 18:13:31 2003

@<TRIPOS>MOLECULE
20-9a
   30    31     1     0     1
SMALL
USER_CHARGES
****
From 3DB ct
@<TRIPOS>ATOM
      1 C          12.200000    3.860000   13.273000 C.ar      1 <1>        -0.501500 
      2 C          10.845000    3.466000   13.630000 C.ar      1 <1>         0.681300 
      3 N          10.144000    2.594000   12.896000 N.ar      1 <1>        -0.681800 
      4 C          10.698000    1.979000   11.824000 C.ar      1 <1>         0.783700 
      5 N          12.040000    2.147000   11.544000 N.ar      1 <1>        -0.657200 
      6 C          12.771000    3.054000   12.316000 C.ar      1 <1>         0.423200 
      7 C          14.262000    3.050000   12.022000 C.3       1 <1>        -0.050200 
      8 H          14.577000    2.021000   11.785000 H         1 <1>         0.047500 
      9 H          14.471000    3.652000   11.120000 H         1 <1>         0.041400 
     10 C          15.021000    3.623000   13.226000 C.3       1 <1>        -0.141200 
     11 H          16.090000    3.736000   12.974000 H         1 <1>         0.038500 
     12 H          14.970000    2.934000   14.088000 H         1 <1>         0.058000 
     13 C          14.378000    4.985000   13.572000 C.3       1 <1>         0.146900 
     14 H          14.205000    5.492000   12.597000 H         1 <1>         0.026400 
     15 C          12.959000    4.853000   14.179000 C.3       1 <1>        -0.069900 
     16 H          13.026000    4.413000   15.192000 H         1 <1>         0.036600 
     17 H          12.520000    5.695000   14.203000 H         1 <1>         0.031100 
     18 C          15.364000    5.904000   14.300000 C.3       1 <1>        -0.078500 
     19 H          14.867000    6.766000   14.778000 H         1 <1>         0.020600 
     20 H          15.853000    5.358000   15.123000 H         1 <1>         0.023700 
     21 C          16.464000    6.479000   13.387000 C.3       1 <1>        -0.081100 
     22 H          17.091000    5.691000   12.942000 H         1 <1>         0.019500 
     23 H          16.027000    7.067000   12.563000 H         1 <1>         0.017100 
     24 H          17.131000    7.148000   13.955000 H         1 <1>         0.025800 
     25 N          10.000000    1.203000   11.073000 N.pl3     1 <1>        -0.809500 
     26 H           9.131000    1.063000   11.257000 H         1 <1>         0.369200 
     27 H          10.381000    0.801000   10.364000 H         1 <1>         0.373400 
     28 N          10.182000    3.960000   14.711000 N.pl3     1 <1>        -0.756100 
     29 H          10.582000    4.562000   15.248000 H         1 <1>         0.337000 
     30 H           9.344000    3.684000   14.890000 H         1 <1>         0.326100 
@<TRIPOS>BOND
     1    1    2 ar   
     2    2    3 ar   
     3    3    4 ar   
     4    4    5 ar   
     5    5    6 ar   
     6    6    1 ar   
     7    6    7 1    
     8    7    8 1    
     9    7    9 1    
    10    7   10 1    
    11   10   11 1    
    12   10   12 1    
    13   10   13 1    
    14   13   14 1    
    15   13   15 1    
    16   15   16 1    
    17   15   17 1    
    18   15    1 1    
    19   13   18 1    
    20   18   19 1    
    21   18   20 1    
    22   18   21 1    
    23   21   22 1    
    24   21   23 1    
    25   21   24 1    
    26    4   25 1    
    27   25   26 1    
    28   25   27 1    
    29    2   28 1    
    30   28   29 1    
    31   28   30 1    
@<TRIPOS>SUBSTRUCTURE
     1 ****        1 TEMP              0 ****  ****    0 ROOT 
@<TRIPOS>SET
UNITY_3DHIT     STATIC     ATOMS    <user>   **** Atoms matching 3D or FLEX Search
0
