#	Name:			20-9b
#	Creating user name:	jeff
#	Creation time:		Thu Dec  4 18:13:31 2003

#	Modifying user name:	jeff
#	Modification time:	Thu Dec  4 18:13:31 2003

@<TRIPOS>MOLECULE
20-9b
   36    37     1     0     1
SMALL
USER_CHARGES
****
From 3DB ct
@<TRIPOS>ATOM
      1 C          12.200000    3.860000   13.273000 C.ar      1 <1>        -0.732900 
      2 C          10.845000    3.466000   13.630000 C.ar      1 <1>         0.769300 
      3 N          10.144000    2.594000   12.896000 N.ar      1 <1>        -0.719200 
      4 C          10.698000    1.979000   11.824000 C.ar      1 <1>         0.840100 
      5 N          12.040000    2.147000   11.544000 N.ar      1 <1>        -0.693000 
      6 C          12.771000    3.054000   12.316000 C.ar      1 <1>         0.526700 
      7 C          14.262000    3.050000   12.022000 C.3       1 <1>        -0.132300 
      8 H          14.577000    2.021000   11.785000 H         1 <1>         0.064800 
      9 H          14.471000    3.652000   11.120000 H         1 <1>         0.060900 
     10 C          15.021000    3.623000   13.226000 C.3       1 <1>        -0.100300 
     11 H          16.090000    3.736000   12.974000 H         1 <1>         0.035600 
     12 H          14.970000    2.934000   14.088000 H         1 <1>         0.041600 
     13 C          14.378000    4.985000   13.572000 C.3       1 <1>         0.042300 
     14 H          14.205000    5.492000   12.597000 H         1 <1>         0.014900 
     15 C          12.959000    4.853000   14.179000 C.3       1 <1>         0.265800 
     16 H          13.026000    4.413000   15.192000 H         1 <1>        -0.017200 
     17 H          12.520000    5.695000   14.203000 H         1 <1>        -0.026200 
     18 C          15.364000    5.904000   14.300000 C.3       1 <1>         0.181900 
     19 C          16.586000    6.264000   13.414000 C.3       1 <1>        -0.289000 
     20 H          17.252000    5.412000   13.210000 H         1 <1>         0.070200 
     21 H          16.274000    6.682000   12.443000 H         1 <1>         0.062800 
     22 H          17.209000    7.027000   13.913000 H         1 <1>         0.074100 
     23 C          14.695000    7.260000   14.646000 C.3       1 <1>        -0.178600 
     24 H          15.423000    7.950000   15.108000 H         1 <1>         0.052400 
     25 H          14.297000    7.758000   13.746000 H         1 <1>         0.036700 
     26 H          13.864000    7.152000   15.361000 H         1 <1>         0.021500 
     27 C          15.875000    5.294000   15.625000 C.3       1 <1>        -0.223700 
     28 H          16.551000    5.997000   16.141000 H         1 <1>         0.061500 
     29 H          15.048000    5.066000   16.318000 H         1 <1>         0.043800 
     30 H          16.439000    4.360000   15.468000 H         1 <1>         0.045600 
     31 N          10.000000    1.203000   11.073000 N.pl3     1 <1>        -0.847000 
     32 H           9.131000    1.063000   11.257000 H         1 <1>         0.379700 
     33 H          10.381000    0.801000   10.364000 H         1 <1>         0.383600 
     34 N          10.182000    3.960000   14.711000 N.pl3     1 <1>        -0.781900 
     35 H          10.582000    4.562000   15.248000 H         1 <1>         0.332100 
     36 H           9.344000    3.684000   14.890000 H         1 <1>         0.333500 
@<TRIPOS>BOND
     1    1    2 ar   
     2    2    3 ar   
     3    3    4 ar   
     4    4    5 ar   
     5    5    6 ar   
     6    6    1 ar   
     7    6    7 1    
     8    7    8 1    
     9    7    9 1    
    10    7   10 1    
    11   10   11 1    
    12   10   12 1    
    13   10   13 1    
    14   13   14 1    
    15   13   15 1    
    16   15   16 1    
    17   15   17 1    
    18   15    1 1    
    19   13   18 1    
    20   18   19 1    
    21   19   20 1    
    22   19   21 1    
    23   19   22 1    
    24   18   23 1    
    25   23   24 1    
    26   23   25 1    
    27   23   26 1    
    28   18   27 1    
    29   27   28 1    
    30   27   29 1    
    31   27   30 1    
    32    4   31 1    
    33   31   32 1    
    34   31   33 1    
    35    2   34 1    
    36   34   35 1    
    37   34   36 1    
@<TRIPOS>SUBSTRUCTURE
     1 ****        1 TEMP              0 ****  ****    0 ROOT 
@<TRIPOS>SET
UNITY_3DHIT     STATIC     ATOMS    <user>   **** Atoms matching 3D or FLEX Search
0
