#	Name:			20-9c
#	Creating user name:	jeff
#	Creation time:		Thu Dec  4 18:13:31 2003

#	Modifying user name:	jeff
#	Modification time:	Thu Dec  4 18:13:31 2003

@<TRIPOS>MOLECULE
20-9c
   34    36     1     0     1
SMALL
USER_CHARGES
****
From 3DB ct
@<TRIPOS>ATOM
      1 C          12.200000    3.860000   13.273000 C.ar      1 <1>        -0.539100 
      2 C          10.845000    3.466000   13.630000 C.ar      1 <1>         0.678000 
      3 N          10.144000    2.594000   12.896000 N.ar      1 <1>        -0.685700 
      4 C          10.698000    1.979000   11.824000 C.ar      1 <1>         0.802400 
      5 N          12.040000    2.147000   11.544000 N.ar      1 <1>        -0.671600 
      6 C          12.771000    3.054000   12.316000 C.ar      1 <1>         0.439500 
      7 C          14.262000    3.050000   12.022000 C.3       1 <1>        -0.028800 
      8 H          14.577000    2.021000   11.785000 H         1 <1>         0.042400 
      9 H          14.471000    3.652000   11.120000 H         1 <1>         0.041100 
     10 C          15.021000    3.623000   13.226000 C.3       1 <1>        -0.137200 
     11 H          16.090000    3.736000   12.974000 H         1 <1>         0.044700 
     12 H          14.970000    2.934000   14.088000 H         1 <1>         0.060200 
     13 C          14.378000    4.985000   13.572000 C.3       1 <1>        -0.032500 
     14 H          14.205000    5.492000   12.597000 H         1 <1>         0.068600 
     15 C          12.959000    4.853000   14.179000 C.3       1 <1>         0.077400 
     16 H          13.026000    4.413000   15.192000 H         1 <1>         0.022900 
     17 H          12.520000    5.695000   14.203000 H         1 <1>         0.006800 
     18 C          15.285000    5.873000   14.422000 C.ar      1 <1>         0.058000 
     19 C          15.709000    7.138000   13.984000 C.ar      1 <1>        -0.148800 
     20 H          15.386000    7.516000   12.993000 H         1 <1>         0.102500 
     21 C          16.540000    7.937000   14.779000 C.ar      1 <1>        -0.076200 
     22 H          16.863000    8.930000   14.411000 H         1 <1>         0.098400 
     23 C          16.965000    7.487000   16.035000 C.ar      1 <1>        -0.128400 
     24 H          17.622000    8.118000   16.664000 H         1 <1>         0.103700 
     25 C          16.547000    6.228000   16.483000 C.ar      1 <1>        -0.058100 
     26 H          16.874000    5.856000   17.473000 H         1 <1>         0.093200 
     27 C          15.717000    5.433000   15.685000 C.ar      1 <1>        -0.195900 
     28 H          15.401000    4.439000   16.061000 H         1 <1>         0.127000 
     29 N          10.000000    1.203000   11.073000 N.pl3     1 <1>        -0.820700 
     30 H           9.131000    1.063000   11.257000 H         1 <1>         0.371300 
     31 H          10.381000    0.801000   10.364000 H         1 <1>         0.377400 
     32 N          10.182000    3.960000   14.711000 N.pl3     1 <1>        -0.750400 
     33 H          10.582000    4.562000   15.248000 H         1 <1>         0.330900 
     34 H           9.344000    3.684000   14.890000 H         1 <1>         0.327000 
@<TRIPOS>BOND
     1    1    2 ar   
     2    2    3 ar   
     3    3    4 ar   
     4    4    5 ar   
     5    5    6 ar   
     6    6    1 ar   
     7    6    7 1    
     8    7    8 1    
     9    7    9 1    
    10    7   10 1    
    11   10   11 1    
    12   10   12 1    
    13   10   13 1    
    14   13   14 1    
    15   13   15 1    
    16   15   16 1    
    17   15   17 1    
    18   15    1 1    
    19   13   18 1    
    20   18   19 ar   
    21   19   20 1    
    22   19   21 ar   
    23   21   22 1    
    24   21   23 ar   
    25   23   24 1    
    26   23   25 ar   
    27   25   26 1    
    28   25   27 ar   
    29   27   28 1    
    30   27   18 ar   
    31    4   29 1    
    32   29   30 1    
    33   29   31 1    
    34    2   32 1    
    35   32   33 1    
    36   32   34 1    
@<TRIPOS>SUBSTRUCTURE
     1 ****        1 TEMP              0 ****  ****    0 ROOT 
@<TRIPOS>SET
UNITY_3DHIT     STATIC     ATOMS    <user>   **** Atoms matching 3D or FLEX Search
0
