#	Name:			21-10
#	Creating user name:	jeff
#	Creation time:		Thu Dec  4 18:13:31 2003

#	Modifying user name:	jeff
#	Modification time:	Thu Dec  4 18:13:31 2003

@<TRIPOS>MOLECULE
21-10
   38    40     1     0     1
SMALL
USER_CHARGES
****
From 3DB ct
@<TRIPOS>ATOM
      1 N          10.156000    2.637000   12.908000 N.ar      1 <1>        -0.663600 
      2 C          10.722000    1.964000   11.908000 C.ar      1 <1>         0.791400 
      3 N          11.989000    2.116000   11.524000 N.ar      1 <1>        -0.634500 
      4 C          12.736000    3.011000   12.194000 C.ar      1 <1>         0.247100 
      5 C          12.268000    3.781000   13.261000 C.ar      1 <1>        -0.117100 
      6 C          10.931000    3.519000   13.573000 C.ar      1 <1>         0.628700 
      7 N          10.287000    4.232000   14.578000 N.pl3     1 <1>        -0.759800 
      8 H          10.858000    4.569000   15.348000 H         1 <1>         0.358800 
      9 H           9.331000    3.969000   14.788000 H         1 <1>         0.356400 
     10 N          13.044000    4.687000   13.933000 N.ar      1 <1>        -0.379800 
     11 C          14.336000    4.846000   13.548000 C.ar      1 <1>         0.315500 
     12 C          14.870000    4.124000   12.491000 C.ar      1 <1>        -0.254300 
     13 H          15.902000    4.269000   12.181000 H         1 <1>         0.141600 
     14 C          14.058000    3.206000   11.825000 C.ar      1 <1>        -0.059900 
     15 H          14.473000    2.635000   10.996000 H         1 <1>         0.122400 
     16 C          15.186000    5.871000   14.280000 C.3       1 <1>        -0.052700 
     17 H          15.613000    5.397000   15.172000 H         1 <1>         0.072800 
     18 H          14.541000    6.693000   14.612000 H         1 <1>         0.075500 
     19 N          16.240000    6.387000   13.413000 N.pl3     1 <1>        -0.463200 
     20 H          17.179000    6.030000   13.582000 H         1 <1>         0.293300 
     21 C          16.018000    7.156000   12.290000 C.ar      1 <1>         0.183200 
     22 C          14.745000    7.700000   12.081000 C.ar      1 <1>        -0.070300 
     23 H          13.951000    7.529000   12.806000 H         1 <1>         0.112900 
     24 C          14.458000    8.470000   10.947000 C.ar      1 <1>        -0.279900 
     25 H          13.457000    8.879000   10.821000 H         1 <1>         0.151100 
     26 C          15.439000    8.710000    9.987000 C.ar      1 <1>         0.272700 
     27 C          16.708000    8.169000   10.174000 C.ar      1 <1>        -0.153400 
     28 H          17.511000    8.321000    9.457000 H         1 <1>         0.116600 
     29 C          16.988000    7.398000   11.313000 C.ar      1 <1>        -0.269400 
     30 H          17.994000    6.995000   11.413000 H         1 <1>         0.130200 
     31 O          15.037000    9.475000    8.928000 O.3       1 <1>        -0.300600 
     32 C          16.014000    9.744000    7.923000 C.3       1 <1>         0.040200 
     33 H          15.540000   10.363000    7.155000 H         1 <1>         0.061300 
     34 H          16.352000    8.818000    7.445000 H         1 <1>         0.027800 
     35 H          16.857000   10.309000    8.335000 H         1 <1>         0.027200 
     36 N           9.960000    1.063000   11.233000 N.pl3     1 <1>        -0.818400 
     37 H          10.361000    0.539000   10.470000 H         1 <1>         0.377500 
     38 H           8.996000    0.924000   11.498000 H         1 <1>         0.372800 
@<TRIPOS>BOND
     1    1    2 ar   
     2    2    3 ar   
     3    3    4 ar   
     4    4    5 ar   
     5    5    6 ar   
     6    6    1 ar   
     7    6    7 1    
     8    7    8 1    
     9    7    9 1    
    10    5   10 ar   
    11   10   11 ar   
    12   11   12 ar   
    13   12   13 1    
    14   12   14 ar   
    15   14   15 1    
    16   14    4 ar   
    17   11   16 1    
    18   16   17 1    
    19   16   18 1    
    20   16   19 1    
    21   19   20 1    
    22   19   21 1    
    23   21   22 ar   
    24   22   23 1    
    25   22   24 ar   
    26   24   25 1    
    27   24   26 ar   
    28   26   27 ar   
    29   27   28 1    
    30   27   29 ar   
    31   29   30 1    
    32   29   21 ar   
    33   26   31 1    
    34   31   32 1    
    35   32   33 1    
    36   32   34 1    
    37   32   35 1    
    38    2   36 1    
    39   36   37 1    
    40   36   38 1    
@<TRIPOS>SUBSTRUCTURE
     1 ****        1 TEMP              0 ****  ****    0 ROOT 
@<TRIPOS>SET
UNITY_3DHIT     STATIC     ATOMS    <user>   **** Atoms matching 3D or FLEX Search
0
