#	Name:			21-11
#	Creating user name:	jeff
#	Creation time:		Thu Dec  4 18:13:31 2003

#	Modifying user name:	jeff
#	Modification time:	Thu Dec  4 18:13:32 2003

@<TRIPOS>MOLECULE
21-11
   41    43     1     0     1
SMALL
USER_CHARGES
****
From 3DB ct
@<TRIPOS>ATOM
      1 N          10.156000    2.648000   12.921000 N.ar      1 <1>        -0.670300 
      2 C          10.708000    1.967000   11.918000 C.ar      1 <1>         0.798000 
      3 N          11.973000    2.105000   11.524000 N.ar      1 <1>        -0.638700 
      4 C          12.735000    2.994000   12.187000 C.ar      1 <1>         0.256300 
      5 C          12.283000    3.770000   13.255000 C.ar      1 <1>        -0.145100 
      6 C          10.946000    3.523000   13.578000 C.ar      1 <1>         0.645900 
      7 N          10.318000    4.247000   14.586000 N.pl3     1 <1>        -0.765600 
      8 H          10.901000    4.585000   15.347000 H         1 <1>         0.360000 
      9 H           9.361000    3.995000   14.806000 H         1 <1>         0.357700 
     10 N          13.074000    4.669000   13.918000 N.ar      1 <1>        -0.369500 
     11 C          14.366000    4.818000   13.522000 C.ar      1 <1>         0.359900 
     12 C          14.884000    4.085000   12.464000 C.ar      1 <1>        -0.289400 
     13 H          15.916000    4.207000   12.146000 H         1 <1>         0.154700 
     14 C          14.056000    3.175000   11.807000 C.ar      1 <1>        -0.053800 
     15 H          14.459000    2.596000   10.978000 H         1 <1>         0.121400 
     16 C          15.241000    5.825000   14.262000 C.3       1 <1>        -0.187400 
     17 H          15.678000    5.263000   15.097000 H         1 <1>         0.104200 
     18 H          14.627000    6.624000   14.695000 H         1 <1>         0.089800 
     19 N          16.296000    6.434000   13.422000 N.pl3     1 <1>        -0.151400 
     20 C          15.980000    7.188000   12.299000 C.ar      1 <1>         0.075600 
     21 C          16.918000    7.462000   11.293000 C.ar      1 <1>        -0.189800 
     22 H          17.945000    7.111000   11.370000 H         1 <1>         0.119300 
     23 C          16.591000    8.226000   10.162000 C.ar      1 <1>        -0.196400 
     24 H          17.357000    8.416000    9.411000 H         1 <1>         0.119400 
     25 C          15.310000    8.744000    9.998000 C.ar      1 <1>         0.299700 
     26 C          14.359000    8.490000   10.980000 C.ar      1 <1>        -0.274900 
     27 H          13.341000    8.864000   10.908000 H         1 <1>         0.149900 
     28 C          14.696000    7.725000   12.109000 C.ar      1 <1>        -0.072900 
     29 H          13.906000    7.543000   12.837000 H         1 <1>         0.108000 
     30 O          15.119000    9.469000    8.856000 O.3       1 <1>        -0.312000 
     31 C          16.250000    9.627000    8.001000 C.3       1 <1>         0.052900 
     32 H          15.935000   10.225000    7.140000 H         1 <1>         0.059100 
     33 H          16.597000    8.658000    7.626000 H         1 <1>         0.026400 
     34 H          17.054000   10.169000    8.508000 H         1 <1>         0.025300 
     35 C          17.696000    6.124000   13.720000 C.3       1 <1>        -0.024800 
     36 H          18.168000    6.959000   14.249000 H         1 <1>         0.038000 
     37 H          18.262000    5.913000   12.805000 H         1 <1>         0.037100 
     38 H          17.789000    5.229000   14.343000 H         1 <1>         0.053500 
     39 N           9.930000    1.075000   11.249000 N.pl3     1 <1>        -0.822300 
     40 H          10.319000    0.548000   10.481000 H         1 <1>         0.378200 
     41 H           8.966000    0.951000   11.519000 H         1 <1>         0.374000 
@<TRIPOS>BOND
     1    1    2 ar   
     2    2    3 ar   
     3    3    4 ar   
     4    4    5 ar   
     5    5    6 ar   
     6    6    1 ar   
     7    6    7 1    
     8    7    8 1    
     9    7    9 1    
    10    5   10 ar   
    11   10   11 ar   
    12   11   12 ar   
    13   12   13 1    
    14   12   14 ar   
    15   14   15 1    
    16   14    4 ar   
    17   11   16 1    
    18   16   17 1    
    19   16   18 1    
    20   16   19 1    
    21   19   20 1    
    22   20   21 ar   
    23   21   22 1    
    24   21   23 ar   
    25   23   24 1    
    26   23   25 ar   
    27   25   26 ar   
    28   26   27 1    
    29   26   28 ar   
    30   28   29 1    
    31   28   20 ar   
    32   25   30 1    
    33   30   31 1    
    34   31   32 1    
    35   31   33 1    
    36   31   34 1    
    37   19   35 1    
    38   35   36 1    
    39   35   37 1    
    40   35   38 1    
    41    2   39 1    
    42   39   40 1    
    43   39   41 1    
@<TRIPOS>SUBSTRUCTURE
     1 ****        1 TEMP              0 ****  ****    0 ROOT 
@<TRIPOS>SET
UNITY_3DHIT     STATIC     ATOMS    <user>   **** Atoms matching 3D or FLEX Search
0
