#	Name:			21-19
#	Creating user name:	jeff
#	Creation time:		Thu Dec  4 18:13:32 2003

#	Modifying user name:	jeff
#	Modification time:	Thu Dec  4 18:13:32 2003

@<TRIPOS>MOLECULE
21-19
   42    44     1     0     1
SMALL
USER_CHARGES
****
From 3DB ct
@<TRIPOS>ATOM
      1 N          10.158000    2.640000   12.911000 N.ar      1 <1>        -0.666900 
      2 C          10.722000    1.964000   11.912000 C.ar      1 <1>         0.796400 
      3 N          11.987000    2.115000   11.524000 N.ar      1 <1>        -0.636600 
      4 C          12.737000    3.011000   12.190000 C.ar      1 <1>         0.252900 
      5 C          12.271000    3.783000   13.257000 C.ar      1 <1>        -0.130400 
      6 C          10.935000    3.522000   13.573000 C.ar      1 <1>         0.635700 
      7 N          10.295000    4.237000   14.579000 N.pl3     1 <1>        -0.759200 
      8 H          10.869000    4.575000   15.347000 H         1 <1>         0.358400 
      9 H           9.340000    3.974000   14.793000 H         1 <1>         0.356100 
     10 N          13.051000    4.689000   13.927000 N.ar      1 <1>        -0.375400 
     11 C          14.342000    4.845000   13.540000 C.ar      1 <1>         0.339500 
     12 C          14.874000    4.120000   12.482000 C.ar      1 <1>        -0.260100 
     13 H          15.905000    4.262000   12.171000 H         1 <1>         0.142400 
     14 C          14.058000    3.204000   11.818000 C.ar      1 <1>        -0.061900 
     15 H          14.471000    2.631000   10.990000 H         1 <1>         0.122900 
     16 C          15.198000    5.863000   14.275000 C.3       1 <1>        -0.114000 
     17 H          15.640000    5.376000   15.153000 H         1 <1>         0.082000 
     18 H          14.553000    6.675000   14.630000 H         1 <1>         0.094000 
     19 N          16.237000    6.399000   13.403000 N.pl3     1 <1>        -0.412900 
     20 H          17.188000    6.082000   13.585000 H         1 <1>         0.285400 
     21 C          16.001000    7.166000   12.280000 C.ar      1 <1>         0.179700 
     22 C          14.725000    7.717000   12.100000 C.ar      1 <1>        -0.125500 
     23 H          13.949000    7.554000   12.847000 H         1 <1>         0.117200 
     24 C          14.416000    8.482000   10.975000 C.ar      1 <1>        -0.191800 
     25 H          13.422000    8.910000   10.867000 H         1 <1>         0.144600 
     26 C          15.386000    8.690000    9.999000 C.ar      1 <1>         0.111700 
     27 C          16.677000    8.168000   10.150000 C.ar      1 <1>         0.225600 
     28 C          16.967000    7.400000   11.287000 C.ar      1 <1>        -0.371100 
     29 H          17.958000    6.978000   11.414000 H         1 <1>         0.134100 
     30 O          17.562000    8.457000    9.143000 O.3       1 <1>        -0.226400 
     31 C          18.863000    7.879000    9.232000 C.3       1 <1>        -0.055600 
     32 H          19.439000    8.221000    8.367000 H         1 <1>         0.071900 
     33 H          18.811000    6.786000    9.187000 H         1 <1>         0.061200 
     34 H          19.384000    8.218000   10.133000 H         1 <1>         0.062600 
     35 O          15.081000    9.475000    8.915000 O.3       1 <1>        -0.279800 
     36 C          16.221000    9.585000    8.056000 C.3       1 <1>         0.074800 
     37 H          15.967000   10.283000    7.253000 H         1 <1>         0.040900 
     38 H          16.467000    8.619000    7.602000 H         1 <1>         0.025400 
     39 H          17.087000    9.986000    8.595000 H         1 <1>         0.021700 
     40 N           9.958000    1.060000   11.242000 N.pl3     1 <1>        -0.821700 
     41 H          10.359000    0.530000   10.483000 H         1 <1>         0.378300 
     42 H           8.996000    0.918000   11.513000 H         1 <1>         0.374100 
@<TRIPOS>BOND
     1    1    2 ar   
     2    2    3 ar   
     3    3    4 ar   
     4    4    5 ar   
     5    5    6 ar   
     6    6    1 ar   
     7    6    7 1    
     8    7    8 1    
     9    7    9 1    
    10    5   10 ar   
    11   10   11 ar   
    12   11   12 ar   
    13   12   13 1    
    14   12   14 ar   
    15   14   15 1    
    16   14    4 ar   
    17   11   16 1    
    18   16   17 1    
    19   16   18 1    
    20   16   19 1    
    21   19   20 1    
    22   19   21 1    
    23   21   22 ar   
    24   22   23 1    
    25   22   24 ar   
    26   24   25 1    
    27   24   26 ar   
    28   26   27 ar   
    29   27   28 ar   
    30   28   29 1    
    31   28   21 ar   
    32   27   30 1    
    33   30   31 1    
    34   31   32 1    
    35   31   33 1    
    36   31   34 1    
    37   26   35 1    
    38   35   36 1    
    39   36   37 1    
    40   36   38 1    
    41   36   39 1    
    42    2   40 1    
    43   40   41 1    
    44   40   42 1    
@<TRIPOS>SUBSTRUCTURE
     1 ****        1 TEMP              0 ****  ****    0 ROOT 
@<TRIPOS>SET
UNITY_3DHIT     STATIC     ATOMS    <user>   **** Atoms matching 3D or FLEX Search
0
