#	Name:			21-14
#	Creating user name:	jeff
#	Creation time:		Thu Dec  4 18:13:32 2003

#	Modifying user name:	jeff
#	Modification time:	Thu Dec  4 18:13:32 2003

@<TRIPOS>MOLECULE
21-14
   34    36     1     0     1
SMALL
USER_CHARGES
****
From 3DB ct
@<TRIPOS>ATOM
      1 N          10.157000    2.639000   12.909000 N.ar      1 <1>        -0.657800 
      2 C          10.722000    1.965000   11.909000 C.ar      1 <1>         0.785700 
      3 N          11.989000    2.116000   11.524000 N.ar      1 <1>        -0.630900 
      4 C          12.737000    3.011000   12.193000 C.ar      1 <1>         0.243100 
      5 C          12.270000    3.780000   13.261000 C.ar      1 <1>        -0.099000 
      6 C          10.933000    3.520000   13.573000 C.ar      1 <1>         0.616400 
      7 N          10.291000    4.235000   14.579000 N.pl3     1 <1>        -0.753300 
      8 H          10.863000    4.573000   15.348000 H         1 <1>         0.357200 
      9 H           9.335000    3.974000   14.789000 H         1 <1>         0.354500 
     10 N          13.048000    4.685000   13.934000 N.ar      1 <1>        -0.389100 
     11 C          14.340000    4.842000   13.547000 C.ar      1 <1>         0.294800 
     12 C          14.872000    4.121000   12.489000 C.ar      1 <1>        -0.248800 
     13 H          15.904000    4.266000   12.177000 H         1 <1>         0.142900 
     14 C          14.058000    3.206000   11.822000 C.ar      1 <1>        -0.059500 
     15 H          14.472000    2.636000   10.992000 H         1 <1>         0.123000 
     16 C          15.192000    5.864000   14.282000 C.3       1 <1>         0.027900 
     17 H          15.623000    5.385000   15.170000 H         1 <1>         0.060500 
     18 H          14.548000    6.684000   14.621000 H         1 <1>         0.069100 
     19 N          16.242000    6.386000   13.414000 N.pl3     1 <1>        -0.589900 
     20 H          17.184000    6.035000   13.582000 H         1 <1>         0.335600 
     21 C          16.016000    7.156000   12.291000 C.ar      1 <1>         0.258400 
     22 C          14.737000    7.697000   12.090000 C.ar      1 <1>        -0.130200 
     23 H          13.949000    7.520000   12.822000 H         1 <1>         0.111600 
     24 C          14.436000    8.467000   10.962000 C.ar      1 <1>        -0.156800 
     25 H          13.436000    8.877000   10.834000 H         1 <1>         0.124200 
     26 C          15.416000    8.706000   10.004000 C.ar      1 <1>         0.065500 
     27 H          15.182000    9.305000    9.127000 H         1 <1>         0.058000 
     28 C          16.688000    8.170000   10.183000 C.ar      1 <1>        -0.313500 
     29 C          16.986000    7.399000   11.312000 C.ar      1 <1>        -0.066800 
     30 H          17.989000    6.996000   11.413000 H         1 <1>         0.070000 
     31 Cl         17.907000    8.457000    9.000000 Cl        1 <1>         0.061400 
     32 N           9.959000    1.064000   11.236000 N.pl3     1 <1>        -0.814000 
     33 H          10.361000    0.536000   10.475000 H         1 <1>         0.377200 
     34 H           8.996000    0.923000   11.504000 H         1 <1>         0.372700 
@<TRIPOS>BOND
     1    1    2 ar   
     2    2    3 ar   
     3    3    4 ar   
     4    4    5 ar   
     5    5    6 ar   
     6    6    1 ar   
     7    6    7 1    
     8    7    8 1    
     9    7    9 1    
    10    5   10 ar   
    11   10   11 ar   
    12   11   12 ar   
    13   12   13 1    
    14   12   14 ar   
    15   14   15 1    
    16   14    4 ar   
    17   11   16 1    
    18   16   17 1    
    19   16   18 1    
    20   16   19 1    
    21   19   20 1    
    22   19   21 1    
    23   21   22 ar   
    24   22   23 1    
    25   22   24 ar   
    26   24   25 1    
    27   24   26 ar   
    28   26   27 1    
    29   26   28 ar   
    30   28   29 ar   
    31   29   30 1    
    32   29   21 ar   
    33   28   31 1    
    34    2   32 1    
    35   32   33 1    
    36   32   34 1    
@<TRIPOS>SUBSTRUCTURE
     1 ****        1 TEMP              0 ****  ****    0 ROOT 
@<TRIPOS>SET
UNITY_3DHIT     STATIC     ATOMS    <user>   **** Atoms matching 3D or FLEX Search
0
