#	Name:			21-13
#	Creating user name:	jeff
#	Creation time:		Thu Dec  4 18:13:32 2003

#	Modifying user name:	jeff
#	Modification time:	Thu Dec  4 18:13:32 2003

@<TRIPOS>MOLECULE
21-13
   37    39     1     0     1
SMALL
USER_CHARGES
****
From 3DB ct
@<TRIPOS>ATOM
      1 N          10.159000    2.634000   12.916000 N.ar      1 <1>        -0.667800 
      2 C          10.724000    1.954000   11.920000 C.ar      1 <1>         0.789300 
      3 N          11.988000    2.108000   11.528000 N.ar      1 <1>        -0.634500 
      4 C          12.734000    3.014000   12.186000 C.ar      1 <1>         0.257100 
      5 C          12.267000    3.790000   13.248000 C.ar      1 <1>        -0.140500 
      6 C          10.933000    3.525000   13.569000 C.ar      1 <1>         0.644800 
      7 N          10.291000    4.247000   14.569000 N.pl3     1 <1>        -0.771900 
      8 H          10.866000    4.594000   15.332000 H         1 <1>         0.362400 
      9 H           9.337000    3.982000   14.787000 H         1 <1>         0.358400 
     10 N          13.043000    4.706000   13.907000 N.ar      1 <1>        -0.381100 
     11 C          14.332000    4.872000   13.512000 C.ar      1 <1>         0.370800 
     12 C          14.866000    4.139000   12.462000 C.ar      1 <1>        -0.269100 
     13 H          15.898000    4.273000   12.149000 H         1 <1>         0.138400 
     14 C          14.053000    3.212000   11.808000 C.ar      1 <1>        -0.064300 
     15 H          14.467000    2.633000   10.985000 H         1 <1>         0.125000 
     16 C          15.190000    5.884000   14.260000 C.3       1 <1>        -0.199600 
     17 H          15.563000    5.371000   15.157000 H         1 <1>         0.118300 
     18 H          14.574000    6.723000   14.606000 H         1 <1>         0.088000 
     19 N          16.319000    6.374000   13.444000 N.pl3     1 <1>        -0.244700 
     20 C          16.006000    7.132000   12.303000 C.ar      1 <1>         0.483500 
     21 C          14.729000    7.700000   12.144000 C.ar      1 <1>        -0.295400 
     22 H          13.962000    7.560000   12.903000 H         1 <1>         0.129300 
     23 C          14.399000    8.439000   11.002000 C.ar      1 <1>         0.002100 
     24 H          13.402000    8.865000   10.903000 H         1 <1>         0.100200 
     25 C          15.338000    8.624000    9.992000 C.ar      1 <1>        -0.230300 
     26 H          15.080000    9.199000    9.105000 H         1 <1>         0.125300 
     27 C          16.610000    8.072000   10.122000 C.ar      1 <1>         0.155300 
     28 H          17.341000    8.224000    9.331000 H         1 <1>         0.055300 
     29 C          16.942000    7.332000   11.264000 C.ar      1 <1>        -0.477700 
     30 Cl         18.556000    6.709000   11.369000 Cl        1 <1>         0.061700 
     31 C          17.464000    5.479000   13.266000 C.3       1 <1>        -0.152500 
     32 H          18.294000    5.970000   12.746000 H         1 <1>         0.081200 
     33 H          17.174000    4.594000   12.689000 H         1 <1>         0.073900 
     34 H          17.852000    5.145000   14.233000 H         1 <1>         0.075900 
     35 N           9.963000    1.043000   11.257000 N.pl3     1 <1>        -0.817000 
     36 H          10.363000    0.512000   10.498000 H         1 <1>         0.377100 
     37 H           9.001000    0.901000   11.529000 H         1 <1>         0.373100 
@<TRIPOS>BOND
     1    1    2 ar   
     2    2    3 ar   
     3    3    4 ar   
     4    4    5 ar   
     5    5    6 ar   
     6    6    1 ar   
     7    6    7 1    
     8    7    8 1    
     9    7    9 1    
    10    5   10 ar   
    11   10   11 ar   
    12   11   12 ar   
    13   12   13 1    
    14   12   14 ar   
    15   14   15 1    
    16   14    4 ar   
    17   11   16 1    
    18   16   17 1    
    19   16   18 1    
    20   16   19 1    
    21   19   20 1    
    22   20   21 ar   
    23   21   22 1    
    24   21   23 ar   
    25   23   24 1    
    26   23   25 ar   
    27   25   26 1    
    28   25   27 ar   
    29   27   28 1    
    30   27   29 ar   
    31   29   20 ar   
    32   29   30 1    
    33   19   31 1    
    34   31   32 1    
    35   31   33 1    
    36   31   34 1    
    37    2   35 1    
    38   35   36 1    
    39   35   37 1    
@<TRIPOS>SUBSTRUCTURE
     1 ****        1 TEMP              0 ****  ****    0 ROOT 
@<TRIPOS>SET
UNITY_3DHIT     STATIC     ATOMS    <user>   **** Atoms matching 3D or FLEX Search
0
