#	Name:			21-18
#	Creating user name:	jeff
#	Creation time:		Thu Dec  4 18:13:32 2003

#	Modifying user name:	jeff
#	Modification time:	Thu Dec  4 18:13:32 2003

@<TRIPOS>MOLECULE
21-18
   45    47     1     0     1
SMALL
USER_CHARGES
****
From 3DB ct
@<TRIPOS>ATOM
      1 N          10.164000    2.625000   12.923000 N.ar      1 <1>        -0.670300 
      2 C          10.732000    1.937000   11.935000 C.ar      1 <1>         0.794300 
      3 N          11.993000    2.099000   11.536000 N.ar      1 <1>        -0.638500 
      4 C          12.732000    3.022000   12.177000 C.ar      1 <1>         0.261800 
      5 C          12.261000    3.808000   13.230000 C.ar      1 <1>        -0.140100 
      6 C          10.931000    3.534000   13.559000 C.ar      1 <1>         0.640500 
      7 N          10.284000    4.264000   14.552000 N.pl3     1 <1>        -0.759900 
      8 H          10.858000    4.629000   15.307000 H         1 <1>         0.360300 
      9 H           9.334000    3.992000   14.776000 H         1 <1>         0.356600 
     10 N          13.029000    4.742000   13.873000 N.ar      1 <1>        -0.388900 
     11 C          14.315000    4.915000   13.472000 C.ar      1 <1>         0.386100 
     12 C          14.852000    4.173000   12.430000 C.ar      1 <1>        -0.265000 
     13 H          15.882000    4.314000   12.111000 H         1 <1>         0.143500 
     14 C          14.047000    3.229000   11.792000 C.ar      1 <1>        -0.079900 
     15 H          14.465000    2.643000   10.975000 H         1 <1>         0.128200 
     16 C          15.165000    5.950000   14.200000 C.3       1 <1>        -0.149800 
     17 H          15.550000    5.451000   15.100000 H         1 <1>         0.085900 
     18 H          14.540000    6.786000   14.537000 H         1 <1>         0.084100 
     19 N          16.285000    6.450000   13.374000 N.pl3     1 <1>        -0.124400 
     20 C          15.980000    7.207000   12.229000 C.ar      1 <1>         0.065500 
     21 C          14.708000    7.787000   12.062000 C.ar      1 <1>        -0.321300 
     22 H          13.940000    7.646000   12.820000 H         1 <1>         0.148400 
     23 C          14.376000    8.530000   10.923000 C.ar      1 <1>         0.339000 
     24 C          15.327000    8.702000    9.924000 C.ar      1 <1>        -0.260000 
     25 H          15.119000    9.270000    9.020000 H         1 <1>         0.130900 
     26 C          16.601000    8.140000   10.061000 C.ar      1 <1>        -0.189500 
     27 H          17.310000    8.308000    9.255000 H         1 <1>         0.140800 
     28 C          16.937000    7.398000   11.200000 C.ar      1 <1>         0.167600 
     29 O          18.178000    6.844000   11.415000 O.3       1 <1>        -0.278800 
     30 C          19.160000    7.010000   10.396000 C.3       1 <1>         0.010600 
     31 H          20.071000    6.503000   10.727000 H         1 <1>         0.058500 
     32 H          19.402000    8.068000   10.251000 H         1 <1>         0.043000 
     33 H          18.840000    6.541000    9.460000 H         1 <1>         0.036400 
     34 O          13.100000    9.022000   10.910000 O.3       1 <1>        -0.301000 
     35 C          12.716000    9.787000    9.768000 C.3       1 <1>         0.056900 
     36 H          11.681000   10.108000    9.915000 H         1 <1>         0.057300 
     37 H          12.751000    9.178000    8.858000 H         1 <1>         0.028400 
     38 H          13.335000   10.685000    9.670000 H         1 <1>         0.024500 
     39 C          17.461000    5.586000   13.236000 C.3       1 <1>        -0.102100 
     40 H          18.293000    6.085000   12.729000 H         1 <1>         0.075500 
     41 H          17.206000    4.686000   12.666000 H         1 <1>         0.061500 
     42 H          17.835000    5.276000   14.216000 H         1 <1>         0.055500 
     43 N           9.978000    1.008000   11.288000 N.pl3     1 <1>        -0.822000 
     44 H          10.381000    0.471000   10.535000 H         1 <1>         0.376700 
     45 H           9.019000    0.861000   11.566000 H         1 <1>         0.373100 
@<TRIPOS>BOND
     1    1    2 ar   
     2    2    3 ar   
     3    3    4 ar   
     4    4    5 ar   
     5    5    6 ar   
     6    6    1 ar   
     7    6    7 1    
     8    7    8 1    
     9    7    9 1    
    10    5   10 ar   
    11   10   11 ar   
    12   11   12 ar   
    13   12   13 1    
    14   12   14 ar   
    15   14   15 1    
    16   14    4 ar   
    17   11   16 1    
    18   16   17 1    
    19   16   18 1    
    20   16   19 1    
    21   19   20 1    
    22   20   21 ar   
    23   21   22 1    
    24   21   23 ar   
    25   23   24 ar   
    26   24   25 1    
    27   24   26 ar   
    28   26   27 1    
    29   26   28 ar   
    30   28   20 ar   
    31   28   29 1    
    32   29   30 1    
    33   30   31 1    
    34   30   32 1    
    35   30   33 1    
    36   23   34 1    
    37   34   35 1    
    38   35   36 1    
    39   35   37 1    
    40   35   38 1    
    41   19   39 1    
    42   39   40 1    
    43   39   41 1    
    44   39   42 1    
    45    2   43 1    
    46   43   44 1    
    47   43   45 1    
@<TRIPOS>SUBSTRUCTURE
     1 ****        1 TEMP              0 ****  ****    0 ROOT 
@<TRIPOS>SET
UNITY_3DHIT     STATIC     ATOMS    <user>   **** Atoms matching 3D or FLEX Search
0
