#	Name:			21-12
#	Creating user name:	jeff
#	Creation time:		Thu Dec  4 18:13:32 2003

#	Modifying user name:	jeff
#	Modification time:	Thu Dec  4 18:13:32 2003

@<TRIPOS>MOLECULE
21-12
   34    36     1     0     1
SMALL
USER_CHARGES
****
From 3DB ct
@<TRIPOS>ATOM
      1 N          10.164000    2.631000   12.908000 N.ar      1 <1>        -0.651600 
      2 C          10.737000    1.957000   11.914000 C.ar      1 <1>         0.778600 
      3 N          12.003000    2.118000   11.530000 N.ar      1 <1>        -0.630200 
      4 C          12.741000    3.025000   12.194000 C.ar      1 <1>         0.247700 
      5 C          12.264000    3.799000   13.255000 C.ar      1 <1>        -0.093000 
      6 C          10.930000    3.525000   13.568000 C.ar      1 <1>         0.605700 
      7 N          10.279000    4.238000   14.569000 N.pl3     1 <1>        -0.750900 
      8 H          10.846000    4.584000   15.337000 H         1 <1>         0.357500 
      9 H           9.326000    3.966000   14.780000 H         1 <1>         0.353400 
     10 N          13.030000    4.718000   13.920000 N.ar      1 <1>        -0.382500 
     11 C          14.321000    4.887000   13.532000 C.ar      1 <1>         0.271200 
     12 C          14.864000    4.161000   12.483000 C.ar      1 <1>        -0.243400 
     13 H          15.893000    4.317000   12.170000 H         1 <1>         0.146600 
     14 C          14.061000    3.230000   11.824000 C.ar      1 <1>        -0.060800 
     15 H          14.482000    2.656000   11.000000 H         1 <1>         0.121600 
     16 C          15.157000    5.931000   14.252000 C.3       1 <1>         0.036800 
     17 H          15.464000    5.526000   15.221000 H         1 <1>         0.076900 
     18 H          14.531000    6.808000   14.456000 H         1 <1>         0.064200 
     19 N          16.291000    6.331000   13.415000 N.pl3     1 <1>        -0.683900 
     20 H          16.985000    5.590000   13.311000 H         1 <1>         0.333200 
     21 C          16.030000    7.077000   12.263000 C.ar      1 <1>         0.669900 
     22 C          14.748000    7.632000   12.112000 C.ar      1 <1>        -0.338900 
     23 H          13.980000    7.442000   12.861000 H         1 <1>         0.143200 
     24 C          14.431000    8.445000   11.020000 C.ar      1 <1>         0.020700 
     25 H          13.430000    8.864000   10.929000 H         1 <1>         0.100900 
     26 C          15.393000    8.724000   10.055000 C.ar      1 <1>        -0.277900 
     27 H          15.148000    9.356000    9.204000 H         1 <1>         0.125800 
     28 C          16.672000    8.185000   10.180000 C.ar      1 <1>         0.227500 
     29 H          17.416000    8.397000    9.415000 H         1 <1>         0.054100 
     30 C          16.991000    7.370000   11.274000 C.ar      1 <1>        -0.628100 
     31 Cl         18.580000    6.679000   11.309000 Cl        1 <1>         0.068000 
     32 N           9.984000    1.046000   11.243000 N.pl3     1 <1>        -0.809400 
     33 H          10.391000    0.522000   10.482000 H         1 <1>         0.376500 
     34 H           9.020000    0.901000   11.505000 H         1 <1>         0.370700 
@<TRIPOS>BOND
     1    1    2 ar   
     2    2    3 ar   
     3    3    4 ar   
     4    4    5 ar   
     5    5    6 ar   
     6    6    1 ar   
     7    6    7 1    
     8    7    8 1    
     9    7    9 1    
    10    5   10 ar   
    11   10   11 ar   
    12   11   12 ar   
    13   12   13 1    
    14   12   14 ar   
    15   14   15 1    
    16   14    4 ar   
    17   11   16 1    
    18   16   17 1    
    19   16   18 1    
    20   16   19 1    
    21   19   20 1    
    22   19   21 1    
    23   21   22 ar   
    24   22   23 1    
    25   22   24 ar   
    26   24   25 1    
    27   24   26 ar   
    28   26   27 1    
    29   26   28 ar   
    30   28   29 1    
    31   28   30 ar   
    32   30   21 ar   
    33   30   31 1    
    34    2   32 1    
    35   32   33 1    
    36   32   34 1    
@<TRIPOS>SUBSTRUCTURE
     1 ****        1 TEMP              0 ****  ****    0 ROOT 
@<TRIPOS>SET
UNITY_3DHIT     STATIC     ATOMS    <user>   **** Atoms matching 3D or FLEX Search
0
