#	Name:			21-15
#	Creating user name:	jeff
#	Creation time:		Thu Dec  4 18:13:32 2003

#	Modifying user name:	jeff
#	Modification time:	Thu Dec  4 18:13:32 2003

@<TRIPOS>MOLECULE
21-15
   42    44     1     0     1
SMALL
USER_CHARGES
****
From 3DB ct
@<TRIPOS>ATOM
      1 N          10.159000    2.640000   12.909000 N.ar      1 <1>        -0.667200 
      2 C          10.725000    1.967000   11.909000 C.ar      1 <1>         0.791100 
      3 N          11.992000    2.117000   11.525000 N.ar      1 <1>        -0.635600 
      4 C          12.740000    3.012000   12.195000 C.ar      1 <1>         0.259000 
      5 C          12.273000    3.782000   13.263000 C.ar      1 <1>        -0.139300 
      6 C          10.935000    3.521000   13.574000 C.ar      1 <1>         0.640100 
      7 N          10.292000    4.235000   14.579000 N.pl3     1 <1>        -0.762500 
      8 H          10.863000    4.574000   15.348000 H         1 <1>         0.359300 
      9 H           9.336000    3.974000   14.789000 H         1 <1>         0.356200 
     10 N          13.050000    4.688000   13.934000 N.ar      1 <1>        -0.373800 
     11 C          14.342000    4.846000   13.547000 C.ar      1 <1>         0.335100 
     12 C          14.875000    4.124000   12.489000 C.ar      1 <1>        -0.253900 
     13 H          15.905000    4.270000   12.175000 H         1 <1>         0.147100 
     14 C          14.061000    3.206000   11.825000 C.ar      1 <1>        -0.071200 
     15 H          14.475000    2.636000   10.995000 H         1 <1>         0.123600 
     16 C          15.191000    5.881000   14.271000 C.3       1 <1>        -0.112800 
     17 H          15.620000    5.408000   15.162000 H         1 <1>         0.085400 
     18 H          14.535000    6.699000   14.591000 H         1 <1>         0.087700 
     19 N          16.236000    6.389000   13.392000 N.pl3     1 <1>        -0.332400 
     20 H          17.174000    6.034000   13.577000 H         1 <1>         0.257500 
     21 C          16.053000    7.159000   12.255000 C.ar      1 <1>        -0.070500 
     22 C          14.765000    7.687000   12.057000 C.ar      1 <1>         0.043900 
     23 H          13.979000    7.495000   12.787000 H         1 <1>         0.102400 
     24 C          14.448000    8.460000   10.938000 C.ar      1 <1>        -0.349600 
     25 H          13.438000    8.851000   10.828000 H         1 <1>         0.160400 
     26 C          15.413000    8.729000    9.975000 C.ar      1 <1>         0.296200 
     27 C          16.698000    8.211000   10.139000 C.ar      1 <1>        -0.283800 
     28 H          17.452000    8.421000    9.389000 H         1 <1>         0.130100 
     29 C          17.027000    7.427000   11.263000 C.ar      1 <1>         0.174400 
     30 O          18.282000    6.903000   11.464000 O.3       1 <1>        -0.244000 
     31 C          19.304000    7.217000   10.523000 C.3       1 <1>        -0.016500 
     32 H          20.206000    6.672000   10.818000 H         1 <1>         0.067600 
     33 H          19.541000    8.286000   10.543000 H         1 <1>         0.047900 
     34 H          19.030000    6.885000    9.516000 H         1 <1>         0.046700 
     35 O          14.979000    9.498000    8.931000 O.3       1 <1>        -0.287000 
     36 C          15.924000    9.788000    7.902000 C.3       1 <1>         0.034700 
     37 H          15.421000   10.408000    7.154000 H         1 <1>         0.061200 
     38 H          16.257000    8.870000    7.405000 H         1 <1>         0.031900 
     39 H          16.771000   10.359000    8.295000 H         1 <1>         0.029900 
     40 N           9.961000    1.069000   11.232000 N.pl3     1 <1>        -0.818900 
     41 H          10.362000    0.545000   10.468000 H         1 <1>         0.376900 
     42 H           8.996000    0.932000   11.496000 H         1 <1>         0.373000 
@<TRIPOS>BOND
     1    1    2 ar   
     2    2    3 ar   
     3    3    4 ar   
     4    4    5 ar   
     5    5    6 ar   
     6    6    1 ar   
     7    6    7 1    
     8    7    8 1    
     9    7    9 1    
    10    5   10 ar   
    11   10   11 ar   
    12   11   12 ar   
    13   12   13 1    
    14   12   14 ar   
    15   14   15 1    
    16   14    4 ar   
    17   11   16 1    
    18   16   17 1    
    19   16   18 1    
    20   16   19 1    
    21   19   20 1    
    22   19   21 1    
    23   21   22 ar   
    24   22   23 1    
    25   22   24 ar   
    26   24   25 1    
    27   24   26 ar   
    28   26   27 ar   
    29   27   28 1    
    30   27   29 ar   
    31   29   21 ar   
    32   29   30 1    
    33   30   31 1    
    34   31   32 1    
    35   31   33 1    
    36   31   34 1    
    37   26   35 1    
    38   35   36 1    
    39   36   37 1    
    40   36   38 1    
    41   36   39 1    
    42    2   40 1    
    43   40   41 1    
    44   40   42 1    
@<TRIPOS>SUBSTRUCTURE
     1 ****        1 TEMP              0 ****  ****    0 ROOT 
@<TRIPOS>SET
UNITY_3DHIT     STATIC     ATOMS    <user>   **** Atoms matching 3D or FLEX Search
0
