#	Name:			21-16
#	Creating user name:	jeff
#	Creation time:		Thu Dec  4 18:13:32 2003

#	Modifying user name:	jeff
#	Modification time:	Thu Dec  4 18:13:32 2003

@<TRIPOS>MOLECULE
21-16
   45    47     1     0     1
SMALL
USER_CHARGES
****
From 3DB ct
@<TRIPOS>ATOM
      1 N          10.160000    2.624000   12.917000 N.ar      1 <1>        -0.668600 
      2 C          10.731000    1.941000   11.927000 C.ar      1 <1>         0.792800 
      3 N          11.994000    2.103000   11.534000 N.ar      1 <1>        -0.636900 
      4 C          12.732000    3.021000   12.183000 C.ar      1 <1>         0.264500 
      5 C          12.258000    3.803000   13.238000 C.ar      1 <1>        -0.147600 
      6 C          10.926000    3.529000   13.562000 C.ar      1 <1>         0.642200 
      7 N          10.277000    4.253000   14.556000 N.pl3     1 <1>        -0.760200 
      8 H          10.848000    4.612000   15.316000 H         1 <1>         0.359000 
      9 H           9.326000    3.981000   14.776000 H         1 <1>         0.354600 
     10 N          13.025000    4.732000   13.888000 N.ar      1 <1>        -0.383100 
     11 C          14.313000    4.907000   13.491000 C.ar      1 <1>         0.390300 
     12 C          14.853000    4.168000   12.447000 C.ar      1 <1>        -0.268800 
     13 H          15.883000    4.309000   12.132000 H         1 <1>         0.154200 
     14 C          14.048000    3.228000   11.803000 C.ar      1 <1>        -0.075500 
     15 H          14.467000    2.645000   10.985000 H         1 <1>         0.126200 
     16 C          15.161000    5.939000   14.224000 C.3       1 <1>        -0.206600 
     17 H          15.552000    5.433000   15.118000 H         1 <1>         0.109200 
     18 H          14.533000    6.768000   14.573000 H         1 <1>         0.093200 
     19 N          16.273000    6.452000   13.397000 N.pl3     1 <1>        -0.157000 
     20 C          15.958000    7.203000   12.252000 C.ar      1 <1>        -0.041400 
     21 C          14.681000    7.761000   12.083000 C.ar      1 <1>        -0.026200 
     22 H          13.906000    7.620000   12.834000 H         1 <1>         0.111700 
     23 C          14.356000    8.492000   10.937000 C.ar      1 <1>        -0.313100 
     24 H          13.354000    8.906000   10.838000 H         1 <1>         0.154600 
     25 C          15.295000    8.684000    9.928000 C.ar      1 <1>         0.350100 
     26 C          16.573000    8.140000   10.070000 C.ar      1 <1>        -0.362400 
     27 H          17.309000    8.293000    9.290000 H         1 <1>         0.160000 
     28 C          16.912000    7.405000   11.220000 C.ar      1 <1>         0.219500 
     29 O          18.160000    6.867000   11.444000 O.3       1 <1>        -0.277600 
     30 C          19.151000    7.043000   10.435000 C.3       1 <1>         0.018300 
     31 H          20.062000    6.543000   10.775000 H         1 <1>         0.054900 
     32 H          19.386000    8.104000   10.296000 H         1 <1>         0.044200 
     33 H          18.844000    6.574000    9.495000 H         1 <1>         0.032900 
     34 O          14.845000    9.415000    8.863000 O.3       1 <1>        -0.313500 
     35 C          15.766000    9.644000    7.797000 C.3       1 <1>         0.070200 
     36 H          15.251000   10.236000    7.034000 H         1 <1>         0.055600 
     37 H          16.076000    8.701000    7.336000 H         1 <1>         0.024800 
     38 H          16.629000   10.223000    8.142000 H         1 <1>         0.021200 
     39 C          17.457000    5.600000   13.257000 C.3       1 <1>        -0.087300 
     40 H          18.286000    6.111000   12.754000 H         1 <1>         0.074000 
     41 H          17.213000    4.701000   12.680000 H         1 <1>         0.061200 
     42 H          17.832000    5.286000   14.235000 H         1 <1>         0.057700 
     43 N           9.978000    1.017000   11.273000 N.pl3     1 <1>        -0.821000 
     44 H          10.382000    0.485000   10.517000 H         1 <1>         0.376900 
     45 H           9.017000    0.871000   11.545000 H         1 <1>         0.373200 
@<TRIPOS>BOND
     1    1    2 ar   
     2    2    3 ar   
     3    3    4 ar   
     4    4    5 ar   
     5    5    6 ar   
     6    6    1 ar   
     7    6    7 1    
     8    7    8 1    
     9    7    9 1    
    10    5   10 ar   
    11   10   11 ar   
    12   11   12 ar   
    13   12   13 1    
    14   12   14 ar   
    15   14   15 1    
    16   14    4 ar   
    17   11   16 1    
    18   16   17 1    
    19   16   18 1    
    20   16   19 1    
    21   19   20 1    
    22   20   21 ar   
    23   21   22 1    
    24   21   23 ar   
    25   23   24 1    
    26   23   25 ar   
    27   25   26 ar   
    28   26   27 1    
    29   26   28 ar   
    30   28   20 ar   
    31   28   29 1    
    32   29   30 1    
    33   30   31 1    
    34   30   32 1    
    35   30   33 1    
    36   25   34 1    
    37   34   35 1    
    38   35   36 1    
    39   35   37 1    
    40   35   38 1    
    41   19   39 1    
    42   39   40 1    
    43   39   41 1    
    44   39   42 1    
    45    2   43 1    
    46   43   44 1    
    47   43   45 1    
@<TRIPOS>SUBSTRUCTURE
     1 ****        1 TEMP              0 ****  ****    0 ROOT 
@<TRIPOS>SET
UNITY_3DHIT     STATIC     ATOMS    <user>   **** Atoms matching 3D or FLEX Search
0
