#	Name:			21-20
#	Creating user name:	jeff
#	Creation time:		Thu Dec  4 18:13:32 2003

#	Modifying user name:	jeff
#	Modification time:	Thu Dec  4 18:13:32 2003

@<TRIPOS>MOLECULE
21-20
   45    47     1     0     1
SMALL
USER_CHARGES
****
From 3DB ct
@<TRIPOS>ATOM
      1 N          10.161000    2.655000   12.924000 N.ar      1 <1>        -0.671400 
      2 C          10.708000    1.974000   11.919000 C.ar      1 <1>         0.799600 
      3 N          11.972000    2.110000   11.521000 N.ar      1 <1>        -0.639900 
      4 C          12.738000    2.995000   12.184000 C.ar      1 <1>         0.257500 
      5 C          12.292000    3.769000   13.257000 C.ar      1 <1>        -0.141100 
      6 C          10.954000    3.527000   13.581000 C.ar      1 <1>         0.645200 
      7 N          10.330000    4.250000   14.591000 N.pl3     1 <1>        -0.766800 
      8 H          10.913000    4.589000   15.351000 H         1 <1>         0.361900 
      9 H           9.372000    4.002000   14.811000 H         1 <1>         0.360100 
     10 N          13.089000    4.660000   13.923000 N.ar      1 <1>        -0.376100 
     11 C          14.379000    4.808000   13.521000 C.ar      1 <1>         0.376100 
     12 C          14.894000    4.073000   12.463000 C.ar      1 <1>        -0.288100 
     13 H          15.926000    4.191000   12.144000 H         1 <1>         0.151700 
     14 C          14.060000    3.170000   11.803000 C.ar      1 <1>        -0.058900 
     15 H          14.459000    2.591000   10.972000 H         1 <1>         0.122700 
     16 C          15.261000    5.804000   14.268000 C.3       1 <1>        -0.206800 
     17 H          15.748000    5.322000   15.125000 H         1 <1>         0.102300 
     18 H          14.570000    6.554000   14.672000 H         1 <1>         0.104100 
     19 N          16.297000    6.422000   13.413000 N.pl3     1 <1>        -0.134100 
     20 C          15.969000    7.182000   12.298000 C.ar      1 <1>         0.161400 
     21 C          16.918000    7.456000   11.297000 C.ar      1 <1>        -0.268100 
     22 H          17.927000    7.053000   11.364000 H         1 <1>         0.132900 
     23 C          16.603000    8.220000   10.170000 C.ar      1 <1>        -0.139000 
     24 H          17.360000    8.394000    9.408000 H         1 <1>         0.122900 
     25 C          15.323000    8.745000   10.030000 C.ar      1 <1>         0.101300 
     26 C          14.340000    8.488000   10.989000 C.ar      1 <1>         0.190200 
     27 C          14.678000    7.721000   12.115000 C.ar      1 <1>        -0.260200 
     28 H          13.934000    7.558000   12.889000 H         1 <1>         0.137200 
     29 O          13.106000    9.034000   10.745000 O.3       1 <1>        -0.279500 
     30 C          12.974000    9.859000    9.590000 C.3       1 <1>         0.073800 
     31 H          11.949000   10.241000    9.569000 H         1 <1>         0.040900 
     32 H          13.132000    9.280000    8.675000 H         1 <1>         0.024600 
     33 H          13.650000   10.720000    9.640000 H         1 <1>         0.029100 
     34 O          15.020000    9.460000    8.899000 O.3       1 <1>        -0.222300 
     35 C          16.189000    9.605000    8.085000 C.3       1 <1>        -0.052500 
     36 H          15.924000   10.234000    7.230000 H         1 <1>         0.073500 
     37 H          16.525000    8.635000    7.702000 H         1 <1>         0.057100 
     38 H          16.997000   10.100000    8.635000 H         1 <1>         0.054400 
     39 C          17.700000    6.242000   13.789000 C.3       1 <1>        -0.051400 
     40 H          18.152000    5.429000   13.211000 H         1 <1>         0.042300 
     41 H          17.800000    6.003000   14.853000 H         1 <1>         0.063100 
     42 H          18.278000    7.160000   13.628000 H         1 <1>         0.042100 
     43 N           9.928000    1.081000   11.254000 N.pl3     1 <1>        -0.824800 
     44 H          10.316000    0.546000   10.492000 H         1 <1>         0.378300 
     45 H           8.968000    0.948000   11.536000 H         1 <1>         0.374600 
@<TRIPOS>BOND
     1    1    2 ar   
     2    2    3 ar   
     3    3    4 ar   
     4    4    5 ar   
     5    5    6 ar   
     6    6    1 ar   
     7    6    7 1    
     8    7    8 1    
     9    7    9 1    
    10    5   10 ar   
    11   10   11 ar   
    12   11   12 ar   
    13   12   13 1    
    14   12   14 ar   
    15   14   15 1    
    16   14    4 ar   
    17   11   16 1    
    18   16   17 1    
    19   16   18 1    
    20   16   19 1    
    21   19   20 1    
    22   20   21 ar   
    23   21   22 1    
    24   21   23 ar   
    25   23   24 1    
    26   23   25 ar   
    27   25   26 ar   
    28   26   27 ar   
    29   27   28 1    
    30   27   20 ar   
    31   26   29 1    
    32   29   30 1    
    33   30   31 1    
    34   30   32 1    
    35   30   33 1    
    36   25   34 1    
    37   34   35 1    
    38   35   36 1    
    39   35   37 1    
    40   35   38 1    
    41   19   39 1    
    42   39   40 1    
    43   39   41 1    
    44   39   42 1    
    45    2   43 1    
    46   43   44 1    
    47   43   45 1    
@<TRIPOS>SUBSTRUCTURE
     1 ****        1 TEMP              0 ****  ****    0 ROOT 
@<TRIPOS>SET
UNITY_3DHIT     STATIC     ATOMS    <user>   **** Atoms matching 3D or FLEX Search
0
