#	Name:			21-27
#	Creating user name:	jeff
#	Creation time:		Thu Dec  4 18:13:33 2003

#	Modifying user name:	jeff
#	Modification time:	Thu Dec  4 18:13:33 2003

@<TRIPOS>MOLECULE
21-27
   34    36     1     0     1
SMALL
USER_CHARGES
****
From 3DB ct
@<TRIPOS>ATOM
      1 N          10.157000    2.639000   12.909000 N.ar      1 <1>        -0.656000 
      2 C          10.722000    1.966000   11.909000 C.ar      1 <1>         0.789200 
      3 N          11.989000    2.116000   11.524000 N.ar      1 <1>        -0.634400 
      4 C          12.737000    3.011000   12.194000 C.ar      1 <1>         0.252300 
      5 C          12.270000    3.780000   13.262000 C.ar      1 <1>        -0.103700 
      6 C          10.933000    3.520000   13.573000 C.ar      1 <1>         0.609300 
      7 N          10.291000    4.234000   14.579000 N.pl3     1 <1>        -0.743500 
      8 H          10.863000    4.571000   15.349000 H         1 <1>         0.354800 
      9 H           9.334000    3.973000   14.789000 H         1 <1>         0.352700 
     10 N          13.049000    4.684000   13.935000 N.ar      1 <1>        -0.377800 
     11 C          14.341000    4.841000   13.549000 C.ar      1 <1>         0.290100 
     12 C          14.873000    4.120000   12.490000 C.ar      1 <1>        -0.253400 
     13 H          15.904000    4.265000   12.178000 H         1 <1>         0.147200 
     14 C          14.059000    3.205000   11.823000 C.ar      1 <1>        -0.058900 
     15 H          14.472000    2.635000   10.993000 H         1 <1>         0.123700 
     16 C          15.192000    5.863000   14.283000 C.3       1 <1>        -0.014600 
     17 H          15.624000    5.385000   15.170000 H         1 <1>         0.077400 
     18 H          14.546000    6.681000   14.623000 H         1 <1>         0.085200 
     19 N          16.240000    6.386000   13.413000 N.pl3     1 <1>        -0.623500 
     20 H          17.181000    6.032000   13.579000 H         1 <1>         0.350500 
     21 C          16.014000    7.157000   12.292000 C.ar      1 <1>         0.370600 
     22 C          14.736000    7.697000   12.091000 C.ar      1 <1>        -0.212600 
     23 H          13.948000    7.520000   12.822000 H         1 <1>         0.116900 
     24 C          14.436000    8.467000   10.962000 C.ar      1 <1>         0.119000 
     25 H          13.433000    8.871000   10.845000 H         1 <1>         0.068100 
     26 C          15.416000    8.708000   10.002000 C.ar      1 <1>        -0.300700 
     27 C          16.694000    8.171000   10.177000 C.ar      1 <1>        -0.108500 
     28 C          16.983000    7.400000   11.312000 C.ar      1 <1>        -0.153100 
     29 H          17.986000    6.994000   11.418000 H         1 <1>         0.079300 
     30 Cl         17.963000    8.420000    9.026000 Cl        1 <1>         0.056400 
     31 Cl         14.990000    9.667000    8.629000 Cl        1 <1>         0.059800 
     32 N           9.959000    1.065000   11.234000 N.pl3     1 <1>        -0.815700 
     33 H          10.360000    0.539000   10.472000 H         1 <1>         0.379600 
     34 H           8.995000    0.926000   11.501000 H         1 <1>         0.374100 
@<TRIPOS>BOND
     1    1    2 ar   
     2    2    3 ar   
     3    3    4 ar   
     4    4    5 ar   
     5    5    6 ar   
     6    6    1 ar   
     7    6    7 1    
     8    7    8 1    
     9    7    9 1    
    10    5   10 ar   
    11   10   11 ar   
    12   11   12 ar   
    13   12   13 1    
    14   12   14 ar   
    15   14   15 1    
    16   14    4 ar   
    17   11   16 1    
    18   16   17 1    
    19   16   18 1    
    20   16   19 1    
    21   19   20 1    
    22   19   21 1    
    23   21   22 ar   
    24   22   23 1    
    25   22   24 ar   
    26   24   25 1    
    27   24   26 ar   
    28   26   27 ar   
    29   27   28 ar   
    30   28   29 1    
    31   28   21 ar   
    32   27   30 1    
    33   26   31 1    
    34    2   32 1    
    35   32   33 1    
    36   32   34 1    
@<TRIPOS>SUBSTRUCTURE
     1 ****        1 TEMP              0 ****  ****    0 ROOT 
@<TRIPOS>SET
UNITY_3DHIT     STATIC     ATOMS    <user>   **** Atoms matching 3D or FLEX Search
0
