#	Name:			21-22
#	Creating user name:	jeff
#	Creation time:		Thu Dec  4 18:13:32 2003

#	Modifying user name:	jeff
#	Modification time:	Thu Dec  4 18:13:32 2003

@<TRIPOS>MOLECULE
21-22
   37    39     1     0     1
SMALL
USER_CHARGES
****
From 3DB ct
@<TRIPOS>ATOM
      1 N          10.159000    2.633000   12.916000 N.ar      1 <1>        -0.662700 
      2 C          10.724000    1.953000   11.921000 C.ar      1 <1>         0.783700 
      3 N          11.988000    2.108000   11.528000 N.ar      1 <1>        -0.633700 
      4 C          12.734000    3.013000   12.186000 C.ar      1 <1>         0.263700 
      5 C          12.267000    3.790000   13.248000 C.ar      1 <1>        -0.133400 
      6 C          10.933000    3.525000   13.569000 C.ar      1 <1>         0.638000 
      7 N          10.292000    4.247000   14.569000 N.pl3     1 <1>        -0.769700 
      8 H          10.867000    4.596000   15.331000 H         1 <1>         0.363100 
      9 H           9.338000    3.983000   14.787000 H         1 <1>         0.358100 
     10 N          13.043000    4.706000   13.906000 N.ar      1 <1>        -0.387200 
     11 C          14.332000    4.872000   13.511000 C.ar      1 <1>         0.359200 
     12 C          14.866000    4.139000   12.461000 C.ar      1 <1>        -0.276200 
     13 H          15.898000    4.273000   12.149000 H         1 <1>         0.143500 
     14 C          14.053000    3.212000   11.808000 C.ar      1 <1>        -0.065600 
     15 H          14.467000    2.633000   10.985000 H         1 <1>         0.125200 
     16 C          15.189000    5.884000   14.259000 C.3       1 <1>        -0.156000 
     17 H          15.563000    5.371000   15.155000 H         1 <1>         0.112400 
     18 H          14.574000    6.724000   14.605000 H         1 <1>         0.080700 
     19 N          16.317000    6.375000   13.442000 N.pl3     1 <1>        -0.309400 
     20 C          16.006000    7.133000   12.302000 C.ar      1 <1>         0.654300 
     21 C          14.731000    7.702000   12.143000 C.ar      1 <1>        -0.436000 
     22 H          13.963000    7.563000   12.902000 H         1 <1>         0.154400 
     23 C          14.404000    8.441000   11.001000 C.ar      1 <1>         0.293300 
     24 H          13.407000    8.866000   10.906000 H         1 <1>         0.048400 
     25 C          15.350000    8.621000    9.996000 C.ar      1 <1>        -0.596000 
     26 C          16.620000    8.070000   10.120000 C.ar      1 <1>         0.492300 
     27 H          17.358000    8.216000    9.335000 H         1 <1>        -0.010900 
     28 C          16.945000    7.332000   11.262000 C.ar      1 <1>        -0.649600 
     29 Cl         18.558000    6.704000   11.373000 Cl        1 <1>         0.091900 
     30 Cl         14.944000    9.531000    8.592000 Cl        1 <1>         0.097100 
     31 C          17.465000    5.481000   13.268000 C.3       1 <1>        -0.146700 
     32 H          18.295000    5.972000   12.750000 H         1 <1>         0.080500 
     33 H          17.177000    4.594000   12.692000 H         1 <1>         0.077000 
     34 H          17.850000    5.149000   14.237000 H         1 <1>         0.078600 
     35 N           9.963000    1.043000   11.258000 N.pl3     1 <1>        -0.812000 
     36 H          10.363000    0.514000   10.497000 H         1 <1>         0.377200 
     37 H           9.000000    0.903000   11.528000 H         1 <1>         0.372700 
@<TRIPOS>BOND
     1    1    2 ar   
     2    2    3 ar   
     3    3    4 ar   
     4    4    5 ar   
     5    5    6 ar   
     6    6    1 ar   
     7    6    7 1    
     8    7    8 1    
     9    7    9 1    
    10    5   10 ar   
    11   10   11 ar   
    12   11   12 ar   
    13   12   13 1    
    14   12   14 ar   
    15   14   15 1    
    16   14    4 ar   
    17   11   16 1    
    18   16   17 1    
    19   16   18 1    
    20   16   19 1    
    21   19   20 1    
    22   20   21 ar   
    23   21   22 1    
    24   21   23 ar   
    25   23   24 1    
    26   23   25 ar   
    27   25   26 ar   
    28   26   27 1    
    29   26   28 ar   
    30   28   20 ar   
    31   28   29 1    
    32   25   30 1    
    33   19   31 1    
    34   31   32 1    
    35   31   33 1    
    36   31   34 1    
    37    2   35 1    
    38   35   36 1    
    39   35   37 1    
@<TRIPOS>SUBSTRUCTURE
     1 ****        1 TEMP              0 ****  ****    0 ROOT 
@<TRIPOS>SET
UNITY_3DHIT     STATIC     ATOMS    <user>   **** Atoms matching 3D or FLEX Search
0
