#	Name:			21-24
#	Creating user name:	jeff
#	Creation time:		Thu Dec  4 18:13:32 2003

#	Modifying user name:	jeff
#	Modification time:	Thu Dec  4 18:13:33 2003

@<TRIPOS>MOLECULE
21-24
   37    39     1     0     1
SMALL
USER_CHARGES
****
From 3DB ct
@<TRIPOS>ATOM
      1 N          10.157000    2.637000   12.909000 N.ar      1 <1>        -0.662700 
      2 C          10.727000    1.950000   11.921000 C.ar      1 <1>         0.795100 
      3 N          11.991000    2.106000   11.531000 N.ar      1 <1>        -0.639700 
      4 C          12.734000    3.016000   12.185000 C.ar      1 <1>         0.270200 
      5 C          12.260000    3.804000   13.236000 C.ar      1 <1>        -0.138500 
      6 C          10.919000    3.555000   13.539000 C.ar      1 <1>         0.625800 
      7 N          10.300000    4.217000   14.594000 N.pl3     1 <1>        -0.750700 
      8 H          10.634000    5.150000   14.818000 H         1 <1>         0.354300 
      9 H           9.315000    4.026000   14.741000 H         1 <1>         0.353700 
     10 N          13.030000    4.729000   13.889000 N.ar      1 <1>        -0.382100 
     11 C          14.323000    4.887000   13.503000 C.ar      1 <1>         0.385700 
     12 C          14.863000    4.143000   12.465000 C.ar      1 <1>        -0.277500 
     13 H          15.895000    4.281000   12.155000 H         1 <1>         0.145000 
     14 C          14.056000    3.209000   11.816000 C.ar      1 <1>        -0.072300 
     15 H          14.475000    2.623000   11.000000 H         1 <1>         0.127500 
     16 C          15.161000    5.930000   14.226000 C.3       1 <1>        -0.248100 
     17 H          15.449000    5.511000   15.199000 H         1 <1>         0.139100 
     18 H          14.534000    6.806000   14.438000 H         1 <1>         0.112800 
     19 N          16.346000    6.355000   13.447000 N.pl3     1 <1>        -0.280300 
     20 C          16.030000    7.117000   12.306000 C.ar      1 <1>         0.421700 
     21 C          14.742000    7.658000   12.134000 C.ar      1 <1>        -0.002200 
     22 H          13.974000    7.492000   12.885000 H         1 <1>         0.063300 
     23 C          14.429000    8.434000   11.014000 C.ar      1 <1>        -0.338900 
     24 C          15.388000    8.693000   10.040000 C.ar      1 <1>         0.021900 
     25 H          15.147000    9.296000    9.168000 H         1 <1>         0.076900 
     26 C          16.671000    8.170000   10.185000 C.ar      1 <1>         0.069400 
     27 H          17.418000    8.369000    9.420000 H         1 <1>         0.074800 
     28 C          16.991000    7.392000   11.305000 C.ar      1 <1>        -0.429100 
     29 Cl         18.595000    6.745000   11.389000 Cl        1 <1>         0.074400 
     30 Cl         12.843000    9.082000   10.841000 Cl        1 <1>         0.080500 
     31 C          17.439000    5.387000   13.316000 C.3       1 <1>        -0.136400 
     32 H          18.273000    5.810000   12.743000 H         1 <1>         0.082300 
     33 H          17.101000    4.467000   12.826000 H         1 <1>         0.076600 
     34 H          17.839000    5.121000   14.299000 H         1 <1>         0.074600 
     35 N           9.972000    1.028000   11.267000 N.pl3     1 <1>        -0.821500 
     36 H          10.376000    0.491000   10.515000 H         1 <1>         0.380000 
     37 H           9.010000    0.885000   11.539000 H         1 <1>         0.374500 
@<TRIPOS>BOND
     1    1    2 ar   
     2    2    3 ar   
     3    3    4 ar   
     4    4    5 ar   
     5    5    6 ar   
     6    6    1 ar   
     7    6    7 1    
     8    7    8 1    
     9    7    9 1    
    10    5   10 ar   
    11   10   11 ar   
    12   11   12 ar   
    13   12   13 1    
    14   12   14 ar   
    15   14   15 1    
    16   14    4 ar   
    17   11   16 1    
    18   16   17 1    
    19   16   18 1    
    20   16   19 1    
    21   19   20 1    
    22   20   21 ar   
    23   21   22 1    
    24   21   23 ar   
    25   23   24 ar   
    26   24   25 1    
    27   24   26 ar   
    28   26   27 1    
    29   26   28 ar   
    30   28   20 ar   
    31   28   29 1    
    32   23   30 1    
    33   19   31 1    
    34   31   32 1    
    35   31   33 1    
    36   31   34 1    
    37    2   35 1    
    38   35   36 1    
    39   35   37 1    
@<TRIPOS>SUBSTRUCTURE
     1 ****        1 TEMP              0 ****  ****    0 ROOT 
@<TRIPOS>SET
UNITY_3DHIT     STATIC     ATOMS    <user>   **** Atoms matching 3D or FLEX Search
0
