#	Name:			21-23
#	Creating user name:	jeff
#	Creation time:		Thu Dec  4 18:13:32 2003

#	Modifying user name:	jeff
#	Modification time:	Thu Dec  4 18:13:32 2003

@<TRIPOS>MOLECULE
21-23
   34    36     1     0     1
SMALL
USER_CHARGES
****
From 3DB ct
@<TRIPOS>ATOM
      1 N          10.162000    2.639000   12.903000 N.ar      1 <1>        -0.651300 
      2 C          10.737000    1.958000   11.914000 C.ar      1 <1>         0.777800 
      3 N          12.003000    2.117000   11.530000 N.ar      1 <1>        -0.637300 
      4 C          12.741000    3.026000   12.192000 C.ar      1 <1>         0.280200 
      5 C          12.261000    3.807000   13.246000 C.ar      1 <1>        -0.129200 
      6 C          10.919000    3.554000   13.542000 C.ar      1 <1>         0.619900 
      7 N          10.293000    4.209000   14.597000 N.pl3     1 <1>        -0.767100 
      8 H          10.624000    5.142000   14.826000 H         1 <1>         0.363200 
      9 H           9.308000    4.018000   14.736000 H         1 <1>         0.359900 
     10 N          13.027000    4.729000   13.909000 N.ar      1 <1>        -0.344900 
     11 C          14.322000    4.886000   13.531000 C.ar      1 <1>         0.235800 
     12 C          14.867000    4.155000   12.486000 C.ar      1 <1>        -0.228500 
     13 H          15.898000    4.305000   12.178000 H         1 <1>         0.146000 
     14 C          14.064000    3.224000   11.828000 C.ar      1 <1>        -0.078900 
     15 H          14.487000    2.645000   11.009000 H         1 <1>         0.123700 
     16 C          15.156000    5.930000   14.252000 C.3       1 <1>         0.047200 
     17 H          15.465000    5.530000   15.223000 H         1 <1>         0.079100 
     18 H          14.526000    6.806000   14.454000 H         1 <1>         0.067500 
     19 N          16.290000    6.330000   13.416000 N.pl3     1 <1>        -0.682400 
     20 H          16.983000    5.587000   13.312000 H         1 <1>         0.345100 
     21 C          16.026000    7.076000   12.264000 C.ar      1 <1>         0.529200 
     22 C          14.744000    7.631000   12.115000 C.ar      1 <1>        -0.003500 
     23 H          13.982000    7.437000   12.868000 H         1 <1>         0.065200 
     24 C          14.434000    8.443000   11.022000 C.ar      1 <1>        -0.357600 
     25 C          15.394000    8.724000   10.055000 C.ar      1 <1>         0.017100 
     26 H          15.157000    9.355000    9.202000 H         1 <1>         0.065300 
     27 C          16.674000    8.184000   10.181000 C.ar      1 <1>         0.127800 
     28 H          17.418000    8.396000    9.417000 H         1 <1>         0.067600 
     29 C          16.990000    7.370000   11.276000 C.ar      1 <1>        -0.532800 
     30 Cl         18.578000    6.678000   11.315000 Cl        1 <1>         0.069700 
     31 Cl         12.853000    9.109000   10.873000 Cl        1 <1>         0.085000 
     32 N           9.987000    1.037000   11.252000 N.pl3     1 <1>        -0.805900 
     33 H          10.396000    0.504000   10.499000 H         1 <1>         0.376900 
     34 H           9.024000    0.891000   11.518000 H         1 <1>         0.370200 
@<TRIPOS>BOND
     1    1    2 ar   
     2    2    3 ar   
     3    3    4 ar   
     4    4    5 ar   
     5    5    6 ar   
     6    6    1 ar   
     7    6    7 1    
     8    7    8 1    
     9    7    9 1    
    10    5   10 ar   
    11   10   11 ar   
    12   11   12 ar   
    13   12   13 1    
    14   12   14 ar   
    15   14   15 1    
    16   14    4 ar   
    17   11   16 1    
    18   16   17 1    
    19   16   18 1    
    20   16   19 1    
    21   19   20 1    
    22   19   21 1    
    23   21   22 ar   
    24   22   23 1    
    25   22   24 ar   
    26   24   25 ar   
    27   25   26 1    
    28   25   27 ar   
    29   27   28 1    
    30   27   29 ar   
    31   29   21 ar   
    32   29   30 1    
    33   24   31 1    
    34    2   32 1    
    35   32   33 1    
    36   32   34 1    
@<TRIPOS>SUBSTRUCTURE
     1 ****        1 TEMP              0 ****  ****    0 ROOT 
@<TRIPOS>SET
UNITY_3DHIT     STATIC     ATOMS    <user>   **** Atoms matching 3D or FLEX Search
0
