#	Name:			21-21
#	Creating user name:	jeff
#	Creation time:		Thu Dec  4 18:13:32 2003

#	Modifying user name:	jeff
#	Modification time:	Thu Dec  4 18:13:32 2003

@<TRIPOS>MOLECULE
21-21
   34    36     1     0     1
SMALL
USER_CHARGES
****
From 3DB ct
@<TRIPOS>ATOM
      1 N          10.164000    2.631000   12.909000 N.ar      1 <1>        -0.652400 
      2 C          10.737000    1.956000   11.915000 C.ar      1 <1>         0.781300 
      3 N          12.003000    2.117000   11.530000 N.ar      1 <1>        -0.631100 
      4 C          12.741000    3.025000   12.193000 C.ar      1 <1>         0.254700 
      5 C          12.264000    3.798000   13.254000 C.ar      1 <1>        -0.101300 
      6 C          10.930000    3.526000   13.567000 C.ar      1 <1>         0.608000 
      7 N          10.280000    4.240000   14.567000 N.pl3     1 <1>        -0.747100 
      8 H          10.847000    4.590000   15.334000 H         1 <1>         0.355500 
      9 H           9.326000    3.970000   14.779000 H         1 <1>         0.353100 
     10 N          13.031000    4.718000   13.919000 N.ar      1 <1>        -0.378100 
     11 C          14.321000    4.886000   13.531000 C.ar      1 <1>         0.271400 
     12 C          14.863000    4.162000   12.480000 C.ar      1 <1>        -0.242600 
     13 H          15.892000    4.319000   12.167000 H         1 <1>         0.146900 
     14 C          14.060000    3.231000   11.821000 C.ar      1 <1>        -0.065300 
     15 H          14.481000    2.659000   10.997000 H         1 <1>         0.123800 
     16 C          15.158000    5.928000   14.253000 C.3       1 <1>         0.021900 
     17 H          15.469000    5.520000   15.220000 H         1 <1>         0.084000 
     18 H          14.532000    6.804000   14.463000 H         1 <1>         0.069800 
     19 N          16.289000    6.333000   13.415000 N.pl3     1 <1>        -0.694700 
     20 H          16.988000    5.596000   13.313000 H         1 <1>         0.338200 
     21 C          16.028000    7.080000   12.264000 C.ar      1 <1>         0.772800 
     22 C          14.746000    7.633000   12.114000 C.ar      1 <1>        -0.455100 
     23 H          13.978000    7.444000   12.863000 H         1 <1>         0.162400 
     24 C          14.429000    8.445000   11.021000 C.ar      1 <1>         0.310900 
     25 H          13.427000    8.860000   10.934000 H         1 <1>         0.045200 
     26 C          15.397000    8.718000   10.060000 C.ar      1 <1>        -0.626100 
     27 C          16.676000    8.185000   10.179000 C.ar      1 <1>         0.539300 
     28 H          17.425000    8.391000    9.419000 H         1 <1>        -0.008100 
     29 C          16.990000    7.372000   11.274000 C.ar      1 <1>        -0.756600 
     30 Cl         18.578000    6.678000   11.311000 Cl        1 <1>         0.089700 
     31 Cl         15.007000    9.716000    8.713000 Cl        1 <1>         0.090400 
     32 N           9.983000    1.044000   11.246000 N.pl3     1 <1>        -0.809600 
     33 H          10.390000    0.517000   10.487000 H         1 <1>         0.377400 
     34 H           9.020000    0.899000   11.511000 H         1 <1>         0.371500 
@<TRIPOS>BOND
     1    1    2 ar   
     2    2    3 ar   
     3    3    4 ar   
     4    4    5 ar   
     5    5    6 ar   
     6    6    1 ar   
     7    6    7 1    
     8    7    8 1    
     9    7    9 1    
    10    5   10 ar   
    11   10   11 ar   
    12   11   12 ar   
    13   12   13 1    
    14   12   14 ar   
    15   14   15 1    
    16   14    4 ar   
    17   11   16 1    
    18   16   17 1    
    19   16   18 1    
    20   16   19 1    
    21   19   20 1    
    22   19   21 1    
    23   21   22 ar   
    24   22   23 1    
    25   22   24 ar   
    26   24   25 1    
    27   24   26 ar   
    28   26   27 ar   
    29   27   28 1    
    30   27   29 ar   
    31   29   21 ar   
    32   29   30 1    
    33   26   31 1    
    34    2   32 1    
    35   32   33 1    
    36   32   34 1    
@<TRIPOS>SUBSTRUCTURE
     1 ****        1 TEMP              0 ****  ****    0 ROOT 
@<TRIPOS>SET
UNITY_3DHIT     STATIC     ATOMS    <user>   **** Atoms matching 3D or FLEX Search
0
