#	Name:			21-3
#	Creating user name:	jeff
#	Creation time:		Thu Dec  4 18:13:33 2003

#	Modifying user name:	jeff
#	Modification time:	Thu Dec  4 18:13:33 2003

@<TRIPOS>MOLECULE
21-3
   33    35     1     0     1
SMALL
USER_CHARGES
****
From 3DB ct
@<TRIPOS>ATOM
      1 N          10.129000    2.604000   12.877000 N.ar      1 <1>        -0.645100 
      2 C          10.723000    1.949000   11.881000 C.ar      1 <1>         0.780000 
      3 N          11.995000    2.123000   11.522000 N.ar      1 <1>        -0.636000 
      4 C          12.717000    3.021000   12.215000 C.ar      1 <1>         0.260700 
      5 C          12.218000    3.772000   13.282000 C.ar      1 <1>        -0.094900 
      6 C          10.880000    3.488000   13.566000 C.ar      1 <1>         0.590000 
      7 N          10.209000    4.181000   14.568000 N.pl3     1 <1>        -0.741200 
      8 H          10.761000    4.516000   15.352000 H         1 <1>         0.356700 
      9 H           9.252000    3.903000   14.757000 H         1 <1>         0.350100 
     10 N          12.970000    4.682000   13.977000 N.ar      1 <1>        -0.379600 
     11 C          14.263000    4.869000   13.613000 C.ar      1 <1>         0.314200 
     12 C          14.829000    4.161000   12.563000 C.ar      1 <1>        -0.261700 
     13 H          15.865000    4.318000   12.274000 H         1 <1>         0.153600 
     14 C          14.042000    3.238000   11.873000 C.ar      1 <1>        -0.061200 
     15 H          14.481000    2.681000   11.048000 H         1 <1>         0.121500 
     16 C          15.073000    5.893000   14.376000 C.3       1 <1>        -0.230800 
     17 H          15.238000    5.543000   15.401000 H         1 <1>         0.118700 
     18 H          14.505000    6.827000   14.430000 H         1 <1>         0.093200 
     19 S          16.684000    6.210000   13.560000 S.3       1 <1>        -0.041800 
     20 C          16.137000    7.204000   12.184000 C.ar      1 <1>        -0.069600 
     21 C          14.822000    7.674000   12.094000 C.ar      1 <1>        -0.038000 
     22 H          14.092000    7.445000   12.868000 H         1 <1>         0.101400 
     23 C          14.419000    8.438000   10.996000 C.ar      1 <1>        -0.141800 
     24 H          13.395000    8.802000   10.934000 H         1 <1>         0.106500 
     25 C          15.325000    8.730000    9.978000 C.ar      1 <1>        -0.053300 
     26 H          15.010000    9.325000    9.122000 H         1 <1>         0.095900 
     27 C          16.632000    8.255000   10.054000 C.ar      1 <1>        -0.154200 
     28 H          17.340000    8.477000    9.257000 H         1 <1>         0.113200 
     29 C          17.036000    7.490000   11.151000 C.ar      1 <1>        -0.049600 
     30 H          18.061000    7.126000   11.191000 H         1 <1>         0.106800 
     31 N           9.986000    1.046000   11.181000 N.pl3     1 <1>        -0.810900 
     32 H          10.410000    0.535000   10.421000 H         1 <1>         0.377600 
     33 H           9.020000    0.891000   11.427000 H         1 <1>         0.369600 
@<TRIPOS>BOND
     1    1    2 ar   
     2    2    3 ar   
     3    3    4 ar   
     4    4    5 ar   
     5    5    6 ar   
     6    6    1 ar   
     7    6    7 1    
     8    7    8 1    
     9    7    9 1    
    10    5   10 ar   
    11   10   11 ar   
    12   11   12 ar   
    13   12   13 1    
    14   12   14 ar   
    15   14   15 1    
    16   14    4 ar   
    17   11   16 1    
    18   16   17 1    
    19   16   18 1    
    20   16   19 1    
    21   19   20 1    
    22   20   21 ar   
    23   21   22 1    
    24   21   23 ar   
    25   23   24 1    
    26   23   25 ar   
    27   25   26 1    
    28   25   27 ar   
    29   27   28 1    
    30   27   29 ar   
    31   29   30 1    
    32   29   20 ar   
    33    2   31 1    
    34   31   32 1    
    35   31   33 1    
@<TRIPOS>SUBSTRUCTURE
     1 ****        1 TEMP              0 ****  ****    0 ROOT 
@<TRIPOS>SET
UNITY_3DHIT     STATIC     ATOMS    <user>   **** Atoms matching 3D or FLEX Search
0
