#	Name:			21-38
#	Creating user name:	jeff
#	Creation time:		Thu Dec  4 18:13:33 2003

#	Modifying user name:	jeff
#	Modification time:	Thu Dec  4 18:13:33 2003

@<TRIPOS>MOLECULE
21-38
   43    46     1     0     1
SMALL
USER_CHARGES
****
From 3DB ct
@<TRIPOS>ATOM
      1 N          10.162000    2.632000   12.917000 N.ar      1 <1>        -0.666700 
      2 C          10.728000    1.950000   11.923000 C.ar      1 <1>         0.793400 
      3 N          11.992000    2.106000   11.531000 N.ar      1 <1>        -0.631500 
      4 C          12.736000    3.017000   12.184000 C.ar      1 <1>         0.217000 
      5 C          12.266000    3.797000   13.242000 C.ar      1 <1>        -0.097800 
      6 C          10.933000    3.530000   13.565000 C.ar      1 <1>         0.634100 
      7 N          10.290000    4.251000   14.565000 N.pl3     1 <1>        -0.771700 
      8 H          10.864000    4.609000   15.322000 H         1 <1>         0.362700 
      9 H           9.338000    3.985000   14.785000 H         1 <1>         0.358500 
     10 N          13.039000    4.717000   13.898000 N.ar      1 <1>        -0.417100 
     11 C          14.326000    4.890000   13.499000 C.ar      1 <1>         0.411800 
     12 C          14.863000    4.151000   12.455000 C.ar      1 <1>        -0.303700 
     13 H          15.893000    4.292000   12.137000 H         1 <1>         0.149600 
     14 C          14.054000    3.216000   11.807000 C.ar      1 <1>        -0.027300 
     15 H          14.471000    2.635000   10.987000 H         1 <1>         0.117700 
     16 C          15.172000    5.926000   14.226000 C.3       1 <1>        -0.202200 
     17 H          15.499000    5.536000   15.199000 H         1 <1>         0.096600 
     18 H          14.511000    6.776000   14.441000 H         1 <1>         0.095000 
     19 N          16.348000    6.357000   13.437000 N.pl3     1 <1>        -0.189300 
     20 C          16.017000    7.116000   12.298000 C.ar      1 <1>         0.089000 
     21 C          14.739000    7.689000   12.174000 C.ar      1 <1>        -0.107700 
     22 H          13.995000    7.561000   12.958000 H         1 <1>         0.103000 
     23 C          14.381000    8.413000   11.038000 C.ar      1 <1>        -0.104500 
     24 H          13.385000    8.845000   10.960000 H         1 <1>         0.112800 
     25 C          15.295000    8.576000   10.001000 C.ar      1 <1>        -0.215400 
     26 H          14.993000    9.144000    9.121000 H         1 <1>         0.130700 
     27 C          16.580000    8.023000   10.085000 C.ar      1 <1>         0.158300 
     28 C          16.957000    7.286000   11.238000 C.ar      1 <1>        -0.059300 
     29 C          18.271000    6.765000   11.280000 C.ar      1 <1>        -0.041100 
     30 H          18.609000    6.207000   12.153000 H         1 <1>         0.078700 
     31 C          19.170000    6.949000   10.226000 C.ar      1 <1>        -0.160800 
     32 H          20.174000    6.533000   10.290000 H         1 <1>         0.113200 
     33 C          18.780000    7.664000    9.102000 C.ar      1 <1>        -0.043500 
     34 H          19.477000    7.811000    8.279000 H         1 <1>         0.094600 
     35 C          17.495000    8.199000    9.033000 C.ar      1 <1>        -0.220600 
     36 H          17.211000    8.761000    8.143000 H         1 <1>         0.124800 
     37 C          17.591000    6.015000   13.837000 C.3       1 <1>        -0.066500 
     38 H          17.530000    5.426000   14.752000 H         1 <1>         0.036700 
     39 H          18.075000    5.426000   13.057000 H         1 <1>         0.058200 
     40 H          18.174000    6.917000   14.024000 H         1 <1>         0.060800 
     41 N           9.969000    1.035000   11.264000 N.pl3     1 <1>        -0.820200 
     42 H          10.370000    0.503000   10.507000 H         1 <1>         0.376900 
     43 H           9.007000    0.893000   11.536000 H         1 <1>         0.373100 
@<TRIPOS>BOND
     1    1    2 ar   
     2    2    3 ar   
     3    3    4 ar   
     4    4    5 ar   
     5    5    6 ar   
     6    6    1 ar   
     7    6    7 1    
     8    7    8 1    
     9    7    9 1    
    10    5   10 ar   
    11   10   11 ar   
    12   11   12 ar   
    13   12   13 1    
    14   12   14 ar   
    15   14   15 1    
    16   14    4 ar   
    17   11   16 1    
    18   16   17 1    
    19   16   18 1    
    20   16   19 1    
    21   19   20 1    
    22   20   21 ar   
    23   21   22 1    
    24   21   23 ar   
    25   23   24 1    
    26   23   25 ar   
    27   25   26 1    
    28   25   27 ar   
    29   27   28 ar   
    30   28   20 ar   
    31   28   29 ar   
    32   29   30 1    
    33   29   31 ar   
    34   31   32 1    
    35   31   33 ar   
    36   33   34 1    
    37   33   35 ar   
    38   35   36 1    
    39   35   27 ar   
    40   19   37 1    
    41   37   38 1    
    42   37   39 1    
    43   37   40 1    
    44    2   41 1    
    45   41   42 1    
    46   41   43 1    
@<TRIPOS>SUBSTRUCTURE
     1 ****        1 TEMP              0 ****  ****    0 ROOT 
@<TRIPOS>SET
UNITY_3DHIT     STATIC     ATOMS    <user>   **** Atoms matching 3D or FLEX Search
0
