#	Name:			21-34
#	Creating user name:	jeff
#	Creation time:		Thu Dec  4 18:13:33 2003

#	Modifying user name:	jeff
#	Modification time:	Thu Dec  4 18:13:33 2003

@<TRIPOS>MOLECULE
21-34
   39    42     1     0     1
SMALL
USER_CHARGES
****
From 3DB ct
@<TRIPOS>ATOM
      1 N          10.129000    2.594000   12.878000 N.ar      1 <1>        -0.658000 
      2 C          10.733000    1.925000   11.898000 C.ar      1 <1>         0.772000 
      3 N          12.000000    2.111000   11.531000 N.ar      1 <1>        -0.628200 
      4 C          12.710000    3.034000   12.204000 C.ar      1 <1>         0.254600 
      5 C          12.200000    3.804000   13.251000 C.ar      1 <1>        -0.128900 
      6 C          10.859000    3.524000   13.527000 C.ar      1 <1>         0.643000 
      7 N          10.206000    4.167000   14.573000 N.pl3     1 <1>        -0.788500 
      8 H          10.514000    5.107000   14.806000 H         1 <1>         0.368200 
      9 H           9.222000    3.956000   14.698000 H         1 <1>         0.361700 
     10 N          12.940000    4.738000   13.926000 N.ar      1 <1>        -0.354100 
     11 C          14.234000    4.927000   13.565000 C.ar      1 <1>         0.311900 
     12 C          14.811000    4.201000   12.533000 C.ar      1 <1>        -0.279000 
     13 H          15.849000    4.355000   12.250000 H         1 <1>         0.162600 
     14 C          14.035000    3.256000   11.861000 C.ar      1 <1>        -0.047300 
     15 H          14.483000    2.681000   11.053000 H         1 <1>         0.116700 
     16 C          15.044000    5.942000   14.338000 C.3       1 <1>        -0.242800 
     17 H          15.164000    5.595000   15.371000 H         1 <1>         0.124100 
     18 H          14.504000    6.895000   14.372000 H         1 <1>         0.088500 
     19 S          16.700000    6.182000   13.596000 S.3       1 <1>        -0.029900 
     20 C          16.213000    7.165000   12.171000 C.ar      1 <1>        -0.078600 
     21 C          14.887000    7.621000   12.157000 C.ar      1 <1>        -0.143700 
     22 H          14.206000    7.382000   12.973000 H         1 <1>         0.136100 
     23 C          14.414000    8.385000   11.095000 C.ar      1 <1>        -0.047400 
     24 H          13.383000    8.732000   11.089000 H         1 <1>         0.095200 
     25 C          15.264000    8.704000   10.040000 C.ar      1 <1>        -0.202000 
     26 H          14.872000    9.302000    9.217000 H         1 <1>         0.129300 
     27 C          16.599000    8.271000   10.031000 C.ar      1 <1>         0.106500 
     28 C          17.100000    7.493000   11.107000 C.ar      1 <1>         0.089700 
     29 C          18.460000    7.096000   11.046000 C.ar      1 <1>        -0.107800 
     30 H          18.905000    6.507000   11.846000 H         1 <1>         0.095400 
     31 C          19.280000    7.443000    9.970000 C.ar      1 <1>        -0.134700 
     32 H          20.320000    7.121000    9.953000 H         1 <1>         0.118700 
     33 C          18.768000    8.199000    8.925000 C.ar      1 <1>        -0.069400 
     34 H          19.404000    8.472000    8.084000 H         1 <1>         0.104100 
     35 C          17.437000    8.611000    8.957000 C.ar      1 <1>        -0.208900 
     36 H          17.057000    9.207000    8.127000 H         1 <1>         0.131300 
     37 N          10.011000    0.988000   11.227000 N.pl3     1 <1>        -0.802400 
     38 H          10.443000    0.462000   10.482000 H         1 <1>         0.374600 
     39 H           9.049000    0.819000   11.483000 H         1 <1>         0.367500 
@<TRIPOS>BOND
     1    1    2 ar   
     2    2    3 ar   
     3    3    4 ar   
     4    4    5 ar   
     5    5    6 ar   
     6    6    1 ar   
     7    6    7 1    
     8    7    8 1    
     9    7    9 1    
    10    5   10 ar   
    11   10   11 ar   
    12   11   12 ar   
    13   12   13 1    
    14   12   14 ar   
    15   14   15 1    
    16   14    4 ar   
    17   11   16 1    
    18   16   17 1    
    19   16   18 1    
    20   16   19 1    
    21   19   20 1    
    22   20   21 ar   
    23   21   22 1    
    24   21   23 ar   
    25   23   24 1    
    26   23   25 ar   
    27   25   26 1    
    28   25   27 ar   
    29   27   28 ar   
    30   28   20 ar   
    31   28   29 ar   
    32   29   30 1    
    33   29   31 ar   
    34   31   32 1    
    35   31   33 ar   
    36   33   34 1    
    37   33   35 ar   
    38   35   36 1    
    39   35   27 ar   
    40    2   37 1    
    41   37   38 1    
    42   37   39 1    
@<TRIPOS>SUBSTRUCTURE
     1 ****        1 TEMP              0 ****  ****    0 ROOT 
@<TRIPOS>SET
UNITY_3DHIT     STATIC     ATOMS    <user>   **** Atoms matching 3D or FLEX Search
0
