#	Name:			21-36
#	Creating user name:	jeff
#	Creation time:		Thu Dec  4 18:13:33 2003

#	Modifying user name:	jeff
#	Modification time:	Thu Dec  4 18:13:33 2003

@<TRIPOS>MOLECULE
21-36
   40    43     1     0     1
SMALL
USER_CHARGES
****
From 3DB ct
@<TRIPOS>ATOM
      1 N          10.156000    2.644000   12.906000 N.ar      1 <1>        -0.667200 
      2 C          10.721000    1.974000   11.903000 C.ar      1 <1>         0.795500 
      3 N          11.989000    2.121000   11.522000 N.ar      1 <1>        -0.634900 
      4 C          12.740000    3.008000   12.199000 C.ar      1 <1>         0.247400 
      5 C          12.274000    3.773000   13.270000 C.ar      1 <1>        -0.127600 
      6 C          10.935000    3.517000   13.578000 C.ar      1 <1>         0.636200 
      7 N          10.295000    4.227000   14.588000 N.pl3     1 <1>        -0.761400 
      8 H          10.867000    4.555000   15.360000 H         1 <1>         0.357800 
      9 H           9.337000    3.968000   14.795000 H         1 <1>         0.355900 
     10 N          13.055000    4.671000   13.949000 N.ar      1 <1>        -0.378200 
     11 C          14.348000    4.825000   13.566000 C.ar      1 <1>         0.340300 
     12 C          14.880000    4.107000   12.505000 C.ar      1 <1>        -0.245400 
     13 H          15.912000    4.249000   12.196000 H         1 <1>         0.136900 
     14 C          14.063000    3.197000   11.832000 C.ar      1 <1>        -0.063700 
     15 H          14.476000    2.630000   11.001000 H         1 <1>         0.124100 
     16 C          15.202000    5.845000   14.302000 C.3       1 <1>        -0.108600 
     17 H          15.655000    5.353000   15.171000 H         1 <1>         0.079600 
     18 H          14.554000    6.650000   14.668000 H         1 <1>         0.088500 
     19 N          16.227000    6.392000   13.419000 N.pl3     1 <1>        -0.418500 
     20 H          17.156000    5.998000   13.542000 H         1 <1>         0.293400 
     21 C          15.968000    7.139000   12.275000 C.ar      1 <1>         0.173400 
     22 C          14.706000    7.720000   12.064000 C.ar      1 <1>        -0.190200 
     23 H          13.893000    7.572000   12.773000 H         1 <1>         0.116700 
     24 C          14.434000    8.492000   10.936000 C.ar      1 <1>        -0.048600 
     25 H          13.442000    8.919000   10.795000 H         1 <1>         0.108500 
     26 C          15.428000    8.717000    9.993000 C.ar      1 <1>        -0.288400 
     27 H          15.194000    9.323000    9.119000 H         1 <1>         0.134000 
     28 C          16.710000    8.183000   10.169000 C.ar      1 <1>         0.206100 
     29 C          17.002000    7.394000   11.316000 C.ar      1 <1>        -0.092100 
     30 C          18.328000    6.908000   11.435000 C.ar      1 <1>        -0.110100 
     31 H          18.629000    6.312000   12.294000 H         1 <1>         0.085400 
     32 C          19.307000    7.173000   10.471000 C.ar      1 <1>        -0.118000 
     33 H          20.314000    6.780000   10.599000 H         1 <1>         0.103200 
     34 C          18.993000    7.936000    9.357000 C.ar      1 <1>        -0.071200 
     35 H          19.751000    8.144000    8.604000 H         1 <1>         0.100900 
     36 C          17.703000    8.439000    9.208000 C.ar      1 <1>        -0.214800 
     37 H          17.477000    9.041000    8.328000 H         1 <1>         0.124700 
     38 N           9.954000    1.083000   11.220000 N.pl3     1 <1>        -0.821200 
     39 H          10.354000    0.561000   10.454000 H         1 <1>         0.378000 
     40 H           8.989000    0.948000   11.482000 H         1 <1>         0.373700 
@<TRIPOS>BOND
     1    1    2 ar   
     2    2    3 ar   
     3    3    4 ar   
     4    4    5 ar   
     5    5    6 ar   
     6    6    1 ar   
     7    6    7 1    
     8    7    8 1    
     9    7    9 1    
    10    5   10 ar   
    11   10   11 ar   
    12   11   12 ar   
    13   12   13 1    
    14   12   14 ar   
    15   14   15 1    
    16   14    4 ar   
    17   11   16 1    
    18   16   17 1    
    19   16   18 1    
    20   16   19 1    
    21   19   20 1    
    22   19   21 1    
    23   21   22 ar   
    24   22   23 1    
    25   22   24 ar   
    26   24   25 1    
    27   24   26 ar   
    28   26   27 1    
    29   26   28 ar   
    30   28   29 ar   
    31   29   21 ar   
    32   29   30 ar   
    33   30   31 1    
    34   30   32 ar   
    35   32   33 1    
    36   32   34 ar   
    37   34   35 1    
    38   34   36 ar   
    39   36   37 1    
    40   36   28 ar   
    41    2   38 1    
    42   38   39 1    
    43   38   40 1    
@<TRIPOS>SUBSTRUCTURE
     1 ****        1 TEMP              0 ****  ****    0 ROOT 
@<TRIPOS>SET
UNITY_3DHIT     STATIC     ATOMS    <user>   **** Atoms matching 3D or FLEX Search
0
