#	Name:			21-44
#	Creating user name:	jeff
#	Creation time:		Thu Dec  4 18:13:33 2003

#	Modifying user name:	jeff
#	Modification time:	Thu Dec  4 18:13:33 2003

@<TRIPOS>MOLECULE
21-44
   41    43     1     0     1
SMALL
USER_CHARGES
****
From 3DB ct
@<TRIPOS>ATOM
      1 N          10.149000    2.644000   12.905000 N.ar      1 <1>        -0.664500 
      2 C          10.709000    1.972000   11.902000 C.ar      1 <1>         0.799600 
      3 N          11.979000    2.110000   11.524000 N.ar      1 <1>        -0.639300 
      4 C          12.735000    2.991000   12.202000 C.ar      1 <1>         0.267600 
      5 C          12.275000    3.757000   13.275000 C.ar      1 <1>        -0.146600 
      6 C          10.933000    3.511000   13.580000 C.ar      1 <1>         0.638100 
      7 N          10.294000    4.232000   14.583000 N.pl3     1 <1>        -0.754200 
      8 H          10.862000    4.556000   15.360000 H         1 <1>         0.355900 
      9 H           9.332000    3.982000   14.785000 H         1 <1>         0.353800 
     10 N          13.063000    4.652000   13.951000 N.ar      1 <1>        -0.355000 
     11 C          14.355000    4.810000   13.561000 C.ar      1 <1>         0.316900 
     12 C          14.875000    4.091000   12.494000 C.ar      1 <1>        -0.273800 
     13 H          15.903000    4.226000   12.171000 H         1 <1>         0.156100 
     14 C          14.055000    3.179000   11.829000 C.ar      1 <1>        -0.058000 
     15 H          14.463000    2.612000   10.996000 H         1 <1>         0.123900 
     16 C          15.197000    5.845000   14.296000 C.3       1 <1>        -0.142100 
     17 H          15.620000    5.408000   15.209000 H         1 <1>         0.117200 
     18 H          14.509000    6.626000   14.648000 H         1 <1>         0.091900 
     19 N          16.267000    6.431000   13.465000 N.pl3     1 <1>        -0.149500 
     20 C          16.001000    7.175000   12.304000 C.ar      1 <1>         0.249000 
     21 C          14.729000    7.729000   12.061000 C.ar      1 <1>        -0.115000 
     22 H          13.914000    7.582000   12.769000 H         1 <1>         0.107900 
     23 C          14.441000    8.490000   10.915000 C.ar      1 <1>        -0.180400 
     24 H          13.428000    8.873000   10.809000 H         1 <1>         0.152200 
     25 C          15.429000    8.727000    9.960000 C.ar      1 <1>        -0.066700 
     26 C          16.697000    8.176000   10.169000 C.ar      1 <1>         0.000200 
     27 H          17.496000    8.330000    9.445000 H         1 <1>         0.128400 
     28 C          16.973000    7.418000   11.320000 C.ar      1 <1>        -0.278300 
     29 H          17.984000    7.029000   11.412000 H         1 <1>         0.137800 
     30 C          15.191000    9.542000    8.730000 C.2       1 <1>         0.153600 
     31 O          16.162000    9.862000    8.029000 O.2       1 <1>        -0.280200 
     32 C          13.758000    9.932000    8.395000 C.3       1 <1>         1.021900 
     33 F          13.682000   10.841000    7.372000 F         1 <1>        -0.333900 
     34 F          13.090000   10.505000    9.442000 F         1 <1>        -0.327800 
     35 F          12.995000    8.869000    7.995000 F         1 <1>        -0.326600 
     36 C          17.560000    6.178000   13.880000 C.1       1 <1>         0.011600 
     37 C          18.678000    5.956000   14.258000 C.1       1 <1>        -0.323600 
     38 H          19.671000    5.765000   14.595000 H         1 <1>         0.296100 
     39 N           9.935000    1.091000   11.214000 N.pl3     1 <1>        -0.818400 
     40 H          10.328000    0.575000   10.441000 H         1 <1>         0.379500 
     41 H           8.966000    0.973000   11.470000 H         1 <1>         0.374900 
@<TRIPOS>BOND
     1    1    2 ar   
     2    2    3 ar   
     3    3    4 ar   
     4    4    5 ar   
     5    5    6 ar   
     6    6    1 ar   
     7    6    7 1    
     8    7    8 1    
     9    7    9 1    
    10    5   10 ar   
    11   10   11 ar   
    12   11   12 ar   
    13   12   13 1    
    14   12   14 ar   
    15   14   15 1    
    16   14    4 ar   
    17   11   16 1    
    18   16   17 1    
    19   16   18 1    
    20   16   19 1    
    21   19   20 1    
    22   20   21 ar   
    23   21   22 1    
    24   21   23 ar   
    25   23   24 1    
    26   23   25 ar   
    27   25   26 ar   
    28   26   27 1    
    29   26   28 ar   
    30   28   29 1    
    31   28   20 ar   
    32   25   30 1    
    33   30   31 2    
    34   30   32 1    
    35   32   33 1    
    36   32   34 1    
    37   32   35 1    
    38   19   36 1    
    39   36   37 3    
    40   37   38 1    
    41    2   39 1    
    42   39   40 1    
    43   39   41 1    
@<TRIPOS>SUBSTRUCTURE
     1 ****        1 TEMP              0 ****  ****    0 ROOT 
@<TRIPOS>SET
UNITY_3DHIT     STATIC     ATOMS    <user>   **** Atoms matching 3D or FLEX Search
0
