#	Name:			21-4
#	Creating user name:	jeff
#	Creation time:		Thu Dec  4 18:13:33 2003

#	Modifying user name:	jeff
#	Modification time:	Thu Dec  4 18:13:33 2003

@<TRIPOS>MOLECULE
21-4
   34    36     1     0     1
SMALL
USER_CHARGES
****
From 3DB ct
@<TRIPOS>ATOM
      1 N          10.154000    2.637000   12.907000 N.ar      1 <1>        -0.660200 
      2 C          10.721000    1.966000   11.906000 C.ar      1 <1>         0.788000 
      3 N          11.989000    2.117000   11.524000 N.ar      1 <1>        -0.632600 
      4 C          12.736000    3.011000   12.197000 C.ar      1 <1>         0.245700 
      5 C          12.267000    3.778000   13.265000 C.ar      1 <1>        -0.109600 
      6 C          10.929000    3.516000   13.575000 C.ar      1 <1>         0.619800 
      7 N          10.285000    4.226000   14.582000 N.pl3     1 <1>        -0.753700 
      8 H          10.856000    4.556000   15.356000 H         1 <1>         0.356600 
      9 H           9.329000    3.963000   14.789000 H         1 <1>         0.354500 
     10 N          13.044000    4.683000   13.939000 N.ar      1 <1>        -0.380500 
     11 C          14.337000    4.847000   13.548000 C.ar      1 <1>         0.311100 
     12 C          14.873000    4.119000   12.496000 C.ar      1 <1>        -0.248500 
     13 H          15.908000    4.254000   12.191000 H         1 <1>         0.142000 
     14 C          14.059000    3.204000   11.829000 C.ar      1 <1>        -0.062500 
     15 H          14.474000    2.630000   11.003000 H         1 <1>         0.122400 
     16 C          15.214000    5.851000   14.289000 C.3       1 <1>        -0.038400 
     17 H          15.683000    5.339000   15.137000 H         1 <1>         0.071800 
     18 H          14.573000    6.658000   14.662000 H         1 <1>         0.079300 
     19 N          16.242000    6.398000   13.412000 N.pl3     1 <1>        -0.524200 
     20 H          17.198000    6.179000   13.694000 H         1 <1>         0.308200 
     21 C          16.008000    7.151000   12.284000 C.ar      1 <1>         0.307800 
     22 C          14.734000    7.700000   12.084000 C.ar      1 <1>        -0.199500 
     23 H          13.947000    7.529000   12.817000 H         1 <1>         0.114100 
     24 C          14.440000    8.473000   10.956000 C.ar      1 <1>        -0.059500 
     25 H          13.441000    8.886000   10.827000 H         1 <1>         0.103400 
     26 C          15.423000    8.710000   10.001000 C.ar      1 <1>        -0.188900 
     27 H          15.198000    9.310000    9.121000 H         1 <1>         0.105800 
     28 C          16.694000    8.174000   10.178000 C.ar      1 <1>        -0.000300 
     29 H          17.470000    8.355000    9.435000 H         1 <1>         0.091700 
     30 C          16.981000    7.402000   11.310000 C.ar      1 <1>        -0.316500 
     31 H          17.988000    7.003000   11.410000 H         1 <1>         0.120500 
     32 N           9.959000    1.068000   11.228000 N.pl3     1 <1>        -0.816800 
     33 H          10.360000    0.545000   10.464000 H         1 <1>         0.377000 
     34 H           8.994000    0.930000   11.491000 H         1 <1>         0.372300 
@<TRIPOS>BOND
     1    1    2 ar   
     2    2    3 ar   
     3    3    4 ar   
     4    4    5 ar   
     5    5    6 ar   
     6    6    1 ar   
     7    6    7 1    
     8    7    8 1    
     9    7    9 1    
    10    5   10 ar   
    11   10   11 ar   
    12   11   12 ar   
    13   12   13 1    
    14   12   14 ar   
    15   14   15 1    
    16   14    4 ar   
    17   11   16 1    
    18   16   17 1    
    19   16   18 1    
    20   16   19 1    
    21   19   20 1    
    22   19   21 1    
    23   21   22 ar   
    24   22   23 1    
    25   22   24 ar   
    26   24   25 1    
    27   24   26 ar   
    28   26   27 1    
    29   26   28 ar   
    30   28   29 1    
    31   28   30 ar   
    32   30   31 1    
    33   30   21 ar   
    34    2   32 1    
    35   32   33 1    
    36   32   34 1    
@<TRIPOS>SUBSTRUCTURE
     1 ****        1 TEMP              0 ****  ****    0 ROOT 
@<TRIPOS>SET
UNITY_3DHIT     STATIC     ATOMS    <user>   **** Atoms matching 3D or FLEX Search
0
