#	Name:			21-41
#	Creating user name:	jeff
#	Creation time:		Thu Dec  4 18:13:33 2003

#	Modifying user name:	jeff
#	Modification time:	Thu Dec  4 18:13:33 2003

@<TRIPOS>MOLECULE
21-41
   42    44     1     0     1
SMALL
USER_CHARGES
****
From 3DB ct
@<TRIPOS>ATOM
      1 N          10.149000    2.643000   12.907000 N.ar      1 <1>        -0.666500 
      2 C          10.709000    1.975000   11.900000 C.ar      1 <1>         0.795400 
      3 N          11.980000    2.112000   11.523000 N.ar      1 <1>        -0.635700 
      4 C          12.735000    2.994000   12.201000 C.ar      1 <1>         0.252500 
      5 C          12.272000    3.766000   13.268000 C.ar      1 <1>        -0.137300 
      6 C          10.932000    3.511000   13.581000 C.ar      1 <1>         0.640900 
      7 N          10.300000    4.215000   14.599000 N.pl3     1 <1>        -0.761000 
      8 H          10.880000    4.541000   15.369000 H         1 <1>         0.357900 
      9 H           9.343000    3.959000   14.816000 H         1 <1>         0.354600 
     10 N          13.057000    4.666000   13.939000 N.ar      1 <1>        -0.374500 
     11 C          14.351000    4.822000   13.550000 C.ar      1 <1>         0.359800 
     12 C          14.882000    4.082000   12.505000 C.ar      1 <1>        -0.294500 
     13 H          15.916000    4.208000   12.196000 H         1 <1>         0.157700 
     14 C          14.060000    3.171000   11.839000 C.ar      1 <1>        -0.047500 
     15 H          14.471000    2.592000   11.015000 H         1 <1>         0.121200 
     16 C          15.202000    5.837000   14.303000 C.3       1 <1>        -0.168800 
     17 H          15.583000    5.372000   15.216000 H         1 <1>         0.103000 
     18 H          14.550000    6.647000   14.657000 H         1 <1>         0.094100 
     19 N          16.258000    6.430000   13.453000 N.pl3     1 <1>        -0.206300 
     20 C          15.998000    7.170000   12.308000 C.ar      1 <1>         0.221300 
     21 C          14.729000    7.729000   12.057000 C.ar      1 <1>        -0.208200 
     22 H          13.911000    7.599000   12.765000 H         1 <1>         0.110200 
     23 C          14.443000    8.492000   10.911000 C.ar      1 <1>        -0.034400 
     24 H          13.438000    8.893000   10.800000 H         1 <1>         0.106300 
     25 C          15.433000    8.728000    9.961000 C.ar      1 <1>        -0.221100 
     26 C          16.697000    8.179000   10.174000 C.ar      1 <1>        -0.011100 
     27 H          17.500000    8.339000    9.454000 H         1 <1>         0.119500 
     28 C          16.966000    7.412000   11.322000 C.ar      1 <1>        -0.246700 
     29 H          17.972000    7.006000   11.397000 H         1 <1>         0.115800 
     30 C          15.194000    9.551000    8.735000 C.2       1 <1>         0.501400 
     31 O          16.106000    9.731000    7.924000 O.2       1 <1>        -0.402600 
     32 C          13.828000   10.151000    8.511000 C.3       1 <1>        -0.264700 
     33 H          13.852000   10.781000    7.616000 H         1 <1>         0.066300 
     34 H          13.543000   10.786000    9.354000 H         1 <1>         0.074400 
     35 H          13.090000    9.360000    8.350000 H         1 <1>         0.075100 
     36 C          17.634000    6.066000   13.812000 C.3       1 <1>        -0.022300 
     37 H          18.273000    6.955000   13.876000 H         1 <1>         0.043200 
     38 H          18.051000    5.367000   13.079000 H         1 <1>         0.039400 
     39 H          17.682000    5.573000   14.789000 H         1 <1>         0.059800 
     40 N           9.937000    1.094000   11.210000 N.pl3     1 <1>        -0.818400 
     41 H          10.334000    0.568000   10.446000 H         1 <1>         0.378100 
     42 H           8.973000    0.958000   11.475000 H         1 <1>         0.373800 
@<TRIPOS>BOND
     1    1    2 ar   
     2    2    3 ar   
     3    3    4 ar   
     4    4    5 ar   
     5    5    6 ar   
     6    6    1 ar   
     7    6    7 1    
     8    7    8 1    
     9    7    9 1    
    10    5   10 ar   
    11   10   11 ar   
    12   11   12 ar   
    13   12   13 1    
    14   12   14 ar   
    15   14   15 1    
    16   14    4 ar   
    17   11   16 1    
    18   16   17 1    
    19   16   18 1    
    20   16   19 1    
    21   19   20 1    
    22   20   21 ar   
    23   21   22 1    
    24   21   23 ar   
    25   23   24 1    
    26   23   25 ar   
    27   25   26 ar   
    28   26   27 1    
    29   26   28 ar   
    30   28   29 1    
    31   28   20 ar   
    32   25   30 1    
    33   30   31 2    
    34   30   32 1    
    35   32   33 1    
    36   32   34 1    
    37   32   35 1    
    38   19   36 1    
    39   36   37 1    
    40   36   38 1    
    41   36   39 1    
    42    2   40 1    
    43   40   41 1    
    44   40   42 1    
@<TRIPOS>SUBSTRUCTURE
     1 ****        1 TEMP              0 ****  ****    0 ROOT 
@<TRIPOS>SET
UNITY_3DHIT     STATIC     ATOMS    <user>   **** Atoms matching 3D or FLEX Search
0
