#	Name:			21-43
#	Creating user name:	jeff
#	Creation time:		Thu Dec  4 18:13:33 2003

#	Modifying user name:	jeff
#	Modification time:	Thu Dec  4 18:13:33 2003

@<TRIPOS>MOLECULE
21-43
   42    44     1     0     1
SMALL
USER_CHARGES
****
From 3DB ct
@<TRIPOS>ATOM
      1 N          10.150000    2.637000   12.912000 N.ar      1 <1>        -0.667400 
      2 C          10.711000    1.961000   11.911000 C.ar      1 <1>         0.802900 
      3 N          11.977000    2.108000   11.523000 N.ar      1 <1>        -0.640200 
      4 C          12.730000    3.000000   12.191000 C.ar      1 <1>         0.259500 
      5 C          12.268000    3.772000   13.259000 C.ar      1 <1>        -0.144300 
      6 C          10.931000    3.516000   13.574000 C.ar      1 <1>         0.641800 
      7 N          10.294000    4.235000   14.580000 N.pl3     1 <1>        -0.758300 
      8 H          10.870000    4.574000   15.345000 H         1 <1>         0.356900 
      9 H           9.337000    3.978000   14.793000 H         1 <1>         0.356000 
     10 N          13.051000    4.674000   13.928000 N.ar      1 <1>        -0.359400 
     11 C          14.343000    4.832000   13.538000 C.ar      1 <1>         0.340900 
     12 C          14.870000    4.105000   12.480000 C.ar      1 <1>        -0.296200 
     13 H          15.903000    4.234000   12.168000 H         1 <1>         0.157200 
     14 C          14.051000    3.190000   11.818000 C.ar      1 <1>        -0.045400 
     15 H          14.462000    2.615000   10.989000 H         1 <1>         0.121500 
     16 C          15.208000    5.845000   14.282000 C.3       1 <1>        -0.178900 
     17 H          15.620000    5.293000   15.136000 H         1 <1>         0.110300 
     18 H          14.590000    6.656000   14.685000 H         1 <1>         0.094700 
     19 N          16.288000    6.430000   13.457000 N.pl3     1 <1>        -0.185000 
     20 C          16.008000    7.171000   12.317000 C.ar      1 <1>         0.213400 
     21 C          16.974000    7.420000   11.329000 C.ar      1 <1>        -0.271300 
     22 H          17.994000    7.055000   11.441000 H         1 <1>         0.125500 
     23 C          16.694000    8.172000   10.174000 C.ar      1 <1>        -0.010600 
     24 H          17.505000    8.319000    9.466000 H         1 <1>         0.129600 
     25 C          15.421000    8.706000    9.970000 C.ar      1 <1>        -0.064400 
     26 C          14.443000    8.472000   10.941000 C.ar      1 <1>        -0.174100 
     27 H          13.434000    8.866000   10.823000 H         1 <1>         0.149500 
     28 C          14.736000    7.720000   12.090000 C.ar      1 <1>        -0.126900 
     29 H          13.926000    7.559000   12.799000 H         1 <1>         0.107500 
     30 C          15.059000    9.515000    8.763000 C.2       1 <1>         0.145500 
     31 O          15.962000    9.882000    7.998000 O.2       1 <1>        -0.281900 
     32 C          13.592000    9.850000    8.534000 C.3       1 <1>         1.030400 
     33 F          13.389000   10.593000    7.400000 F         1 <1>        -0.336600 
     34 F          13.039000   10.580000    9.550000 F         1 <1>        -0.329600 
     35 F          12.802000    8.742000    8.389000 F         1 <1>        -0.328100 
     36 C          17.677000    6.103000   13.788000 C.3       1 <1>        -0.039800 
     37 H          18.153000    6.941000   14.310000 H         1 <1>         0.050000 
     38 H          18.256000    5.865000   12.888000 H         1 <1>         0.046400 
     39 H          17.744000    5.220000   14.431000 H         1 <1>         0.064700 
     40 N           9.943000    1.063000   11.238000 N.pl3     1 <1>        -0.821300 
     41 H          10.340000    0.537000   10.474000 H         1 <1>         0.379900 
     42 H           8.979000    0.928000   11.506000 H         1 <1>         0.375600 
@<TRIPOS>BOND
     1    1    2 ar   
     2    2    3 ar   
     3    3    4 ar   
     4    4    5 ar   
     5    5    6 ar   
     6    6    1 ar   
     7    6    7 1    
     8    7    8 1    
     9    7    9 1    
    10    5   10 ar   
    11   10   11 ar   
    12   11   12 ar   
    13   12   13 1    
    14   12   14 ar   
    15   14   15 1    
    16   14    4 ar   
    17   11   16 1    
    18   16   17 1    
    19   16   18 1    
    20   16   19 1    
    21   19   20 1    
    22   20   21 ar   
    23   21   22 1    
    24   21   23 ar   
    25   23   24 1    
    26   23   25 ar   
    27   25   26 ar   
    28   26   27 1    
    29   26   28 ar   
    30   28   29 1    
    31   28   20 ar   
    32   25   30 1    
    33   30   31 2    
    34   30   32 1    
    35   32   33 1    
    36   32   34 1    
    37   32   35 1    
    38   19   36 1    
    39   36   37 1    
    40   36   38 1    
    41   36   39 1    
    42    2   40 1    
    43   40   41 1    
    44   40   42 1    
@<TRIPOS>SUBSTRUCTURE
     1 ****        1 TEMP              0 ****  ****    0 ROOT 
@<TRIPOS>SET
UNITY_3DHIT     STATIC     ATOMS    <user>   **** Atoms matching 3D or FLEX Search
0
