#	Name:			21-42
#	Creating user name:	jeff
#	Creation time:		Thu Dec  4 18:13:33 2003

#	Modifying user name:	jeff
#	Modification time:	Thu Dec  4 18:13:33 2003

@<TRIPOS>MOLECULE
21-42
   41    43     1     0     1
SMALL
USER_CHARGES
****
From 3DB ct
@<TRIPOS>ATOM
      1 N          10.146000    2.641000   12.897000 N.ar      1 <1>        -0.664000 
      2 C          10.714000    1.980000   11.890000 C.ar      1 <1>         0.791900 
      3 N          11.988000    2.117000   11.526000 N.ar      1 <1>        -0.634600 
      4 C          12.736000    2.995000   12.215000 C.ar      1 <1>         0.260300 
      5 C          12.266000    3.760000   13.286000 C.ar      1 <1>        -0.141800 
      6 C          10.925000    3.503000   13.585000 C.ar      1 <1>         0.640400 
      7 N          10.279000    4.202000   14.599000 N.pl3     1 <1>        -0.758900 
      8 H          10.845000    4.522000   15.380000 H         1 <1>         0.356500 
      9 H           9.322000    3.933000   14.796000 H         1 <1>         0.352600 
     10 N          13.046000    4.659000   13.965000 N.ar      1 <1>        -0.367500 
     11 C          14.336000    4.822000   13.570000 C.ar      1 <1>         0.332500 
     12 C          14.876000    4.084000   12.526000 C.ar      1 <1>        -0.270400 
     13 H          15.911000    4.220000   12.222000 H         1 <1>         0.155700 
     14 C          14.061000    3.173000   11.858000 C.ar      1 <1>        -0.059400 
     15 H          14.476000    2.597000   11.034000 H         1 <1>         0.123600 
     16 C          15.196000    5.859000   14.288000 C.3       1 <1>        -0.132500 
     17 H          15.575000    5.346000   15.178000 H         1 <1>         0.110600 
     18 H          14.565000    6.687000   14.632000 H         1 <1>         0.092100 
     19 N          16.281000    6.397000   13.437000 N.pl3     1 <1>        -0.147200 
     20 C          16.019000    7.171000   12.291000 C.ar      1 <1>         0.229400 
     21 C          14.743000    7.728000   12.064000 C.ar      1 <1>        -0.184900 
     22 H          13.932000    7.573000   12.775000 H         1 <1>         0.110000 
     23 C          14.441000    8.492000   10.925000 C.ar      1 <1>        -0.048300 
     24 H          13.434000    8.890000   10.830000 H         1 <1>         0.109900 
     25 C          15.415000    8.719000    9.955000 C.ar      1 <1>        -0.215800 
     26 C          16.691000    8.187000   10.153000 C.ar      1 <1>        -0.011400 
     27 H          17.478000    8.350000    9.418000 H         1 <1>         0.121500 
     28 C          16.983000    7.430000   11.302000 C.ar      1 <1>        -0.234900 
     29 H          18.002000    7.064000   11.385000 H         1 <1>         0.124600 
     30 C          15.141000    9.512000    8.718000 C.2       1 <1>         0.504800 
     31 O          16.050000    9.755000    7.921000 O.2       1 <1>        -0.400700 
     32 C          13.740000   10.008000    8.470000 C.3       1 <1>        -0.268500 
     33 H          13.698000   10.472000    7.481000 H         1 <1>         0.068200 
     34 H          13.470000   10.761000    9.215000 H         1 <1>         0.075400 
     35 H          13.031000    9.175000    8.481000 H         1 <1>         0.076400 
     36 C          17.556000    5.915000   13.676000 C.1       1 <1>        -0.001900 
     37 C          18.663000    5.505000   13.898000 C.1       1 <1>        -0.320100 
     38 H          19.648000    5.150000   14.095000 H         1 <1>         0.290700 
     39 N           9.946000    1.111000   11.179000 N.pl3     1 <1>        -0.815800 
     40 H          10.350000    0.607000   10.403000 H         1 <1>         0.377800 
     41 H           8.970000    1.001000   11.408000 H         1 <1>         0.373700 
@<TRIPOS>BOND
     1    1    2 ar   
     2    2    3 ar   
     3    3    4 ar   
     4    4    5 ar   
     5    5    6 ar   
     6    6    1 ar   
     7    6    7 1    
     8    7    8 1    
     9    7    9 1    
    10    5   10 ar   
    11   10   11 ar   
    12   11   12 ar   
    13   12   13 1    
    14   12   14 ar   
    15   14   15 1    
    16   14    4 ar   
    17   11   16 1    
    18   16   17 1    
    19   16   18 1    
    20   16   19 1    
    21   19   20 1    
    22   20   21 ar   
    23   21   22 1    
    24   21   23 ar   
    25   23   24 1    
    26   23   25 ar   
    27   25   26 ar   
    28   26   27 1    
    29   26   28 ar   
    30   28   29 1    
    31   28   20 ar   
    32   25   30 1    
    33   30   31 2    
    34   30   32 1    
    35   32   33 1    
    36   32   34 1    
    37   32   35 1    
    38   19   36 1    
    39   36   37 3    
    40   37   38 1    
    41    2   39 1    
    42   39   40 1    
    43   39   41 1    
@<TRIPOS>SUBSTRUCTURE
     1 ****        1 TEMP              0 ****  ****    0 ROOT 
@<TRIPOS>SET
UNITY_3DHIT     STATIC     ATOMS    <user>   **** Atoms matching 3D or FLEX Search
0
