#	Name:			21-40
#	Creating user name:	jeff
#	Creation time:		Thu Dec  4 18:13:33 2003

#	Modifying user name:	jeff
#	Modification time:	Thu Dec  4 18:13:33 2003

@<TRIPOS>MOLECULE
21-40
   39    41     1     0     1
SMALL
USER_CHARGES
****
From 3DB ct
@<TRIPOS>ATOM
      1 N          10.154000    2.637000   12.907000 N.ar      1 <1>        -0.659100 
      2 C          10.721000    1.966000   11.906000 C.ar      1 <1>         0.787700 
      3 N          11.989000    2.118000   11.524000 N.ar      1 <1>        -0.631300 
      4 C          12.736000    3.011000   12.197000 C.ar      1 <1>         0.245400 
      5 C          12.267000    3.778000   13.266000 C.ar      1 <1>        -0.110600 
      6 C          10.929000    3.516000   13.575000 C.ar      1 <1>         0.622500 
      7 N          10.285000    4.226000   14.583000 N.pl3     1 <1>        -0.753700 
      8 H          10.855000    4.555000   15.356000 H         1 <1>         0.356400 
      9 H           9.329000    3.962000   14.789000 H         1 <1>         0.353200 
     10 N          13.044000    4.682000   13.940000 N.ar      1 <1>        -0.381500 
     11 C          14.337000    4.846000   13.549000 C.ar      1 <1>         0.315200 
     12 C          14.873000    4.119000   12.497000 C.ar      1 <1>        -0.258200 
     13 H          15.908000    4.253000   12.191000 H         1 <1>         0.144900 
     14 C          14.059000    3.203000   11.830000 C.ar      1 <1>        -0.056200 
     15 H          14.474000    2.630000   11.003000 H         1 <1>         0.122500 
     16 C          15.214000    5.850000   14.290000 C.3       1 <1>        -0.053400 
     17 H          15.683000    5.338000   15.138000 H         1 <1>         0.077600 
     18 H          14.573000    6.658000   14.662000 H         1 <1>         0.084100 
     19 N          16.242000    6.397000   13.412000 N.pl3     1 <1>        -0.507400 
     20 H          17.198000    6.178000   13.696000 H         1 <1>         0.308500 
     21 C          16.009000    7.149000   12.286000 C.ar      1 <1>         0.330300 
     22 C          14.737000    7.699000   12.085000 C.ar      1 <1>        -0.208900 
     23 H          13.950000    7.527000   12.818000 H         1 <1>         0.116700 
     24 C          14.438000    8.474000   10.955000 C.ar      1 <1>        -0.034700 
     25 H          13.431000    8.871000   10.859000 H         1 <1>         0.105500 
     26 C          15.419000    8.716000    9.992000 C.ar      1 <1>        -0.250400 
     27 C          16.695000    8.174000   10.179000 C.ar      1 <1>         0.044500 
     28 H          17.483000    8.344000    9.448000 H         1 <1>         0.112900 
     29 C          16.982000    7.400000   11.313000 C.ar      1 <1>        -0.340600 
     30 H          17.989000    7.001000   11.413000 H         1 <1>         0.129400 
     31 C          15.153000    9.535000    8.769000 C.2       1 <1>         0.506200 
     32 O          16.049000    9.725000    7.943000 O.2       1 <1>        -0.406400 
     33 C          13.778000   10.118000    8.569000 C.3       1 <1>        -0.260600 
     34 H          13.760000   10.684000    7.633000 H         1 <1>         0.064400 
     35 H          13.535000   10.806000    9.384000 H         1 <1>         0.074300 
     36 H          13.034000    9.320000    8.496000 H         1 <1>         0.075200 
     37 N           9.959000    1.069000   11.227000 N.pl3     1 <1>        -0.813700 
     38 H          10.360000    0.546000   10.462000 H         1 <1>         0.377100 
     39 H           8.994000    0.931000   11.489000 H         1 <1>         0.372300 
@<TRIPOS>BOND
     1    1    2 ar   
     2    2    3 ar   
     3    3    4 ar   
     4    4    5 ar   
     5    5    6 ar   
     6    6    1 ar   
     7    6    7 1    
     8    7    8 1    
     9    7    9 1    
    10    5   10 ar   
    11   10   11 ar   
    12   11   12 ar   
    13   12   13 1    
    14   12   14 ar   
    15   14   15 1    
    16   14    4 ar   
    17   11   16 1    
    18   16   17 1    
    19   16   18 1    
    20   16   19 1    
    21   19   20 1    
    22   19   21 1    
    23   21   22 ar   
    24   22   23 1    
    25   22   24 ar   
    26   24   25 1    
    27   24   26 ar   
    28   26   27 ar   
    29   27   28 1    
    30   27   29 ar   
    31   29   30 1    
    32   29   21 ar   
    33   26   31 1    
    34   31   32 2    
    35   31   33 1    
    36   33   34 1    
    37   33   35 1    
    38   33   36 1    
    39    2   37 1    
    40   37   38 1    
    41   37   39 1    
@<TRIPOS>SUBSTRUCTURE
     1 ****        1 TEMP              0 ****  ****    0 ROOT 
@<TRIPOS>SET
UNITY_3DHIT     STATIC     ATOMS    <user>   **** Atoms matching 3D or FLEX Search
0
