#	Name:			21-5
#	Creating user name:	jeff
#	Creation time:		Thu Dec  4 18:13:33 2003

#	Modifying user name:	jeff
#	Modification time:	Thu Dec  4 18:13:33 2003

@<TRIPOS>MOLECULE
21-5
   37    39     1     0     1
SMALL
USER_CHARGES
****
From 3DB ct
@<TRIPOS>ATOM
      1 N          10.153000    2.643000   12.913000 N.ar      1 <1>        -0.666700 
      2 C          10.713000    1.964000   11.913000 C.ar      1 <1>         0.794300 
      3 N          11.977000    2.112000   11.520000 N.ar      1 <1>        -0.636100 
      4 C          12.732000    3.004000   12.186000 C.ar      1 <1>         0.248600 
      5 C          12.272000    3.774000   13.256000 C.ar      1 <1>        -0.129900 
      6 C          10.936000    3.521000   13.572000 C.ar      1 <1>         0.636700 
      7 N          10.301000    4.238000   14.582000 N.pl3     1 <1>        -0.761900 
      8 H          10.878000    4.558000   15.355000 H         1 <1>         0.358600 
      9 H           9.344000    3.980000   14.793000 H         1 <1>         0.356200 
     10 N          13.057000    4.670000   13.930000 N.ar      1 <1>        -0.377400 
     11 C          14.351000    4.824000   13.543000 C.ar      1 <1>         0.354700 
     12 C          14.875000    4.102000   12.482000 C.ar      1 <1>        -0.288500 
     13 H          15.907000    4.231000   12.168000 H         1 <1>         0.154700 
     14 C          14.053000    3.194000   11.813000 C.ar      1 <1>        -0.050700 
     15 H          14.461000    2.623000   10.981000 H         1 <1>         0.120900 
     16 C          15.205000    5.824000   14.307000 C.3       1 <1>        -0.146700 
     17 H          15.588000    5.368000   15.224000 H         1 <1>         0.096500 
     18 H          14.546000    6.626000   14.667000 H         1 <1>         0.086900 
     19 N          16.258000    6.423000   13.458000 N.pl3     1 <1>        -0.221200 
     20 C          15.994000    7.162000   12.312000 C.ar      1 <1>         0.208400 
     21 C          14.727000    7.727000   12.069000 C.ar      1 <1>        -0.199700 
     22 H          13.906000    7.590000   12.770000 H         1 <1>         0.108100 
     23 C          14.445000    8.487000   10.924000 C.ar      1 <1>        -0.056200 
     24 H          13.449000    8.903000   10.782000 H         1 <1>         0.101300 
     25 C          15.433000    8.710000    9.976000 C.ar      1 <1>        -0.166700 
     26 H          15.221000    9.300000    9.087000 H         1 <1>         0.102900 
     27 C          16.696000    8.173000   10.179000 C.ar      1 <1>        -0.041400 
     28 H          17.484000    8.342000    9.447000 H         1 <1>         0.097400 
     29 C          16.966000    7.416000   11.329000 C.ar      1 <1>        -0.240900 
     30 H          17.982000    7.041000   11.420000 H         1 <1>         0.110500 
     31 C          17.619000    6.351000   14.004000 C.3       1 <1>        -0.011100 
     32 H          17.952000    7.337000   14.345000 H         1 <1>         0.036900 
     33 H          18.319000    5.962000   13.257000 H         1 <1>         0.036600 
     34 H          17.675000    5.673000   14.863000 H         1 <1>         0.054200 
     35 N           9.945000    1.061000   11.248000 N.pl3     1 <1>        -0.820300 
     36 H          10.344000    0.523000   10.494000 H         1 <1>         0.377700 
     37 H           8.985000    0.918000   11.527000 H         1 <1>         0.373300 
@<TRIPOS>BOND
     1    1    2 ar   
     2    2    3 ar   
     3    3    4 ar   
     4    4    5 ar   
     5    5    6 ar   
     6    6    1 ar   
     7    6    7 1    
     8    7    8 1    
     9    7    9 1    
    10    5   10 ar   
    11   10   11 ar   
    12   11   12 ar   
    13   12   13 1    
    14   12   14 ar   
    15   14   15 1    
    16   14    4 ar   
    17   11   16 1    
    18   16   17 1    
    19   16   18 1    
    20   16   19 1    
    21   19   20 1    
    22   20   21 ar   
    23   21   22 1    
    24   21   23 ar   
    25   23   24 1    
    26   23   25 ar   
    27   25   26 1    
    28   25   27 ar   
    29   27   28 1    
    30   27   29 ar   
    31   29   30 1    
    32   29   20 ar   
    33   19   31 1    
    34   31   32 1    
    35   31   33 1    
    36   31   34 1    
    37    2   35 1    
    38   35   36 1    
    39   35   37 1    
@<TRIPOS>SUBSTRUCTURE
     1 ****        1 TEMP              0 ****  ****    0 ROOT 
@<TRIPOS>SET
UNITY_3DHIT     STATIC     ATOMS    <user>   **** Atoms matching 3D or FLEX Search
0
