#	Name:			21-6
#	Creating user name:	jeff
#	Creation time:		Thu Dec  4 18:13:33 2003

#	Modifying user name:	jeff
#	Modification time:	Thu Dec  4 18:13:34 2003

@<TRIPOS>MOLECULE
21-6
   38    40     1     0     1
SMALL
USER_CHARGES
****
From 3DB ct
@<TRIPOS>ATOM
      1 N          10.161000    2.645000   12.911000 N.ar      1 <1>        -0.663900 
      2 C          10.723000    1.970000   11.910000 C.ar      1 <1>         0.789300 
      3 N          11.990000    2.117000   11.524000 N.ar      1 <1>        -0.634100 
      4 C          12.742000    3.009000   12.194000 C.ar      1 <1>         0.254000 
      5 C          12.278000    3.779000   13.262000 C.ar      1 <1>        -0.128700 
      6 C          10.940000    3.523000   13.575000 C.ar      1 <1>         0.631000 
      7 N          10.302000    4.239000   14.582000 N.pl3     1 <1>        -0.757600 
      8 H          10.875000    4.574000   15.351000 H         1 <1>         0.357300 
      9 H           9.345000    3.980000   14.793000 H         1 <1>         0.354500 
     10 N          13.060000    4.682000   13.934000 N.ar      1 <1>        -0.375900 
     11 C          14.351000    4.837000   13.545000 C.ar      1 <1>         0.329200 
     12 C          14.880000    4.115000   12.485000 C.ar      1 <1>        -0.249300 
     13 H          15.911000    4.258000   12.170000 H         1 <1>         0.144700 
     14 C          14.063000    3.200000   11.820000 C.ar      1 <1>        -0.070100 
     15 H          14.474000    2.629000   10.990000 H         1 <1>         0.123600 
     16 C          15.206000    5.864000   14.274000 C.3       1 <1>        -0.091500 
     17 H          15.645000    5.379000   15.154000 H         1 <1>         0.081000 
     18 H          14.551000    6.675000   14.613000 H         1 <1>         0.089300 
     19 N          16.241000    6.388000   13.393000 N.pl3     1 <1>        -0.386900 
     20 H          17.185000    6.047000   13.572000 H         1 <1>         0.276600 
     21 C          16.039000    7.162000   12.260000 C.ar      1 <1>         0.049500 
     22 C          14.743000    7.684000   12.080000 C.ar      1 <1>        -0.083800 
     23 H          13.969000    7.484000   12.821000 H         1 <1>         0.104500 
     24 C          14.404000    8.461000   10.971000 C.ar      1 <1>        -0.141800 
     25 H          13.393000    8.851000   10.867000 H         1 <1>         0.116700 
     26 C          15.361000    8.731000   10.005000 C.ar      1 <1>        -0.146500 
     27 H          15.105000    9.337000    9.137000 H         1 <1>         0.114000 
     28 C          16.652000    8.223000   10.147000 C.ar      1 <1>        -0.148400 
     29 H          17.366000    8.461000    9.363000 H         1 <1>         0.110900 
     30 C          17.003000    7.439000   11.260000 C.ar      1 <1>         0.139500 
     31 O          18.263000    6.923000   11.439000 O.3       1 <1>        -0.273400 
     32 C          19.266000    7.255000   10.482000 C.3       1 <1>         0.012300 
     33 H          20.187000    6.743000   10.777000 H         1 <1>         0.061500 
     34 H          19.470000    8.331000   10.483000 H         1 <1>         0.040500 
     35 H          18.993000    6.898000    9.484000 H         1 <1>         0.040800 
     36 N           9.955000    1.074000   11.235000 N.pl3     1 <1>        -0.817900 
     37 H          10.353000    0.548000   10.471000 H         1 <1>         0.376700 
     38 H           8.990000    0.942000   11.500000 H         1 <1>         0.372500 
@<TRIPOS>BOND
     1    1    2 ar   
     2    2    3 ar   
     3    3    4 ar   
     4    4    5 ar   
     5    5    6 ar   
     6    6    1 ar   
     7    6    7 1    
     8    7    8 1    
     9    7    9 1    
    10    5   10 ar   
    11   10   11 ar   
    12   11   12 ar   
    13   12   13 1    
    14   12   14 ar   
    15   14   15 1    
    16   14    4 ar   
    17   11   16 1    
    18   16   17 1    
    19   16   18 1    
    20   16   19 1    
    21   19   20 1    
    22   19   21 1    
    23   21   22 ar   
    24   22   23 1    
    25   22   24 ar   
    26   24   25 1    
    27   24   26 ar   
    28   26   27 1    
    29   26   28 ar   
    30   28   29 1    
    31   28   30 ar   
    32   30   21 ar   
    33   30   31 1    
    34   31   32 1    
    35   32   33 1    
    36   32   34 1    
    37   32   35 1    
    38    2   36 1    
    39   36   37 1    
    40   36   38 1    
@<TRIPOS>SUBSTRUCTURE
     1 ****        1 TEMP              0 ****  ****    0 ROOT 
@<TRIPOS>SET
UNITY_3DHIT     STATIC     ATOMS    <user>   **** Atoms matching 3D or FLEX Search
0
