#	Name:			21-7
#	Creating user name:	jeff
#	Creation time:		Thu Dec  4 18:13:34 2003

#	Modifying user name:	jeff
#	Modification time:	Thu Dec  4 18:13:34 2003

@<TRIPOS>MOLECULE
21-7
   41    43     1     0     1
SMALL
USER_CHARGES
****
From 3DB ct
@<TRIPOS>ATOM
      1 N          10.152000    2.611000   12.908000 N.ar      1 <1>        -0.668500 
      2 C          10.733000    1.932000   11.921000 C.ar      1 <1>         0.792700 
      3 N          11.997000    2.103000   11.534000 N.ar      1 <1>        -0.638100 
      4 C          12.725000    3.025000   12.188000 C.ar      1 <1>         0.262400 
      5 C          12.241000    3.803000   13.242000 C.ar      1 <1>        -0.147100 
      6 C          10.909000    3.520000   13.558000 C.ar      1 <1>         0.643900 
      7 N          10.251000    4.239000   14.549000 N.pl3     1 <1>        -0.765200 
      8 H          10.815000    4.604000   15.311000 H         1 <1>         0.360800 
      9 H           9.300000    3.962000   14.763000 H         1 <1>         0.355600 
     10 N          12.998000    4.736000   13.897000 N.ar      1 <1>        -0.381200 
     11 C          14.287000    4.921000   13.506000 C.ar      1 <1>         0.377500 
     12 C          14.836000    4.187000   12.464000 C.ar      1 <1>        -0.266500 
     13 H          15.867000    4.336000   12.154000 H         1 <1>         0.150000 
     14 C          14.042000    3.241000   11.815000 C.ar      1 <1>        -0.070600 
     15 H          14.470000    2.662000   10.999000 H         1 <1>         0.124900 
     16 C          15.123000    5.960000   14.242000 C.3       1 <1>        -0.177300 
     17 H          15.479000    5.471000   15.160000 H         1 <1>         0.101000 
     18 H          14.494000    6.804000   14.551000 H         1 <1>         0.087800 
     19 N          16.269000    6.441000   13.443000 N.pl3     1 <1>        -0.156900 
     20 C          15.999000    7.181000   12.277000 C.ar      1 <1>        -0.034600 
     21 C          14.734000    7.759000   12.065000 C.ar      1 <1>        -0.073200 
     22 H          13.937000    7.639000   12.796000 H         1 <1>         0.097800 
     23 C          14.449000    8.479000   10.903000 C.ar      1 <1>        -0.142000 
     24 H          13.460000    8.913000   10.762000 H         1 <1>         0.112200 
     25 C          15.425000    8.636000    9.927000 C.ar      1 <1>        -0.095200 
     26 H          15.203000    9.197000    9.020000 H         1 <1>         0.108000 
     27 C          16.689000    8.075000   10.108000 C.ar      1 <1>        -0.239700 
     28 H          17.422000    8.228000    9.320000 H         1 <1>         0.131600 
     29 C          16.987000    7.351000   11.271000 C.ar      1 <1>         0.249000 
     30 O          18.220000    6.797000   11.532000 O.3       1 <1>        -0.281600 
     31 C          19.232000    6.944000   10.540000 C.3       1 <1>         0.015600 
     32 H          20.129000    6.433000   10.903000 H         1 <1>         0.058800 
     33 H          19.487000    7.998000   10.391000 H         1 <1>         0.040300 
     34 H          18.935000    6.467000    9.600000 H         1 <1>         0.035700 
     35 C          17.442000    5.567000   13.347000 C.3       1 <1>        -0.068700 
     36 H          18.288000    6.050000   12.849000 H         1 <1>         0.069700 
     37 H          17.193000    4.657000   12.789000 H         1 <1>         0.052100 
     38 H          17.792000    5.273000   14.341000 H         1 <1>         0.049900 
     39 N           9.989000    1.006000   11.260000 N.pl3     1 <1>        -0.820500 
     40 H          10.400000    0.478000   10.505000 H         1 <1>         0.377100 
     41 H           9.027000    0.854000   11.525000 H         1 <1>         0.372800 
@<TRIPOS>BOND
     1    1    2 ar   
     2    2    3 ar   
     3    3    4 ar   
     4    4    5 ar   
     5    5    6 ar   
     6    6    1 ar   
     7    6    7 1    
     8    7    8 1    
     9    7    9 1    
    10    5   10 ar   
    11   10   11 ar   
    12   11   12 ar   
    13   12   13 1    
    14   12   14 ar   
    15   14   15 1    
    16   14    4 ar   
    17   11   16 1    
    18   16   17 1    
    19   16   18 1    
    20   16   19 1    
    21   19   20 1    
    22   20   21 ar   
    23   21   22 1    
    24   21   23 ar   
    25   23   24 1    
    26   23   25 ar   
    27   25   26 1    
    28   25   27 ar   
    29   27   28 1    
    30   27   29 ar   
    31   29   20 ar   
    32   29   30 1    
    33   30   31 1    
    34   31   32 1    
    35   31   33 1    
    36   31   34 1    
    37   19   35 1    
    38   35   36 1    
    39   35   37 1    
    40   35   38 1    
    41    2   39 1    
    42   39   40 1    
    43   39   41 1    
@<TRIPOS>SUBSTRUCTURE
     1 ****        1 TEMP              0 ****  ****    0 ROOT 
@<TRIPOS>SET
UNITY_3DHIT     STATIC     ATOMS    <user>   **** Atoms matching 3D or FLEX Search
0
