#	Name:			21-8
#	Creating user name:	jeff
#	Creation time:		Thu Dec  4 18:13:34 2003

#	Modifying user name:	jeff
#	Modification time:	Thu Dec  4 18:13:34 2003

@<TRIPOS>MOLECULE
21-8
   38    40     1     0     1
SMALL
USER_CHARGES
****
From 3DB ct
@<TRIPOS>ATOM
      1 N          10.167000    2.653000   12.920000 N.ar      1 <1>        -0.662800 
      2 C          10.722000    1.972000   11.918000 C.ar      1 <1>         0.791300 
      3 N          11.987000    2.114000   11.525000 N.ar      1 <1>        -0.633300 
      4 C          12.745000    3.006000   12.187000 C.ar      1 <1>         0.245100 
      5 C          12.289000    3.783000   13.255000 C.ar      1 <1>        -0.115200 
      6 C          10.953000    3.531000   13.576000 C.ar      1 <1>         0.626800 
      7 N          10.322000    4.251000   14.585000 N.pl3     1 <1>        -0.757000 
      8 H          10.901000    4.584000   15.351000 H         1 <1>         0.357500 
      9 H           9.366000    3.995000   14.802000 H         1 <1>         0.355100 
     10 N          13.077000    4.686000   13.918000 N.ar      1 <1>        -0.382400 
     11 C          14.367000    4.835000   13.523000 C.ar      1 <1>         0.331700 
     12 C          14.889000    4.105000   12.465000 C.ar      1 <1>        -0.253100 
     13 H          15.919000    4.242000   12.148000 H         1 <1>         0.139800 
     14 C          14.066000    3.191000   11.808000 C.ar      1 <1>        -0.060800 
     15 H          14.471000    2.615000   10.979000 H         1 <1>         0.122900 
     16 C          15.229000    5.857000   14.246000 C.3       1 <1>        -0.081800 
     17 H          15.681000    5.374000   15.121000 H         1 <1>         0.075900 
     18 H          14.586000    6.670000   14.605000 H         1 <1>         0.091300 
     19 N          16.256000    6.392000   13.360000 N.pl3     1 <1>        -0.462100 
     20 H          17.204000    6.048000   13.505000 H         1 <1>         0.296200 
     21 C          16.000000    7.170000   12.250000 C.ar      1 <1>         0.302200 
     22 C          14.719000    7.710000   12.083000 C.ar      1 <1>        -0.270200 
     23 H          13.947000    7.528000   12.830000 H         1 <1>         0.123700 
     24 C          14.398000    8.489000   10.968000 C.ar      1 <1>         0.032600 
     25 H          13.395000    8.899000   10.866000 H         1 <1>         0.101600 
     26 C          15.357000    8.739000    9.987000 C.ar      1 <1>        -0.371800 
     27 H          15.069000    9.349000    9.135000 H         1 <1>         0.150500 
     28 C          16.636000    8.207000   10.123000 C.ar      1 <1>         0.424800 
     29 C          16.944000    7.426000   11.247000 C.ar      1 <1>        -0.434000 
     30 H          17.951000    7.021000   11.324000 H         1 <1>         0.128000 
     31 O          17.669000    8.369000    9.239000 O.3       1 <1>        -0.320500 
     32 C          18.904000    7.736000    9.571000 C.3       1 <1>         0.065300 
     33 H          19.616000    7.957000    8.770000 H         1 <1>         0.054900 
     34 H          18.787000    6.648000    9.623000 H         1 <1>         0.028400 
     35 H          19.314000    8.138000   10.503000 H         1 <1>         0.027500 
     36 N           9.948000    1.076000   11.251000 N.pl3     1 <1>        -0.818300 
     37 H          10.341000    0.545000   10.487000 H         1 <1>         0.377400 
     38 H           8.985000    0.946000   11.522000 H         1 <1>         0.372900 
@<TRIPOS>BOND
     1    1    2 ar   
     2    2    3 ar   
     3    3    4 ar   
     4    4    5 ar   
     5    5    6 ar   
     6    6    1 ar   
     7    6    7 1    
     8    7    8 1    
     9    7    9 1    
    10    5   10 ar   
    11   10   11 ar   
    12   11   12 ar   
    13   12   13 1    
    14   12   14 ar   
    15   14   15 1    
    16   14    4 ar   
    17   11   16 1    
    18   16   17 1    
    19   16   18 1    
    20   16   19 1    
    21   19   20 1    
    22   19   21 1    
    23   21   22 ar   
    24   22   23 1    
    25   22   24 ar   
    26   24   25 1    
    27   24   26 ar   
    28   26   27 1    
    29   26   28 ar   
    30   28   29 ar   
    31   29   30 1    
    32   29   21 ar   
    33   28   31 1    
    34   31   32 1    
    35   32   33 1    
    36   32   34 1    
    37   32   35 1    
    38    2   36 1    
    39   36   37 1    
    40   36   38 1    
@<TRIPOS>SUBSTRUCTURE
     1 ****        1 TEMP              0 ****  ****    0 ROOT 
@<TRIPOS>SET
UNITY_3DHIT     STATIC     ATOMS    <user>   **** Atoms matching 3D or FLEX Search
0
