#	Name:			21-9
#	Creating user name:	jeff
#	Creation time:		Thu Dec  4 18:13:34 2003

#	Modifying user name:	jeff
#	Modification time:	Thu Dec  4 18:13:34 2003

@<TRIPOS>MOLECULE
21-9
   41    43     1     0     1
SMALL
USER_CHARGES
****
From 3DB ct
@<TRIPOS>ATOM
      1 N          10.150000    2.633000   12.912000 N.ar      1 <1>        -0.670200 
      2 C          10.714000    1.954000   11.915000 C.ar      1 <1>         0.799500 
      3 N          11.979000    2.105000   11.525000 N.ar      1 <1>        -0.638500 
      4 C          12.728000    3.005000   12.187000 C.ar      1 <1>         0.252900 
      5 C          12.263000    3.779000   13.252000 C.ar      1 <1>        -0.142000 
      6 C          10.927000    3.519000   13.570000 C.ar      1 <1>         0.644400 
      7 N          10.287000    4.238000   14.573000 N.pl3     1 <1>        -0.762800 
      8 H          10.862000    4.584000   15.336000 H         1 <1>         0.359300 
      9 H           9.332000    3.977000   14.789000 H         1 <1>         0.356200 
     10 N          13.042000    4.687000   13.917000 N.ar      1 <1>        -0.375600 
     11 C          14.334000    4.848000   13.526000 C.ar      1 <1>         0.380300 
     12 C          14.864000    4.121000   12.471000 C.ar      1 <1>        -0.295900 
     13 H          15.896000    4.252000   12.159000 H         1 <1>         0.154600 
     14 C          14.048000    3.200000   11.812000 C.ar      1 <1>        -0.050100 
     15 H          14.461000    2.624000   10.986000 H         1 <1>         0.121200 
     16 C          15.196000    5.860000   14.276000 C.3       1 <1>        -0.203600 
     17 H          15.597000    5.312000   15.137000 H         1 <1>         0.100400 
     18 H          14.580000    6.676000   14.670000 H         1 <1>         0.104000 
     19 N          16.282000    6.433000   13.450000 N.pl3     1 <1>        -0.136300 
     20 C          16.012000    7.174000   12.307000 C.ar      1 <1>         0.168300 
     21 C          14.748000    7.729000   12.059000 C.ar      1 <1>        -0.254800 
     22 H          13.921000    7.574000   12.749000 H         1 <1>         0.110900 
     23 C          14.483000    8.472000   10.902000 C.ar      1 <1>         0.036100 
     24 H          13.487000    8.882000   10.741000 H         1 <1>         0.100000 
     25 C          15.481000    8.683000    9.954000 C.ar      1 <1>        -0.352000 
     26 H          15.235000    9.265000    9.071000 H         1 <1>         0.147300 
     27 C          16.747000    8.147000   10.163000 C.ar      1 <1>         0.379300 
     28 C          16.996000    7.402000   11.327000 C.ar      1 <1>        -0.340600 
     29 H          18.004000    7.013000   11.466000 H         1 <1>         0.122000 
     30 O          17.820000    8.274000    9.324000 O.3       1 <1>        -0.310300 
     31 C          19.034000    7.644000    9.733000 C.3       1 <1>         0.050800 
     32 H          19.785000    7.840000    8.962000 H         1 <1>         0.059700 
     33 H          18.907000    6.559000    9.809000 H         1 <1>         0.029200 
     34 H          19.400000    8.070000   10.673000 H         1 <1>         0.028600 
     35 C          17.668000    6.125000   13.809000 C.3       1 <1>        -0.049200 
     36 H          18.118000    6.962000   14.353000 H         1 <1>         0.043700 
     37 H          18.271000    5.908000   12.920000 H         1 <1>         0.040700 
     38 H          17.731000    5.233000   14.442000 H         1 <1>         0.062500 
     39 N           9.951000    1.047000   11.249000 N.pl3     1 <1>        -0.823300 
     40 H          10.351000    0.515000   10.491000 H         1 <1>         0.378600 
     41 H           8.989000    0.906000   11.521000 H         1 <1>         0.374400 
@<TRIPOS>BOND
     1    1    2 ar   
     2    2    3 ar   
     3    3    4 ar   
     4    4    5 ar   
     5    5    6 ar   
     6    6    1 ar   
     7    6    7 1    
     8    7    8 1    
     9    7    9 1    
    10    5   10 ar   
    11   10   11 ar   
    12   11   12 ar   
    13   12   13 1    
    14   12   14 ar   
    15   14   15 1    
    16   14    4 ar   
    17   11   16 1    
    18   16   17 1    
    19   16   18 1    
    20   16   19 1    
    21   19   20 1    
    22   20   21 ar   
    23   21   22 1    
    24   21   23 ar   
    25   23   24 1    
    26   23   25 ar   
    27   25   26 1    
    28   25   27 ar   
    29   27   28 ar   
    30   28   29 1    
    31   28   20 ar   
    32   27   30 1    
    33   30   31 1    
    34   31   32 1    
    35   31   33 1    
    36   31   34 1    
    37   19   35 1    
    38   35   36 1    
    39   35   37 1    
    40   35   38 1    
    41    2   39 1    
    42   39   40 1    
    43   39   41 1    
@<TRIPOS>SUBSTRUCTURE
     1 ****        1 TEMP              0 ****  ****    0 ROOT 
@<TRIPOS>SET
UNITY_3DHIT     STATIC     ATOMS    <user>   **** Atoms matching 3D or FLEX Search
0
