#	Name:			22-15
#	Creating user name:	jeff
#	Creation time:		Thu Dec  4 18:13:34 2003

#	Modifying user name:	jeff
#	Modification time:	Thu Dec  4 18:13:34 2003

@<TRIPOS>MOLECULE
22-15
   39    41     1     0     1
SMALL
USER_CHARGES
****
From 3DB ct
@<TRIPOS>ATOM
      1 N          10.225000    2.685000   13.133000 N.ar      1 <1>        -0.667700 
      2 C          10.645000    1.629000   12.441000 C.ar      1 <1>         0.801900 
      3 N          11.858000    1.520000   11.902000 N.ar      1 <1>        -0.639100 
      4 C          12.704000    2.550000   12.076000 C.ar      1 <1>         0.230800 
      5 C          12.395000    3.713000   12.781000 C.ar      1 <1>        -0.138100 
      6 C          11.100000    3.698000   13.304000 C.ar      1 <1>         0.640200 
      7 N          10.603000    4.797000   13.996000 N.pl3     1 <1>        -0.759000 
      8 H          11.271000    5.362000   14.513000 H         1 <1>         0.355600 
      9 H           9.672000    4.707000   14.388000 H         1 <1>         0.355300 
     10 N          13.276000    4.750000   12.945000 N.ar      1 <1>        -0.416200 
     11 C          14.512000    4.656000   12.415000 C.ar      1 <1>         0.615300 
     12 C          14.880000    3.537000   11.687000 C.ar      1 <1>        -0.384500 
     13 H          15.848000    3.463000   11.204000 H         1 <1>         0.160600 
     14 C          13.971000    2.489000   11.527000 C.ar      1 <1>        -0.004500 
     15 H          14.267000    1.614000   10.952000 H         1 <1>         0.120500 
     16 N          15.344000    5.754000   12.619000 N.pl3     1 <1>        -0.692600 
     17 H          16.030000    5.556000   13.345000 H         1 <1>         0.327100 
     18 C          15.518000    6.982000   11.966000 C.ar      1 <1>         0.374800 
     19 C          14.489000    7.911000   11.779000 C.ar      1 <1>        -0.238200 
     20 H          13.468000    7.678000   12.074000 H         1 <1>         0.158100 
     21 C          14.720000    9.148000   11.156000 C.ar      1 <1>        -0.135900 
     22 H          13.868000    9.811000   11.026000 H         1 <1>         0.136600 
     23 C          15.997000    9.489000   10.715000 C.ar      1 <1>         0.123300 
     24 C          17.034000    8.571000   10.915000 C.ar      1 <1>         0.168800 
     25 C          16.798000    7.329000   11.515000 C.ar      1 <1>        -0.372900 
     26 H          17.627000    6.635000   11.642000 H         1 <1>         0.157900 
     27 O          18.304000    8.841000   10.466000 O.3       1 <1>        -0.239200 
     28 C          19.177000    7.752000   10.791000 C.3       1 <1>        -0.009300 
     29 H          20.183000    8.018000   10.453000 H         1 <1>         0.062300 
     30 H          18.873000    6.838000   10.269000 H         1 <1>         0.052800 
     31 H          19.217000    7.582000   11.872000 H         1 <1>         0.044400 
     32 O          16.331000   10.661000   10.090000 O.3       1 <1>        -0.292400 
     33 C          17.696000   10.827000    9.713000 C.3       1 <1>         0.103100 
     34 H          17.784000   11.787000    9.196000 H         1 <1>         0.029500 
     35 H          18.011000   10.044000    9.016000 H         1 <1>         0.027800 
     36 H          18.343000   10.860000   10.595000 H         1 <1>         0.020400 
     37 N           9.783000    0.592000   12.272000 N.pl3     1 <1>        -0.832400 
     38 H          10.073000   -0.221000   11.748000 H         1 <1>         0.379900 
     39 H           8.852000    0.647000   12.659000 H         1 <1>         0.375200 
@<TRIPOS>BOND
     1    1    2 ar   
     2    2    3 ar   
     3    3    4 ar   
     4    4    5 ar   
     5    5    6 ar   
     6    6    1 ar   
     7    6    7 1    
     8    7    8 1    
     9    7    9 1    
    10    5   10 ar   
    11   10   11 ar   
    12   11   12 ar   
    13   12   13 1    
    14   12   14 ar   
    15   14   15 1    
    16   14    4 ar   
    17   11   16 1    
    18   16   17 1    
    19   16   18 1    
    20   18   19 ar   
    21   19   20 1    
    22   19   21 ar   
    23   21   22 1    
    24   21   23 ar   
    25   23   24 ar   
    26   24   25 ar   
    27   25   26 1    
    28   25   18 ar   
    29   24   27 1    
    30   27   28 1    
    31   28   29 1    
    32   28   30 1    
    33   28   31 1    
    34   23   32 1    
    35   32   33 1    
    36   33   34 1    
    37   33   35 1    
    38   33   36 1    
    39    2   37 1    
    40   37   38 1    
    41   37   39 1    
@<TRIPOS>SUBSTRUCTURE
     1 ****        1 TEMP              0 ****  ****    0 ROOT 
@<TRIPOS>SET
UNITY_3DHIT     STATIC     ATOMS    <user>   **** Atoms matching 3D or FLEX Search
0
