#	Name:			22-17
#	Creating user name:	jeff
#	Creation time:		Thu Dec  4 18:13:34 2003

#	Modifying user name:	jeff
#	Modification time:	Thu Dec  4 18:13:34 2003

@<TRIPOS>MOLECULE
22-17
   37    40     1     0     1
SMALL
USER_CHARGES
****
From 3DB ct
@<TRIPOS>ATOM
      1 N          10.247000    2.684000   13.118000 N.ar      1 <1>        -0.667400 
      2 C          10.671000    1.689000   12.342000 C.ar      1 <1>         0.797700 
      3 N          11.874000    1.643000   11.772000 N.ar      1 <1>        -0.636000 
      4 C          12.706000    2.674000   12.001000 C.ar      1 <1>         0.234200 
      5 C          12.390000    3.776000   12.795000 C.ar      1 <1>        -0.145500 
      6 C          11.107000    3.699000   13.342000 C.ar      1 <1>         0.645000 
      7 N          10.608000    4.739000   14.119000 N.pl3     1 <1>        -0.760800 
      8 H          11.279000    5.287000   14.649000 H         1 <1>         0.354100 
      9 H           9.688000    4.609000   14.524000 H         1 <1>         0.353800 
     10 N          13.251000    4.816000   13.019000 N.ar      1 <1>        -0.417000 
     11 C          14.474000    4.795000   12.455000 C.ar      1 <1>         0.630300 
     12 C          14.852000    3.734000   11.643000 C.ar      1 <1>        -0.381700 
     13 H          15.830000    3.714000   11.171000 H         1 <1>         0.162600 
     14 C          13.963000    2.679000   11.426000 C.ar      1 <1>        -0.011100 
     15 H          14.269000    1.850000   10.791000 H         1 <1>         0.121900 
     16 N          15.381000    5.853000   12.638000 N.pl3     1 <1>        -0.739100 
     17 H          15.915000    5.767000   13.502000 H         1 <1>         0.335200 
     18 C          15.536000    7.084000   11.978000 C.ar      1 <1>         0.473400 
     19 C          14.486000    7.978000   11.751000 C.ar      1 <1>        -0.248600 
     20 H          13.475000    7.749000   12.079000 H         1 <1>         0.153100 
     21 C          14.697000    9.189000   11.080000 C.ar      1 <1>        -0.145600 
     22 H          13.849000    9.856000   10.925000 H         1 <1>         0.129900 
     23 C          15.970000    9.539000   10.611000 C.ar      1 <1>         0.043900 
     24 C          17.044000    8.649000   10.822000 C.ar      1 <1>         0.172700 
     25 C          16.809000    7.436000   11.498000 C.ar      1 <1>        -0.442600 
     26 H          17.644000    6.753000   11.657000 H         1 <1>         0.166500 
     27 C          18.322000    8.995000   10.351000 C.ar      1 <1>        -0.183700 
     28 H          19.166000    8.322000   10.503000 H         1 <1>         0.115100 
     29 C          18.535000   10.202000    9.683000 C.ar      1 <1>        -0.087300 
     30 H          19.531000   10.457000    9.324000 H         1 <1>         0.103700 
     31 C          17.474000   11.079000    9.477000 C.ar      1 <1>        -0.113700 
     32 H          17.638000   12.021000    8.956000 H         1 <1>         0.105100 
     33 C          16.198000   10.750000    9.938000 C.ar      1 <1>        -0.159500 
     34 H          15.380000   11.449000    9.766000 H         1 <1>         0.117400 
     35 N           9.821000    0.653000   12.113000 N.pl3     1 <1>        -0.830400 
     36 H          10.114000   -0.116000   11.528000 H         1 <1>         0.379200 
     37 H           8.901000    0.658000   12.529000 H         1 <1>         0.375100 
@<TRIPOS>BOND
     1    1    2 ar   
     2    2    3 ar   
     3    3    4 ar   
     4    4    5 ar   
     5    5    6 ar   
     6    6    1 ar   
     7    6    7 1    
     8    7    8 1    
     9    7    9 1    
    10    5   10 ar   
    11   10   11 ar   
    12   11   12 ar   
    13   12   13 1    
    14   12   14 ar   
    15   14   15 1    
    16   14    4 ar   
    17   11   16 1    
    18   16   17 1    
    19   16   18 1    
    20   18   19 ar   
    21   19   20 1    
    22   19   21 ar   
    23   21   22 1    
    24   21   23 ar   
    25   23   24 ar   
    26   24   25 ar   
    27   25   26 1    
    28   25   18 ar   
    29   24   27 ar   
    30   27   28 1    
    31   27   29 ar   
    32   29   30 1    
    33   29   31 ar   
    34   31   32 1    
    35   31   33 ar   
    36   33   34 1    
    37   33   23 ar   
    38    2   35 1    
    39   35   36 1    
    40   35   37 1    
@<TRIPOS>SUBSTRUCTURE
     1 ****        1 TEMP              0 ****  ****    0 ROOT 
@<TRIPOS>SET
UNITY_3DHIT     STATIC     ATOMS    <user>   **** Atoms matching 3D or FLEX Search
0
