#	Name:			22-18
#	Creating user name:	jeff
#	Creation time:		Thu Dec  4 18:13:34 2003

#	Modifying user name:	jeff
#	Modification time:	Thu Dec  4 18:13:34 2003

@<TRIPOS>MOLECULE
22-18
   34    36     1     0     1
SMALL
USER_CHARGES
****
From 3DB ct
@<TRIPOS>ATOM
      1 N          10.259000    2.752000   13.082000 N.ar      1 <1>        -0.679800 
      2 C          10.665000    1.772000   12.277000 C.ar      1 <1>         0.819300 
      3 N          11.871000    1.715000   11.715000 N.ar      1 <1>        -0.650100 
      4 C          12.726000    2.718000   11.984000 C.ar      1 <1>         0.227200 
      5 C          12.430000    3.800000   12.810000 C.ar      1 <1>        -0.172700 
      6 C          11.141000    3.738000   13.345000 C.ar      1 <1>         0.665000 
      7 N          10.661000    4.764000   14.149000 N.pl3     1 <1>        -0.780200 
      8 H          11.340000    5.290000   14.691000 H         1 <1>         0.353500 
      9 H           9.735000    4.647000   14.545000 H         1 <1>         0.359300 
     10 N          13.316000    4.811000   13.075000 N.ar      1 <1>        -0.389200 
     11 C          14.550000    4.782000   12.524000 C.ar      1 <1>         0.611900 
     12 C          14.901000    3.737000   11.677000 C.ar      1 <1>        -0.406400 
     13 H          15.869000    3.711000   11.184000 H         1 <1>         0.157500 
     14 C          13.987000    2.712000   11.418000 C.ar      1 <1>         0.021600 
     15 H          14.275000    1.901000   10.752000 H         1 <1>         0.115900 
     16 N          15.452000    5.834000   12.798000 N.pl3     1 <1>        -0.541000 
     17 C          15.586000    7.031000   12.052000 C.ar      1 <1>         0.359800 
     18 C          14.463000    7.832000   11.770000 C.ar      1 <1>        -0.182700 
     19 H          13.475000    7.541000   12.124000 H         1 <1>         0.110000 
     20 C          14.559000    9.010000   11.018000 C.ar      1 <1>        -0.100000 
     21 H          13.667000    9.602000   10.822000 H         1 <1>         0.113800 
     22 C          15.790000    9.419000   10.522000 C.ar      1 <1>        -0.133100 
     23 H          15.870000   10.334000    9.938000 H         1 <1>         0.108100 
     24 C          16.919000    8.649000   10.776000 C.ar      1 <1>        -0.054600 
     25 H          17.888000    8.961000   10.390000 H         1 <1>         0.103400 
     26 C          16.816000    7.471000   11.527000 C.ar      1 <1>        -0.251600 
     27 H          17.736000    6.917000   11.697000 H         1 <1>         0.142400 
     28 C          16.069000    5.789000   14.134000 C.3       1 <1>         0.029300 
     29 H          15.536000    6.456000   14.821000 H         1 <1>         0.026400 
     30 H          17.123000    6.087000   14.085000 H         1 <1>         0.054700 
     31 H          16.056000    4.796000   14.596000 H         1 <1>         0.047700 
     32 N           9.793000    0.764000   12.008000 N.pl3     1 <1>        -0.846100 
     33 H          10.072000    0.007000   11.401000 H         1 <1>         0.383000 
     34 H           8.871000    0.777000   12.418000 H         1 <1>         0.377300 
@<TRIPOS>BOND
     1    1    2 ar   
     2    2    3 ar   
     3    3    4 ar   
     4    4    5 ar   
     5    5    6 ar   
     6    6    1 ar   
     7    6    7 1    
     8    7    8 1    
     9    7    9 1    
    10    5   10 ar   
    11   10   11 ar   
    12   11   12 ar   
    13   12   13 1    
    14   12   14 ar   
    15   14   15 1    
    16   14    4 ar   
    17   11   16 1    
    18   16   17 1    
    19   17   18 ar   
    20   18   19 1    
    21   18   20 ar   
    22   20   21 1    
    23   20   22 ar   
    24   22   23 1    
    25   22   24 ar   
    26   24   25 1    
    27   24   26 ar   
    28   26   27 1    
    29   26   17 ar   
    30   16   28 1    
    31   28   29 1    
    32   28   30 1    
    33   28   31 1    
    34    2   32 1    
    35   32   33 1    
    36   32   34 1    
@<TRIPOS>SUBSTRUCTURE
     1 ****        1 TEMP              0 ****  ****    0 ROOT 
@<TRIPOS>SET
UNITY_3DHIT     STATIC     ATOMS    <user>   **** Atoms matching 3D or FLEX Search
0
