#	Name:			22-16
#	Creating user name:	jeff
#	Creation time:		Thu Dec  4 18:13:34 2003

#	Modifying user name:	jeff
#	Modification time:	Thu Dec  4 18:13:34 2003

@<TRIPOS>MOLECULE
22-16
   43    45     1     0     1
SMALL
USER_CHARGES
****
From 3DB ct
@<TRIPOS>ATOM
      1 N          10.243000    2.603000   13.174000 N.ar      1 <1>        -0.665900 
      2 C          10.683000    1.565000   12.464000 C.ar      1 <1>         0.799900 
      3 N          11.891000    1.497000   11.906000 N.ar      1 <1>        -0.640400 
      4 C          12.710000    2.551000   12.075000 C.ar      1 <1>         0.241100 
      5 C          12.376000    3.696000   12.797000 C.ar      1 <1>        -0.142900 
      6 C          11.091000    3.639000   13.340000 C.ar      1 <1>         0.642600 
      7 N          10.575000    4.720000   14.046000 N.pl3     1 <1>        -0.774900 
      8 H          11.237000    5.307000   14.547000 H         1 <1>         0.372600 
      9 H           9.653000    4.606000   14.453000 H         1 <1>         0.362200 
     10 N          13.224000    4.758000   12.961000 N.ar      1 <1>        -0.419000 
     11 C          14.451000    4.715000   12.408000 C.ar      1 <1>         0.618100 
     12 C          14.847000    3.610000   11.666000 C.ar      1 <1>        -0.381400 
     13 H          15.829000    3.572000   11.203000 H         1 <1>         0.163500 
     14 C          13.972000    2.533000   11.509000 C.ar      1 <1>        -0.014200 
     15 H          14.291000    1.670000   10.929000 H         1 <1>         0.121600 
     16 N          15.345000    5.793000   12.531000 N.pl3     1 <1>        -0.691100 
     17 H          15.942000    5.716000   13.353000 H         1 <1>         0.319700 
     18 C          15.419000    7.032000   11.870000 C.ar      1 <1>         0.427800 
     19 C          14.327000    7.892000   11.712000 C.ar      1 <1>        -0.376800 
     20 H          13.348000    7.628000   12.102000 H         1 <1>         0.190200 
     21 C          14.468000    9.109000   11.037000 C.ar      1 <1>         0.291900 
     22 C          15.709000    9.510000   10.536000 C.ar      1 <1>        -0.010000 
     23 C          16.796000    8.639000   10.631000 C.ar      1 <1>         0.144600 
     24 C          16.651000    7.424000   11.314000 C.ar      1 <1>        -0.395100 
     25 H          17.518000    6.772000   11.408000 H         1 <1>         0.176400 
     26 O          18.055000    8.903000   10.158000 O.3       1 <1>        -0.224400 
     27 C          18.987000    7.842000   10.384000 C.3       1 <1>        -0.059000 
     28 H          19.981000    8.290000   10.480000 H         1 <1>         0.074900 
     29 H          19.009000    7.169000    9.522000 H         1 <1>         0.065300 
     30 H          18.778000    7.289000   11.306000 H         1 <1>         0.058300 
     31 O          15.826000   10.733000    9.928000 O.3       1 <1>        -0.221500 
     32 C          17.177000   10.932000    9.495000 C.3       1 <1>         0.019700 
     33 H          17.232000   11.916000    9.020000 H         1 <1>         0.050000 
     34 H          17.469000   10.180000    8.754000 H         1 <1>         0.051000 
     35 H          17.872000   10.924000   10.341000 H         1 <1>         0.042700 
     36 O          13.376000    9.937000   10.950000 O.3       1 <1>        -0.318000 
     37 C          13.724000   11.123000   10.227000 C.3       1 <1>         0.113400 
     38 H          12.832000   11.755000   10.175000 H         1 <1>         0.031100 
     39 H          14.032000   10.884000    9.203000 H         1 <1>         0.021600 
     40 H          14.510000   11.685000   10.742000 H         1 <1>         0.010100 
     41 N           9.847000    0.507000   12.295000 N.pl3     1 <1>        -0.829100 
     42 H          10.152000   -0.293000   11.760000 H         1 <1>         0.379500 
     43 H           8.924000    0.528000   12.703000 H         1 <1>         0.373800 
@<TRIPOS>BOND
     1    1    2 ar   
     2    2    3 ar   
     3    3    4 ar   
     4    4    5 ar   
     5    5    6 ar   
     6    6    1 ar   
     7    6    7 1    
     8    7    8 1    
     9    7    9 1    
    10    5   10 ar   
    11   10   11 ar   
    12   11   12 ar   
    13   12   13 1    
    14   12   14 ar   
    15   14   15 1    
    16   14    4 ar   
    17   11   16 1    
    18   16   17 1    
    19   16   18 1    
    20   18   19 ar   
    21   19   20 1    
    22   19   21 ar   
    23   21   22 ar   
    24   22   23 ar   
    25   23   24 ar   
    26   24   25 1    
    27   24   18 ar   
    28   23   26 1    
    29   26   27 1    
    30   27   28 1    
    31   27   29 1    
    32   27   30 1    
    33   22   31 1    
    34   31   32 1    
    35   32   33 1    
    36   32   34 1    
    37   32   35 1    
    38   21   36 1    
    39   36   37 1    
    40   37   38 1    
    41   37   39 1    
    42   37   40 1    
    43    2   41 1    
    44   41   42 1    
    45   41   43 1    
@<TRIPOS>SUBSTRUCTURE
     1 ****        1 TEMP              0 ****  ****    0 ROOT 
@<TRIPOS>SET
UNITY_3DHIT     STATIC     ATOMS    <user>   **** Atoms matching 3D or FLEX Search
0
