#	Name:			22-11
#	Creating user name:	jeff
#	Creation time:		Thu Dec  4 18:13:34 2003

#	Modifying user name:	jeff
#	Modification time:	Thu Dec  4 18:13:34 2003

@<TRIPOS>MOLECULE
22-11
   35    37     1     0     1
SMALL
USER_CHARGES
****
From 3DB ct
@<TRIPOS>ATOM
      1 N          10.265000    2.692000   13.124000 N.ar      1 <1>        -0.669900 
      2 C          10.689000    1.692000   12.354000 C.ar      1 <1>         0.797700 
      3 N          11.891000    1.644000   11.781000 N.ar      1 <1>        -0.636100 
      4 C          12.722000    2.679000   12.002000 C.ar      1 <1>         0.239200 
      5 C          12.405000    3.785000   12.789000 C.ar      1 <1>        -0.159000 
      6 C          11.124000    3.710000   13.340000 C.ar      1 <1>         0.647500 
      7 N          10.624000    4.754000   14.110000 N.pl3     1 <1>        -0.755000 
      8 H          11.295000    5.307000   14.635000 H         1 <1>         0.350700 
      9 H           9.705000    4.625000   14.518000 H         1 <1>         0.350100 
     10 N          13.265000    4.829000   13.004000 N.ar      1 <1>        -0.419900 
     11 C          14.487000    4.806000   12.438000 C.ar      1 <1>         0.659700 
     12 C          14.865000    3.741000   11.632000 C.ar      1 <1>        -0.391800 
     13 H          15.842000    3.720000   11.158000 H         1 <1>         0.170400 
     14 C          13.978000    2.682000   11.424000 C.ar      1 <1>        -0.017700 
     15 H          14.284000    1.850000   10.794000 H         1 <1>         0.122400 
     16 N          15.389000    5.865000   12.610000 N.pl3     1 <1>        -0.680300 
     17 H          15.931000    5.809000   13.474000 H         1 <1>         0.303900 
     18 C          15.540000    7.111000   11.963000 C.ar      1 <1>         0.253700 
     19 C          14.465000    7.967000   11.696000 C.ar      1 <1>        -0.181400 
     20 H          13.451000    7.699000   11.980000 H         1 <1>         0.142700 
     21 C          14.661000    9.186000   11.041000 C.ar      1 <1>        -0.102200 
     22 H          13.812000    9.838000   10.844000 H         1 <1>         0.110700 
     23 C          15.938000    9.564000   10.639000 C.ar      1 <1>        -0.147300 
     24 H          16.088000   10.514000   10.129000 H         1 <1>         0.118300 
     25 C          17.024000    8.725000   10.884000 C.ar      1 <1>        -0.168500 
     26 H          18.004000    9.055000   10.550000 H         1 <1>         0.121200 
     27 C          16.835000    7.502000   11.538000 C.ar      1 <1>         0.101200 
     28 O          17.839000    6.604000   11.823000 O.3       1 <1>        -0.221800 
     29 C          19.161000    6.963000   11.427000 C.3       1 <1>        -0.031600 
     30 H          19.828000    6.146000   11.720000 H         1 <1>         0.069100 
     31 H          19.495000    7.868000   11.943000 H         1 <1>         0.050900 
     32 H          19.229000    7.074000   10.339000 H         1 <1>         0.053100 
     33 N           9.841000    0.652000   12.134000 N.pl3     1 <1>        -0.834500 
     34 H          10.135000   -0.120000   11.553000 H         1 <1>         0.379100 
     35 H           8.923000    0.658000   12.552000 H         1 <1>         0.375500 
@<TRIPOS>BOND
     1    1    2 ar   
     2    2    3 ar   
     3    3    4 ar   
     4    4    5 ar   
     5    5    6 ar   
     6    6    1 ar   
     7    6    7 1    
     8    7    8 1    
     9    7    9 1    
    10    5   10 ar   
    11   10   11 ar   
    12   11   12 ar   
    13   12   13 1    
    14   12   14 ar   
    15   14   15 1    
    16   14    4 ar   
    17   11   16 1    
    18   16   17 1    
    19   16   18 1    
    20   18   19 ar   
    21   19   20 1    
    22   19   21 ar   
    23   21   22 1    
    24   21   23 ar   
    25   23   24 1    
    26   23   25 ar   
    27   25   26 1    
    28   25   27 ar   
    29   27   18 ar   
    30   27   28 1    
    31   28   29 1    
    32   29   30 1    
    33   29   31 1    
    34   29   32 1    
    35    2   33 1    
    36   33   34 1    
    37   33   35 1    
@<TRIPOS>SUBSTRUCTURE
     1 ****        1 TEMP              0 ****  ****    0 ROOT 
@<TRIPOS>SET
UNITY_3DHIT     STATIC     ATOMS    <user>   **** Atoms matching 3D or FLEX Search
0
