#	Name:			22-13
#	Creating user name:	jeff
#	Creation time:		Thu Dec  4 18:13:34 2003

#	Modifying user name:	jeff
#	Modification time:	Thu Dec  4 18:13:34 2003

@<TRIPOS>MOLECULE
22-13
   31    33     1     0     1
SMALL
USER_CHARGES
****
From 3DB ct
@<TRIPOS>ATOM
      1 N          10.248000    2.686000   13.118000 N.ar      1 <1>        -0.669700 
      2 C          10.671000    1.691000   12.341000 C.ar      1 <1>         0.796600 
      3 N          11.875000    1.645000   11.771000 N.ar      1 <1>        -0.630900 
      4 C          12.707000    2.676000   12.000000 C.ar      1 <1>         0.229500 
      5 C          12.391000    3.777000   12.795000 C.ar      1 <1>        -0.136100 
      6 C          11.109000    3.701000   13.343000 C.ar      1 <1>         0.647100 
      7 N          10.610000    4.740000   14.120000 N.pl3     1 <1>        -0.754200 
      8 H          11.282000    5.287000   14.651000 H         1 <1>         0.352600 
      9 H           9.691000    4.610000   14.526000 H         1 <1>         0.352800 
     10 N          13.252000    4.818000   13.019000 N.ar      1 <1>        -0.444500 
     11 C          14.476000    4.797000   12.455000 C.ar      1 <1>         0.692000 
     12 C          14.853000    3.736000   11.643000 C.ar      1 <1>        -0.392100 
     13 H          15.832000    3.716000   11.171000 H         1 <1>         0.168700 
     14 C          13.965000    2.680000   11.425000 C.ar      1 <1>        -0.016600 
     15 H          14.270000    1.852000   10.790000 H         1 <1>         0.125500 
     16 N          15.382000    5.854000   12.638000 N.pl3     1 <1>        -0.864200 
     17 H          15.917000    5.770000   13.501000 H         1 <1>         0.360800 
     18 C          15.537000    7.085000   11.977000 C.ar      1 <1>         0.654800 
     19 C          14.485000    7.980000   11.748000 C.ar      1 <1>        -0.443200 
     20 H          13.474000    7.751000   12.075000 H         1 <1>         0.183700 
     21 C          14.696000    9.191000   11.076000 C.ar      1 <1>         0.262400 
     22 H          13.858000    9.865000   10.914000 H         1 <1>         0.047100 
     23 C          15.968000    9.519000   10.620000 C.ar      1 <1>        -0.523800 
     24 C          17.029000    8.644000   10.827000 C.ar      1 <1>         0.233900 
     25 H          18.027000    8.887000   10.472000 H         1 <1>         0.057900 
     26 C          16.810000    7.436000   11.498000 C.ar      1 <1>        -0.445600 
     27 H          17.657000    6.766000   11.648000 H         1 <1>         0.152700 
     28 Cl         16.229000   11.005000    9.794000 Cl        1 <1>         0.075800 
     29 N           9.822000    0.655000   12.111000 N.pl3     1 <1>        -0.828700 
     30 H          10.114000   -0.112000   11.525000 H         1 <1>         0.379100 
     31 H           8.902000    0.660000   12.527000 H         1 <1>         0.376700 
@<TRIPOS>BOND
     1    1    2 ar   
     2    2    3 ar   
     3    3    4 ar   
     4    4    5 ar   
     5    5    6 ar   
     6    6    1 ar   
     7    6    7 1    
     8    7    8 1    
     9    7    9 1    
    10    5   10 ar   
    11   10   11 ar   
    12   11   12 ar   
    13   12   13 1    
    14   12   14 ar   
    15   14   15 1    
    16   14    4 ar   
    17   11   16 1    
    18   16   17 1    
    19   16   18 1    
    20   18   19 ar   
    21   19   20 1    
    22   19   21 ar   
    23   21   22 1    
    24   21   23 ar   
    25   23   24 ar   
    26   24   25 1    
    27   24   26 ar   
    28   26   27 1    
    29   26   18 ar   
    30   23   28 1    
    31    2   29 1    
    32   29   30 1    
    33   29   31 1    
@<TRIPOS>SUBSTRUCTURE
     1 ****        1 TEMP              0 ****  ****    0 ROOT 
@<TRIPOS>SET
UNITY_3DHIT     STATIC     ATOMS    <user>   **** Atoms matching 3D or FLEX Search
0
