#	Name:			22-19
#	Creating user name:	jeff
#	Creation time:		Thu Dec  4 18:13:34 2003

#	Modifying user name:	jeff
#	Modification time:	Thu Dec  4 18:13:35 2003

@<TRIPOS>MOLECULE
22-19
   38    40     1     0     1
SMALL
USER_CHARGES
****
From 3DB ct
@<TRIPOS>ATOM
      1 N          10.236000    2.718000   13.096000 N.ar      1 <1>        -0.680500 
      2 C          10.653000    1.724000   12.314000 C.ar      1 <1>         0.812000 
      3 N          11.865000    1.661000   11.765000 N.ar      1 <1>        -0.649900 
      4 C          12.714000    2.672000   12.024000 C.ar      1 <1>         0.238000 
      5 C          12.406000    3.769000   12.826000 C.ar      1 <1>        -0.184600 
      6 C          11.112000    3.712000   13.349000 C.ar      1 <1>         0.677400 
      7 N          10.620000    4.752000   14.129000 N.pl3     1 <1>        -0.800500 
      8 H          11.293000    5.289000   14.670000 H         1 <1>         0.362000 
      9 H           9.691000    4.638000   14.518000 H         1 <1>         0.366900 
     10 N          13.286000    4.788000   13.079000 N.ar      1 <1>        -0.378900 
     11 C          14.524000    4.754000   12.541000 C.ar      1 <1>         0.583700 
     12 C          14.888000    3.694000   11.717000 C.ar      1 <1>        -0.392500 
     13 H          15.861000    3.662000   11.235000 H         1 <1>         0.156200 
     14 C          13.980000    2.660000   11.470000 C.ar      1 <1>         0.011900 
     15 H          14.277000    1.838000   10.822000 H         1 <1>         0.116500 
     16 N          15.420000    5.814000   12.803000 N.pl3     1 <1>        -0.517300 
     17 C          15.558000    6.995000   12.034000 C.ar      1 <1>         0.271900 
     18 C          14.438000    7.784000   11.717000 C.ar      1 <1>        -0.067900 
     19 H          13.445000    7.499000   12.060000 H         1 <1>         0.111900 
     20 C          14.545000    8.948000   10.943000 C.ar      1 <1>        -0.314100 
     21 H          13.648000    9.525000   10.725000 H         1 <1>         0.162200 
     22 C          15.780000    9.363000   10.451000 C.ar      1 <1>         0.314900 
     23 C          16.904000    8.600000   10.742000 C.ar      1 <1>        -0.193200 
     24 H          17.894000    8.873000   10.386000 H         1 <1>         0.123000 
     25 C          16.791000    7.434000   11.519000 C.ar      1 <1>        -0.226100 
     26 H          17.712000    6.888000   11.714000 H         1 <1>         0.152600 
     27 O          15.752000   10.511000    9.711000 O.3       1 <1>        -0.307200 
     28 C          17.000000   10.968000    9.190000 C.3       1 <1>         0.078500 
     29 H          16.808000   11.887000    8.628000 H         1 <1>         0.053600 
     30 H          17.429000   10.236000    8.498000 H         1 <1>         0.021200 
     31 H          17.698000   11.210000    9.998000 H         1 <1>         0.022300 
     32 C          16.028000    5.794000   14.143000 C.3       1 <1>         0.045100 
     33 H          15.498000    6.484000   14.811000 H         1 <1>         0.019000 
     34 H          17.085000    6.079000   14.095000 H         1 <1>         0.052300 
     35 H          16.000000    4.813000   14.629000 H         1 <1>         0.042000 
     36 N           9.787000    0.709000   12.056000 N.pl3     1 <1>        -0.839200 
     37 H          10.074000   -0.057000   11.464000 H         1 <1>         0.381600 
     38 H           8.859000    0.728000   12.453000 H         1 <1>         0.375000 
@<TRIPOS>BOND
     1    1    2 ar   
     2    2    3 ar   
     3    3    4 ar   
     4    4    5 ar   
     5    5    6 ar   
     6    6    1 ar   
     7    6    7 1    
     8    7    8 1    
     9    7    9 1    
    10    5   10 ar   
    11   10   11 ar   
    12   11   12 ar   
    13   12   13 1    
    14   12   14 ar   
    15   14   15 1    
    16   14    4 ar   
    17   11   16 1    
    18   16   17 1    
    19   17   18 ar   
    20   18   19 1    
    21   18   20 ar   
    22   20   21 1    
    23   20   22 ar   
    24   22   23 ar   
    25   23   24 1    
    26   23   25 ar   
    27   25   26 1    
    28   25   17 ar   
    29   22   27 1    
    30   27   28 1    
    31   28   29 1    
    32   28   30 1    
    33   28   31 1    
    34   16   32 1    
    35   32   33 1    
    36   32   34 1    
    37   32   35 1    
    38    2   36 1    
    39   36   37 1    
    40   36   38 1    
@<TRIPOS>SUBSTRUCTURE
     1 ****        1 TEMP              0 ****  ****    0 ROOT 
@<TRIPOS>SET
UNITY_3DHIT     STATIC     ATOMS    <user>   **** Atoms matching 3D or FLEX Search
0
