#	Name:			22-14
#	Creating user name:	jeff
#	Creation time:		Thu Dec  4 18:13:34 2003

#	Modifying user name:	jeff
#	Modification time:	Thu Dec  4 18:13:34 2003

@<TRIPOS>MOLECULE
22-14
   39    41     1     0     1
SMALL
USER_CHARGES
****
From 3DB ct
@<TRIPOS>ATOM
      1 N          10.268000    2.703000   13.140000 N.ar      1 <1>        -0.676700 
      2 C          10.681000    1.633000   12.464000 C.ar      1 <1>         0.802800 
      3 N          11.885000    1.518000   11.905000 N.ar      1 <1>        -0.643800 
      4 C          12.729000    2.557000   12.039000 C.ar      1 <1>         0.256300 
      5 C          12.425000    3.731000   12.724000 C.ar      1 <1>        -0.181300 
      6 C          11.140000    3.724000   13.270000 C.ar      1 <1>         0.660100 
      7 N          10.652000    4.839000   13.942000 N.pl3     1 <1>        -0.764300 
      8 H          11.327000    5.432000   14.416000 H         1 <1>         0.355200 
      9 H           9.729000    4.762000   14.354000 H         1 <1>         0.357900 
     10 N          13.302000    4.775000   12.853000 N.ar      1 <1>        -0.389700 
     11 C          14.532000    4.680000   12.308000 C.ar      1 <1>         0.627000 
     12 C          14.893000    3.553000   11.591000 C.ar      1 <1>        -0.379900 
     13 H          15.849000    3.476000   11.087000 H         1 <1>         0.169000 
     14 C          13.987000    2.495000   11.468000 C.ar      1 <1>        -0.028600 
     15 H          14.279000    1.611000   10.905000 H         1 <1>         0.123500 
     16 N          15.353000    5.783000   12.497000 N.pl3     1 <1>        -0.638900 
     17 H          16.089000    5.578000   13.173000 H         1 <1>         0.286100 
     18 C          15.486000    7.060000   11.917000 C.ar      1 <1>         0.325600 
     19 C          14.398000    7.912000   11.681000 C.ar      1 <1>        -0.390100 
     20 H          13.383000    7.579000   11.874000 H         1 <1>         0.183500 
     21 C          14.572000    9.192000   11.139000 C.ar      1 <1>         0.365800 
     22 C          15.855000    9.633000   10.828000 C.ar      1 <1>        -0.304200 
     23 H          16.040000   10.618000   10.406000 H         1 <1>         0.138000 
     24 C          16.957000    8.800000   11.048000 C.ar      1 <1>        -0.127500 
     25 H          17.938000    9.185000   10.785000 H         1 <1>         0.130000 
     26 C          16.782000    7.522000   11.587000 C.ar      1 <1>         0.024100 
     27 O          17.802000    6.632000   11.833000 O.3       1 <1>        -0.199500 
     28 C          19.126000    7.054000   11.511000 C.3       1 <1>        -0.045800 
     29 H          19.806000    6.235000   11.767000 H         1 <1>         0.070800 
     30 H          19.416000    7.926000   12.105000 H         1 <1>         0.054400 
     31 H          19.227000    7.248000   10.438000 H         1 <1>         0.055400 
     32 O          13.415000    9.899000   10.960000 O.3       1 <1>        -0.306500 
     33 C          13.540000   11.210000   10.411000 C.3       1 <1>         0.072800 
     34 H          12.535000   11.637000   10.336000 H         1 <1>         0.052900 
     35 H          13.963000   11.174000    9.402000 H         1 <1>         0.024700 
     36 H          14.130000   11.858000   11.068000 H         1 <1>         0.021500 
     37 N           9.819000    0.590000   12.332000 N.pl3     1 <1>        -0.835900 
     38 H          10.103000   -0.235000   11.824000 H         1 <1>         0.379700 
     39 H           8.899000    0.645000   12.744000 H         1 <1>         0.375600 
@<TRIPOS>BOND
     1    1    2 ar   
     2    2    3 ar   
     3    3    4 ar   
     4    4    5 ar   
     5    5    6 ar   
     6    6    1 ar   
     7    6    7 1    
     8    7    8 1    
     9    7    9 1    
    10    5   10 ar   
    11   10   11 ar   
    12   11   12 ar   
    13   12   13 1    
    14   12   14 ar   
    15   14   15 1    
    16   14    4 ar   
    17   11   16 1    
    18   16   17 1    
    19   16   18 1    
    20   18   19 ar   
    21   19   20 1    
    22   19   21 ar   
    23   21   22 ar   
    24   22   23 1    
    25   22   24 ar   
    26   24   25 1    
    27   24   26 ar   
    28   26   18 ar   
    29   26   27 1    
    30   27   28 1    
    31   28   29 1    
    32   28   30 1    
    33   28   31 1    
    34   21   32 1    
    35   32   33 1    
    36   33   34 1    
    37   33   35 1    
    38   33   36 1    
    39    2   37 1    
    40   37   38 1    
    41   37   39 1    
@<TRIPOS>SUBSTRUCTURE
     1 ****        1 TEMP              0 ****  ****    0 ROOT 
@<TRIPOS>SET
UNITY_3DHIT     STATIC     ATOMS    <user>   **** Atoms matching 3D or FLEX Search
0
