#	Name:			22-10
#	Creating user name:	jeff
#	Creation time:		Thu Dec  4 18:13:34 2003

#	Modifying user name:	jeff
#	Modification time:	Thu Dec  4 18:13:34 2003

@<TRIPOS>MOLECULE
22-10
   31    33     1     0     1
SMALL
USER_CHARGES
****
From 3DB ct
@<TRIPOS>ATOM
      1 N          10.248000    2.685000   13.118000 N.ar      1 <1>        -0.669100 
      2 C          10.671000    1.690000   12.341000 C.ar      1 <1>         0.795100 
      3 N          11.874000    1.644000   11.771000 N.ar      1 <1>        -0.632600 
      4 C          12.707000    2.676000   12.001000 C.ar      1 <1>         0.228800 
      5 C          12.390000    3.777000   12.795000 C.ar      1 <1>        -0.138700 
      6 C          11.108000    3.700000   13.343000 C.ar      1 <1>         0.645800 
      7 N          10.609000    4.739000   14.121000 N.pl3     1 <1>        -0.756800 
      8 H          11.280000    5.286000   14.651000 H         1 <1>         0.353800 
      9 H           9.689000    4.609000   14.526000 H         1 <1>         0.352500 
     10 N          13.252000    4.817000   13.019000 N.ar      1 <1>        -0.437100 
     11 C          14.475000    4.797000   12.455000 C.ar      1 <1>         0.678500 
     12 C          14.852000    3.736000   11.643000 C.ar      1 <1>        -0.392200 
     13 H          15.831000    3.716000   11.171000 H         1 <1>         0.166500 
     14 C          13.964000    2.680000   11.425000 C.ar      1 <1>        -0.014500 
     15 H          14.270000    1.852000   10.790000 H         1 <1>         0.123000 
     16 N          15.382000    5.854000   12.637000 N.pl3     1 <1>        -0.817000 
     17 H          15.918000    5.769000   13.499000 H         1 <1>         0.349800 
     18 C          15.537000    7.086000   11.978000 C.ar      1 <1>         0.519100 
     19 C          14.487000    7.982000   11.748000 C.ar      1 <1>        -0.309700 
     20 H          13.476000    7.754000   12.076000 H         1 <1>         0.158500 
     21 C          14.700000    9.192000   11.077000 C.ar      1 <1>        -0.020100 
     22 H          13.867000    9.872000   10.911000 H         1 <1>         0.097800 
     23 C          15.971000    9.524000   10.617000 C.ar      1 <1>        -0.195300 
     24 H          16.136000   10.464000   10.095000 H         1 <1>         0.111500 
     25 C          17.028000    8.644000   10.826000 C.ar      1 <1>        -0.019200 
     26 H          18.025000    8.893000   10.468000 H         1 <1>         0.099100 
     27 C          16.810000    7.436000   11.498000 C.ar      1 <1>        -0.335000 
     28 H          17.656000    6.766000   11.646000 H         1 <1>         0.133500 
     29 N           9.822000    0.654000   12.111000 N.pl3     1 <1>        -0.829400 
     30 H          10.114000   -0.114000   11.525000 H         1 <1>         0.378300 
     31 H           8.902000    0.659000   12.527000 H         1 <1>         0.375100 
@<TRIPOS>BOND
     1    1    2 ar   
     2    2    3 ar   
     3    3    4 ar   
     4    4    5 ar   
     5    5    6 ar   
     6    6    1 ar   
     7    6    7 1    
     8    7    8 1    
     9    7    9 1    
    10    5   10 ar   
    11   10   11 ar   
    12   11   12 ar   
    13   12   13 1    
    14   12   14 ar   
    15   14   15 1    
    16   14    4 ar   
    17   11   16 1    
    18   16   17 1    
    19   16   18 1    
    20   18   19 ar   
    21   19   20 1    
    22   19   21 ar   
    23   21   22 1    
    24   21   23 ar   
    25   23   24 1    
    26   23   25 ar   
    27   25   26 1    
    28   25   27 ar   
    29   27   28 1    
    30   27   18 ar   
    31    2   29 1    
    32   29   30 1    
    33   29   31 1    
@<TRIPOS>SUBSTRUCTURE
     1 ****        1 TEMP              0 ****  ****    0 ROOT 
@<TRIPOS>SET
UNITY_3DHIT     STATIC     ATOMS    <user>   **** Atoms matching 3D or FLEX Search
0
