#	Name:			22-12
#	Creating user name:	jeff
#	Creation time:		Thu Dec  4 18:13:34 2003

#	Modifying user name:	jeff
#	Modification time:	Thu Dec  4 18:13:34 2003

@<TRIPOS>MOLECULE
22-12
   35    37     1     0     1
SMALL
USER_CHARGES
****
From 3DB ct
@<TRIPOS>ATOM
      1 N          10.224000    2.633000   13.146000 N.ar      1 <1>        -0.668500 
      2 C          10.664000    1.621000   12.400000 C.ar      1 <1>         0.801800 
      3 N          11.873000    1.571000   11.843000 N.ar      1 <1>        -0.637800 
      4 C          12.694000    2.616000   12.052000 C.ar      1 <1>         0.231700 
      5 C          12.360000    3.735000   12.814000 C.ar      1 <1>        -0.143700 
      6 C          11.073000    3.661000   13.351000 C.ar      1 <1>         0.643100 
      7 N          10.557000    4.716000   14.096000 N.pl3     1 <1>        -0.759700 
      8 H          11.218000    5.283000   14.619000 H         1 <1>         0.355100 
      9 H           9.635000    4.588000   14.496000 H         1 <1>         0.353600 
     10 N          13.209000    4.790000   13.018000 N.ar      1 <1>        -0.420300 
     11 C          14.438000    4.765000   12.466000 C.ar      1 <1>         0.634600 
     12 C          14.833000    3.686000   11.686000 C.ar      1 <1>        -0.385700 
     13 H          15.816000    3.663000   11.223000 H         1 <1>         0.161300 
     14 C          13.957000    2.617000   11.489000 C.ar      1 <1>        -0.007800 
     15 H          14.276000    1.775000   10.879000 H         1 <1>         0.120900 
     16 N          15.333000    5.836000   12.627000 N.pl3     1 <1>        -0.739700 
     17 H          15.864000    5.777000   13.495000 H         1 <1>         0.339700 
     18 C          15.482000    7.051000   11.938000 C.ar      1 <1>         0.370800 
     19 C          14.430000    7.935000   11.686000 C.ar      1 <1>        -0.172900 
     20 H          13.419000    7.714000   12.018000 H         1 <1>         0.149500 
     21 C          14.642000    9.129000   10.982000 C.ar      1 <1>        -0.227400 
     22 H          13.799000    9.795000   10.804000 H         1 <1>         0.144000 
     23 C          15.910000    9.464000   10.509000 C.ar      1 <1>         0.261200 
     24 C          16.967000    8.590000   10.744000 C.ar      1 <1>        -0.172200 
     25 H          17.976000    8.797000   10.396000 H         1 <1>         0.119800 
     26 C          16.750000    7.397000   11.448000 C.ar      1 <1>        -0.275700 
     27 H          17.600000    6.735000   11.613000 H         1 <1>         0.140100 
     28 O          15.981000   10.654000    9.840000 O.3       1 <1>        -0.310900 
     29 C          17.263000   11.033000    9.340000 C.3       1 <1>         0.079500 
     30 H          17.151000   11.999000    8.839000 H         1 <1>         0.052000 
     31 H          17.625000   10.312000    8.600000 H         1 <1>         0.021300 
     32 H          17.981000   11.161000   10.157000 H         1 <1>         0.021100 
     33 N           9.826000    0.572000   12.190000 N.pl3     1 <1>        -0.835100 
     34 H          10.131000   -0.209000   11.627000 H         1 <1>         0.380500 
     35 H           8.902000    0.579000   12.597000 H         1 <1>         0.375900 
@<TRIPOS>BOND
     1    1    2 ar   
     2    2    3 ar   
     3    3    4 ar   
     4    4    5 ar   
     5    5    6 ar   
     6    6    1 ar   
     7    6    7 1    
     8    7    8 1    
     9    7    9 1    
    10    5   10 ar   
    11   10   11 ar   
    12   11   12 ar   
    13   12   13 1    
    14   12   14 ar   
    15   14   15 1    
    16   14    4 ar   
    17   11   16 1    
    18   16   17 1    
    19   16   18 1    
    20   18   19 ar   
    21   19   20 1    
    22   19   21 ar   
    23   21   22 1    
    24   21   23 ar   
    25   23   24 ar   
    26   24   25 1    
    27   24   26 ar   
    28   26   27 1    
    29   26   18 ar   
    30   23   28 1    
    31   28   29 1    
    32   29   30 1    
    33   29   31 1    
    34   29   32 1    
    35    2   33 1    
    36   33   34 1    
    37   33   35 1    
@<TRIPOS>SUBSTRUCTURE
     1 ****        1 TEMP              0 ****  ****    0 ROOT 
@<TRIPOS>SET
UNITY_3DHIT     STATIC     ATOMS    <user>   **** Atoms matching 3D or FLEX Search
0
