#	Name:			22-25
#	Creating user name:	jeff
#	Creation time:		Thu Dec  4 18:13:35 2003

#	Modifying user name:	jeff
#	Modification time:	Thu Dec  4 18:13:35 2003

@<TRIPOS>MOLECULE
22-25
   46    48     1     0     1
SMALL
USER_CHARGES
****
From 3DB ct
@<TRIPOS>ATOM
      1 N          10.211000    2.739000   12.868000 N.ar      1 <1>        -0.644600 
      2 C          10.791000    2.050000   11.887000 C.ar      1 <1>         0.745300 
      3 N          12.068000    2.181000   11.532000 N.ar      1 <1>        -0.604600 
      4 C          12.811000    3.071000   12.214000 C.ar      1 <1>         0.176600 
      5 C          12.330000    3.854000   13.263000 C.ar      1 <1>        -0.042400 
      6 C          10.983000    3.614000   13.545000 C.ar      1 <1>         0.610200 
      7 N          10.328000    4.343000   14.531000 N.pl3     1 <1>        -0.767200 
      8 H          10.885000    4.669000   15.316000 H         1 <1>         0.362500 
      9 H           9.363000    4.095000   14.719000 H         1 <1>         0.352200 
     10 N          13.102000    4.756000   13.946000 N.ar      1 <1>        -0.541300 
     11 C          14.397000    4.896000   13.610000 C.ar      1 <1>         0.654300 
     12 C          14.941000    4.165000   12.568000 C.ar      1 <1>        -0.367800 
     13 H          15.980000    4.295000   12.279000 H         1 <1>         0.162000 
     14 C          14.141000    3.250000   11.880000 C.ar      1 <1>        -0.008600 
     15 H          14.575000    2.673000   11.066000 H         1 <1>         0.116200 
     16 N          15.175000    5.831000   14.260000 N.pl3     1 <1>        -0.693200 
     17 H          14.714000    6.416000   14.952000 H         1 <1>         0.342900 
     18 C          16.330000    6.394000   13.591000 C.3       1 <1>         0.173800 
     19 H          17.037000    5.604000   13.309000 H         1 <1>         0.025600 
     20 H          16.865000    7.091000   14.248000 H         1 <1>         0.051600 
     21 C          15.878000    7.145000   12.357000 C.ar      1 <1>         0.062100 
     22 C          16.796000    7.461000   11.336000 C.ar      1 <1>        -0.389300 
     23 H          17.830000    7.152000   11.466000 H         1 <1>         0.183000 
     24 C          16.386000    8.155000   10.191000 C.ar      1 <1>         0.304600 
     25 C          15.039000    8.532000   10.073000 C.ar      1 <1>        -0.092100 
     26 C          14.113000    8.174000   11.059000 C.ar      1 <1>         0.268700 
     27 C          14.531000    7.505000   12.207000 C.ar      1 <1>        -0.254300 
     28 H          13.809000    7.252000   12.982000 H         1 <1>         0.162700 
     29 O          12.793000    8.529000   10.950000 O.3       1 <1>        -0.305500 
     30 C          12.570000    9.188000    9.699000 C.3       1 <1>         0.097500 
     31 H          11.509000    9.450000    9.645000 H         1 <1>         0.034500 
     32 H          12.801000    8.526000    8.858000 H         1 <1>         0.032900 
     33 H          13.152000   10.114000    9.628000 H         1 <1>         0.031200 
     34 O          14.612000    9.196000    8.947000 O.3       1 <1>        -0.206500 
     35 C          15.685000    9.289000    8.004000 C.3       1 <1>        -0.022000 
     36 H          15.298000    9.780000    7.106000 H         1 <1>         0.057300 
     37 H          16.052000    8.297000    7.718000 H         1 <1>         0.049200 
     38 H          16.505000    9.899000    8.397000 H         1 <1>         0.056400 
     39 O          17.204000    8.510000    9.150000 O.3       1 <1>        -0.250400 
     40 C          18.591000    8.200000    9.276000 C.3       1 <1>        -0.017000 
     41 H          19.094000    8.554000    8.372000 H         1 <1>         0.076100 
     42 H          18.747000    7.118000    9.344000 H         1 <1>         0.038500 
     43 H          19.034000    8.722000   10.131000 H         1 <1>         0.050500 
     44 N          10.032000    1.155000   11.200000 N.pl3     1 <1>        -0.807600 
     45 H          10.443000    0.621000   10.450000 H         1 <1>         0.369000 
     46 H           9.060000    1.032000   11.443000 H         1 <1>         0.367100 
@<TRIPOS>BOND
     1    1    2 ar   
     2    2    3 ar   
     3    3    4 ar   
     4    4    5 ar   
     5    5    6 ar   
     6    6    1 ar   
     7    6    7 1    
     8    7    8 1    
     9    7    9 1    
    10    5   10 ar   
    11   10   11 ar   
    12   11   12 ar   
    13   12   13 1    
    14   12   14 ar   
    15   14   15 1    
    16   14    4 ar   
    17   11   16 1    
    18   16   17 1    
    19   16   18 1    
    20   18   19 1    
    21   18   20 1    
    22   18   21 1    
    23   21   22 ar   
    24   22   23 1    
    25   22   24 ar   
    26   24   25 ar   
    27   25   26 ar   
    28   26   27 ar   
    29   27   28 1    
    30   27   21 ar   
    31   26   29 1    
    32   29   30 1    
    33   30   31 1    
    34   30   32 1    
    35   30   33 1    
    36   25   34 1    
    37   34   35 1    
    38   35   36 1    
    39   35   37 1    
    40   35   38 1    
    41   24   39 1    
    42   39   40 1    
    43   40   41 1    
    44   40   42 1    
    45   40   43 1    
    46    2   44 1    
    47   44   45 1    
    48   44   46 1    
@<TRIPOS>SUBSTRUCTURE
     1 ****        1 TEMP              0 ****  ****    0 ROOT 
@<TRIPOS>SET
UNITY_3DHIT     STATIC     ATOMS    <user>   **** Atoms matching 3D or FLEX Search
0
