#	Name:			22-21
#	Creating user name:	jeff
#	Creation time:		Thu Dec  4 18:13:35 2003

#	Modifying user name:	jeff
#	Modification time:	Thu Dec  4 18:13:35 2003

@<TRIPOS>MOLECULE
22-21
   42    44     1     0     1
SMALL
USER_CHARGES
****
From 3DB ct
@<TRIPOS>ATOM
      1 N          10.228000    2.675000   13.128000 N.ar      1 <1>        -0.683700 
      2 C          10.645000    1.642000   12.398000 C.ar      1 <1>         0.814500 
      3 N          11.857000    1.551000   11.852000 N.ar      1 <1>        -0.641900 
      4 C          12.705000    2.574000   12.058000 C.ar      1 <1>         0.208300 
      5 C          12.398000    3.709000   12.803000 C.ar      1 <1>        -0.156900 
      6 C          11.105000    3.679000   13.330000 C.ar      1 <1>         0.683300 
      7 N          10.615000    4.757000   14.059000 N.pl3     1 <1>        -0.806400 
      8 H          11.287000    5.306000   14.588000 H         1 <1>         0.366300 
      9 H           9.685000    4.660000   14.450000 H         1 <1>         0.368100 
     10 N          13.277000    4.741000   13.002000 N.ar      1 <1>        -0.412000 
     11 C          14.520000    4.684000   12.472000 C.ar      1 <1>         0.628700 
     12 C          14.879000    3.583000   11.703000 C.ar      1 <1>        -0.409800 
     13 H          15.851000    3.517000   11.224000 H         1 <1>         0.159000 
     14 C          13.971000    2.537000   11.506000 C.ar      1 <1>         0.033200 
     15 H          14.271000    1.684000   10.901000 H         1 <1>         0.113700 
     16 N          15.409000    5.760000   12.684000 N.pl3     1 <1>        -0.564700 
     17 C          15.504000    6.977000   11.981000 C.ar      1 <1>         0.385300 
     18 C          14.375000    7.788000   11.783000 C.ar      1 <1>        -0.158400 
     19 H          13.400000    7.468000   12.153000 H         1 <1>         0.119500 
     20 C          14.452000    9.009000   11.095000 C.ar      1 <1>        -0.244000 
     21 H          13.535000    9.583000   10.985000 H         1 <1>         0.162700 
     22 C          15.668000    9.449000   10.579000 C.ar      1 <1>         0.212700 
     23 C          16.795000    8.634000   10.748000 C.ar      1 <1>         0.188700 
     24 C          16.721000    7.426000   11.451000 C.ar      1 <1>        -0.411100 
     25 H          17.632000    6.850000   11.600000 H         1 <1>         0.213800 
     26 O          18.020000    9.049000   10.284000 O.3       1 <1>        -0.299800 
     27 C          19.010000    8.054000   10.571000 C.3       1 <1>         0.071400 
     28 H          19.949000    8.376000   10.112000 H         1 <1>         0.055500 
     29 H          18.737000    7.083000   10.143000 H         1 <1>         0.025900 
     30 H          19.172000    7.965000   11.651000 H         1 <1>         0.016000 
     31 O          15.863000   10.624000    9.903000 O.3       1 <1>        -0.308900 
     32 C          17.188000   10.898000    9.450000 C.3       1 <1>         0.099900 
     33 H          17.166000   11.855000    8.919000 H         1 <1>         0.036100 
     34 H          17.530000   10.133000    8.746000 H         1 <1>         0.027800 
     35 H          17.878000   11.001000   10.294000 H         1 <1>         0.018800 
     36 C          16.324000    5.585000   13.821000 C.3       1 <1>         0.053600 
     37 H          17.116000    6.344000   13.845000 H         1 <1>         0.044400 
     38 H          16.847000    4.622000   13.772000 H         1 <1>         0.046400 
     39 H          15.773000    5.644000   14.766000 H         1 <1>         0.025300 
     40 N           9.778000    0.615000   12.191000 N.pl3     1 <1>        -0.838500 
     41 H          10.065000   -0.179000   11.638000 H         1 <1>         0.380800 
     42 H           8.850000    0.655000   12.586000 H         1 <1>         0.376600 
@<TRIPOS>BOND
     1    1    2 ar   
     2    2    3 ar   
     3    3    4 ar   
     4    4    5 ar   
     5    5    6 ar   
     6    6    1 ar   
     7    6    7 1    
     8    7    8 1    
     9    7    9 1    
    10    5   10 ar   
    11   10   11 ar   
    12   11   12 ar   
    13   12   13 1    
    14   12   14 ar   
    15   14   15 1    
    16   14    4 ar   
    17   11   16 1    
    18   16   17 1    
    19   17   18 ar   
    20   18   19 1    
    21   18   20 ar   
    22   20   21 1    
    23   20   22 ar   
    24   22   23 ar   
    25   23   24 ar   
    26   24   25 1    
    27   24   17 ar   
    28   23   26 1    
    29   26   27 1    
    30   27   28 1    
    31   27   29 1    
    32   27   30 1    
    33   22   31 1    
    34   31   32 1    
    35   32   33 1    
    36   32   34 1    
    37   32   35 1    
    38   16   36 1    
    39   36   37 1    
    40   36   38 1    
    41   36   39 1    
    42    2   40 1    
    43   40   41 1    
    44   40   42 1    
@<TRIPOS>SUBSTRUCTURE
     1 ****        1 TEMP              0 ****  ****    0 ROOT 
@<TRIPOS>SET
UNITY_3DHIT     STATIC     ATOMS    <user>   **** Atoms matching 3D or FLEX Search
0
