#	Name:			22-23
#	Creating user name:	jeff
#	Creation time:		Thu Dec  4 18:13:35 2003

#	Modifying user name:	jeff
#	Modification time:	Thu Dec  4 18:13:35 2003

@<TRIPOS>MOLECULE
22-23
   40    43     1     0     1
SMALL
USER_CHARGES
****
From 3DB ct
@<TRIPOS>ATOM
      1 N          10.261000    2.773000   13.067000 N.ar      1 <1>        -0.678400 
      2 C          10.664000    1.789000   12.266000 C.ar      1 <1>         0.823000 
      3 N          11.872000    1.726000   11.707000 N.ar      1 <1>        -0.650500 
      4 C          12.731000    2.725000   11.979000 C.ar      1 <1>         0.216200 
      5 C          12.437000    3.812000   12.797000 C.ar      1 <1>        -0.156000 
      6 C          11.139000    3.768000   13.311000 C.ar      1 <1>         0.652700 
      7 N          10.694000    4.750000   14.188000 N.pl3     1 <1>        -0.777200 
      8 H          11.107000    5.675000   14.100000 H         1 <1>         0.353900 
      9 H           9.730000    4.694000   14.495000 H         1 <1>         0.361100 
     10 N          13.326000    4.819000   13.057000 N.ar      1 <1>        -0.396100 
     11 C          14.564000    4.796000   12.510000 C.ar      1 <1>         0.605500 
     12 C          14.918000    3.731000   11.690000 C.ar      1 <1>        -0.429200 
     13 H          15.899000    3.658000   11.231000 H         1 <1>         0.169900 
     14 C          13.999000    2.708000   11.431000 C.ar      1 <1>         0.036800 
     15 H          14.294000    1.884000   10.784000 H         1 <1>         0.112900 
     16 N          15.445000    5.844000   12.817000 N.pl3     1 <1>        -0.459400 
     17 C          15.585000    7.040000   12.063000 C.ar      1 <1>         0.125000 
     18 C          14.440000    7.812000   11.798000 C.ar      1 <1>        -0.085000 
     19 H          13.472000    7.501000   12.188000 H         1 <1>         0.106400 
     20 C          14.517000    8.968000   11.027000 C.ar      1 <1>        -0.142300 
     21 H          13.620000    9.551000   10.826000 H         1 <1>         0.122100 
     22 C          15.744000    9.373000   10.508000 C.ar      1 <1>        -0.174300 
     23 H          15.782000   10.280000    9.904000 H         1 <1>         0.128300 
     24 C          16.911000    8.637000   10.760000 C.ar      1 <1>         0.092400 
     25 C          16.849000    7.459000   11.549000 C.ar      1 <1>         0.038900 
     26 C          18.061000    6.772000   11.797000 C.ar      1 <1>        -0.140800 
     27 H          18.068000    5.878000   12.418000 H         1 <1>         0.124600 
     28 C          19.277000    7.214000   11.271000 C.ar      1 <1>        -0.098400 
     29 H          20.192000    6.662000   11.479000 H         1 <1>         0.105000 
     30 C          19.317000    8.360000   10.489000 C.ar      1 <1>        -0.076900 
     31 H          20.262000    8.709000   10.077000 H         1 <1>         0.101500 
     32 C          18.142000    9.068000   10.237000 C.ar      1 <1>        -0.182000 
     33 H          18.197000    9.969000    9.627000 H         1 <1>         0.119600 
     34 C          16.526000    5.631000   13.787000 C.3       1 <1>        -0.028800 
     35 H          17.133000    6.531000   13.950000 H         1 <1>         0.070900 
     36 H          17.208000    4.848000   13.436000 H         1 <1>         0.059700 
     37 H          16.122000    5.347000   14.764000 H         1 <1>         0.036200 
     38 N           9.790000    0.782000   12.001000 N.pl3     1 <1>        -0.847400 
     39 H          10.069000    0.022000   11.399000 H         1 <1>         0.382900 
     40 H           8.868000    0.799000   12.410000 H         1 <1>         0.377300 
@<TRIPOS>BOND
     1    1    2 ar   
     2    2    3 ar   
     3    3    4 ar   
     4    4    5 ar   
     5    5    6 ar   
     6    6    1 ar   
     7    6    7 1    
     8    7    8 1    
     9    7    9 1    
    10    5   10 ar   
    11   10   11 ar   
    12   11   12 ar   
    13   12   13 1    
    14   12   14 ar   
    15   14   15 1    
    16   14    4 ar   
    17   11   16 1    
    18   16   17 1    
    19   17   18 ar   
    20   18   19 1    
    21   18   20 ar   
    22   20   21 1    
    23   20   22 ar   
    24   22   23 1    
    25   22   24 ar   
    26   24   25 ar   
    27   25   17 ar   
    28   25   26 ar   
    29   26   27 1    
    30   26   28 ar   
    31   28   29 1    
    32   28   30 ar   
    33   30   31 1    
    34   30   32 ar   
    35   32   33 1    
    36   32   24 ar   
    37   16   34 1    
    38   34   35 1    
    39   34   36 1    
    40   34   37 1    
    41    2   38 1    
    42   38   39 1    
    43   38   40 1    
@<TRIPOS>SUBSTRUCTURE
     1 ****        1 TEMP              0 ****  ****    0 ROOT 
@<TRIPOS>SET
UNITY_3DHIT     STATIC     ATOMS    <user>   **** Atoms matching 3D or FLEX Search
0
