#	Name:			22-22
#	Creating user name:	jeff
#	Creation time:		Thu Dec  4 18:13:35 2003

#	Modifying user name:	jeff
#	Modification time:	Thu Dec  4 18:13:35 2003

@<TRIPOS>MOLECULE
22-22
   46    48     1     0     1
SMALL
USER_CHARGES
****
From 3DB ct
@<TRIPOS>ATOM
      1 N          10.249000    2.709000   13.116000 N.ar      1 <1>        -0.673700 
      2 C          10.661000    1.690000   12.365000 C.ar      1 <1>         0.816600 
      3 N          11.872000    1.603000   11.818000 N.ar      1 <1>        -0.642300 
      4 C          12.726000    2.618000   12.044000 C.ar      1 <1>         0.210900 
      5 C          12.424000    3.740000   12.813000 C.ar      1 <1>        -0.140400 
      6 C          11.131000    3.706000   13.338000 C.ar      1 <1>         0.645100 
      7 N          10.645000    4.771000   14.087000 N.pl3     1 <1>        -0.766400 
      8 H          11.321000    5.317000   14.614000 H         1 <1>         0.350400 
      9 H           9.715000    4.673000   14.479000 H         1 <1>         0.355700 
     10 N          13.309000    4.761000   13.035000 N.ar      1 <1>        -0.408000 
     11 C          14.548000    4.704000   12.498000 C.ar      1 <1>         0.608200 
     12 C          14.906000    3.618000   11.707000 C.ar      1 <1>        -0.406800 
     13 H          15.877000    3.567000   11.224000 H         1 <1>         0.161000 
     14 C          13.992000    2.583000   11.491000 C.ar      1 <1>         0.029900 
     15 H          14.285000    1.740000   10.868000 H         1 <1>         0.115700 
     16 N          15.446000    5.769000   12.730000 N.pl3     1 <1>        -0.509600 
     17 C          15.514000    6.970000   11.979000 C.ar      1 <1>         0.303500 
     18 C          14.355000    7.741000   11.761000 C.ar      1 <1>        -0.129600 
     19 H          13.398000    7.422000   12.167000 H         1 <1>         0.126300 
     20 C          14.392000    8.923000   11.015000 C.ar      1 <1>        -0.007500 
     21 C          15.596000    9.395000   10.491000 C.ar      1 <1>         0.146000 
     22 C          16.749000    8.624000   10.640000 C.ar      1 <1>         0.145800 
     23 C          16.706000    7.441000   11.395000 C.ar      1 <1>        -0.359700 
     24 H          17.641000    6.900000   11.520000 H         1 <1>         0.196600 
     25 O          17.983000    8.969000   10.152000 O.3       1 <1>        -0.263100 
     26 C          18.999000    8.004000   10.442000 C.3       1 <1>         0.005000 
     27 H          19.951000    8.538000   10.513000 H         1 <1>         0.060700 
     28 H          19.082000    7.285000    9.622000 H         1 <1>         0.048300 
     29 H          18.831000    7.490000   11.395000 H         1 <1>         0.041700 
     30 O          15.616000   10.585000    9.811000 O.3       1 <1>        -0.199000 
     31 C          16.948000   10.868000    9.367000 C.3       1 <1>        -0.030400 
     32 H          16.924000   11.821000    8.830000 H         1 <1>         0.065600 
     33 H          17.306000   10.098000    8.676000 H         1 <1>         0.057100 
     34 H          17.635000   10.972000   10.214000 H         1 <1>         0.058000 
     35 O          13.234000    9.646000   10.880000 O.3       1 <1>        -0.249500 
     36 C          13.479000   10.813000   10.087000 C.3       1 <1>         0.047600 
     37 H          12.536000   11.361000   10.001000 H         1 <1>         0.048800 
     38 H          13.807000   10.541000    9.078000 H         1 <1>         0.030600 
     39 H          14.213000   11.472000   10.563000 H         1 <1>         0.037500 
     40 C          16.112000    5.744000   14.043000 C.3       1 <1>         0.011000 
     41 H          15.563000    6.367000   14.759000 H         1 <1>         0.035500 
     42 H          17.143000    6.109000   13.964000 H         1 <1>         0.055800 
     43 H          16.182000    4.746000   14.487000 H         1 <1>         0.054800 
     44 N           9.789000    0.671000   12.139000 N.pl3     1 <1>        -0.843000 
     45 H          10.073000   -0.116000   11.575000 H         1 <1>         0.382000 
     46 H           8.864000    0.705000   12.541000 H         1 <1>         0.377300 
@<TRIPOS>BOND
     1    1    2 ar   
     2    2    3 ar   
     3    3    4 ar   
     4    4    5 ar   
     5    5    6 ar   
     6    6    1 ar   
     7    6    7 1    
     8    7    8 1    
     9    7    9 1    
    10    5   10 ar   
    11   10   11 ar   
    12   11   12 ar   
    13   12   13 1    
    14   12   14 ar   
    15   14   15 1    
    16   14    4 ar   
    17   11   16 1    
    18   16   17 1    
    19   17   18 ar   
    20   18   19 1    
    21   18   20 ar   
    22   20   21 ar   
    23   21   22 ar   
    24   22   23 ar   
    25   23   24 1    
    26   23   17 ar   
    27   22   25 1    
    28   25   26 1    
    29   26   27 1    
    30   26   28 1    
    31   26   29 1    
    32   21   30 1    
    33   30   31 1    
    34   31   32 1    
    35   31   33 1    
    36   31   34 1    
    37   20   35 1    
    38   35   36 1    
    39   36   37 1    
    40   36   38 1    
    41   36   39 1    
    42   16   40 1    
    43   40   41 1    
    44   40   42 1    
    45   40   43 1    
    46    2   44 1    
    47   44   45 1    
    48   44   46 1    
@<TRIPOS>SUBSTRUCTURE
     1 ****        1 TEMP              0 ****  ****    0 ROOT 
@<TRIPOS>SET
UNITY_3DHIT     STATIC     ATOMS    <user>   **** Atoms matching 3D or FLEX Search
0
