#	Name:			22-20
#	Creating user name:	jeff
#	Creation time:		Thu Dec  4 18:13:35 2003

#	Modifying user name:	jeff
#	Modification time:	Thu Dec  4 18:13:35 2003

@<TRIPOS>MOLECULE
22-20
   42    44     1     0     1
SMALL
USER_CHARGES
****
From 3DB ct
@<TRIPOS>ATOM
      1 N          10.263000    2.762000   13.088000 N.ar      1 <1>        -0.691600 
      2 C          10.651000    1.760000   12.301000 C.ar      1 <1>         0.834800 
      3 N          11.858000    1.669000   11.744000 N.ar      1 <1>        -0.654000 
      4 C          12.731000    2.662000   11.996000 C.ar      1 <1>         0.224600 
      5 C          12.452000    3.763000   12.799000 C.ar      1 <1>        -0.192500 
      6 C          11.163000    3.735000   13.334000 C.ar      1 <1>         0.682200 
      7 N          10.702000    4.787000   14.118000 N.pl3     1 <1>        -0.783500 
      8 H          11.393000    5.311000   14.647000 H         1 <1>         0.349300 
      9 H           9.776000    4.691000   14.519000 H         1 <1>         0.363000 
     10 N          13.352000    4.762000   13.044000 N.ar      1 <1>        -0.388300 
     11 C          14.584000    4.729000   12.486000 C.ar      1 <1>         0.685200 
     12 C          14.924000    3.649000   11.679000 C.ar      1 <1>        -0.431900 
     13 H          15.904000    3.558000   11.222000 H         1 <1>         0.168900 
     14 C          13.996000    2.627000   11.442000 C.ar      1 <1>         0.029200 
     15 H          14.284000    1.790000   10.810000 H         1 <1>         0.114500 
     16 N          15.472000    5.776000   12.773000 N.pl3     1 <1>        -0.591700 
     17 C          15.574000    6.989000   12.043000 C.ar      1 <1>         0.236900 
     18 C          14.409000    7.734000   11.773000 C.ar      1 <1>        -0.224000 
     19 H          13.447000    7.369000   12.130000 H         1 <1>         0.135500 
     20 C          14.453000    8.932000   11.052000 C.ar      1 <1>         0.218800 
     21 C          15.678000    9.395000   10.582000 C.ar      1 <1>        -0.213900 
     22 H          15.764000   10.316000   10.011000 H         1 <1>         0.133200 
     23 C          16.851000    8.679000   10.846000 C.ar      1 <1>        -0.194700 
     24 H          17.782000    9.085000   10.460000 H         1 <1>         0.135400 
     25 C          16.814000    7.491000   11.586000 C.ar      1 <1>         0.151600 
     26 O          17.933000    6.769000   11.925000 O.3       1 <1>        -0.213000 
     27 C          19.191000    7.278000   11.487000 C.3       1 <1>        -0.030500 
     28 H          19.974000    6.690000   11.974000 H         1 <1>         0.073600 
     29 H          19.328000    8.324000   11.784000 H         1 <1>         0.049500 
     30 H          19.303000    7.154000   10.406000 H         1 <1>         0.048400 
     31 O          13.242000    9.544000   10.876000 O.3       1 <1>        -0.283400 
     32 C          13.243000   10.770000   10.145000 C.3       1 <1>         0.056800 
     33 H          12.216000   11.145000   10.123000 H         1 <1>         0.056900 
     34 H          13.563000   10.608000    9.110000 H         1 <1>         0.031600 
     35 H          13.862000   11.525000   10.639000 H         1 <1>         0.031600 
     36 C          16.367000    5.677000   13.933000 C.3       1 <1>         0.052300 
     37 H          15.801000    5.733000   14.869000 H         1 <1>         0.028700 
     38 H          17.125000    6.471000   13.947000 H         1 <1>         0.050700 
     39 H          16.929000    4.735000   13.909000 H         1 <1>         0.041300 
     40 N           9.757000    0.769000   12.048000 N.pl3     1 <1>        -0.853800 
     41 H          10.019000   -0.007000   11.457000 H         1 <1>         0.383100 
     42 H           8.833000    0.815000   12.452000 H         1 <1>         0.379600 
@<TRIPOS>BOND
     1    1    2 ar   
     2    2    3 ar   
     3    3    4 ar   
     4    4    5 ar   
     5    5    6 ar   
     6    6    1 ar   
     7    6    7 1    
     8    7    8 1    
     9    7    9 1    
    10    5   10 ar   
    11   10   11 ar   
    12   11   12 ar   
    13   12   13 1    
    14   12   14 ar   
    15   14   15 1    
    16   14    4 ar   
    17   11   16 1    
    18   16   17 1    
    19   17   18 ar   
    20   18   19 1    
    21   18   20 ar   
    22   20   21 ar   
    23   21   22 1    
    24   21   23 ar   
    25   23   24 1    
    26   23   25 ar   
    27   25   17 ar   
    28   25   26 1    
    29   26   27 1    
    30   27   28 1    
    31   27   29 1    
    32   27   30 1    
    33   20   31 1    
    34   31   32 1    
    35   32   33 1    
    36   32   34 1    
    37   32   35 1    
    38   16   36 1    
    39   36   37 1    
    40   36   38 1    
    41   36   39 1    
    42    2   40 1    
    43   40   41 1    
    44   40   42 1    
@<TRIPOS>SUBSTRUCTURE
     1 ****        1 TEMP              0 ****  ****    0 ROOT 
@<TRIPOS>SET
UNITY_3DHIT     STATIC     ATOMS    <user>   **** Atoms matching 3D or FLEX Search
0
