#	Name:			22-4
#	Creating user name:	jeff
#	Creation time:		Thu Dec  4 18:13:35 2003

#	Modifying user name:	jeff
#	Modification time:	Thu Dec  4 18:13:35 2003

@<TRIPOS>MOLECULE
22-4
   34    36     1     0     1
SMALL
USER_CHARGES
****
From 3DB ct
@<TRIPOS>ATOM
      1 N          10.218000    2.820000   12.942000 N.ar      1 <1>        -0.672000 
      2 C          10.620000    1.965000   12.004000 C.ar      1 <1>         0.817400 
      3 N          11.853000    1.929000   11.500000 N.ar      1 <1>        -0.635400 
      4 C          12.738000    2.826000   11.968000 C.ar      1 <1>         0.162900 
      5 C          12.447000    3.779000   12.947000 C.ar      1 <1>        -0.050800 
      6 C          11.130000    3.699000   13.406000 C.ar      1 <1>         0.619700 
      7 N          10.656000    4.604000   14.349000 N.pl3     1 <1>        -0.767000 
      8 H          11.329000    4.992000   15.003000 H         1 <1>         0.360600 
      9 H           9.706000    4.473000   14.676000 H         1 <1>         0.361200 
     10 N          13.359000    4.688000   13.409000 N.ar      1 <1>        -0.404800 
     11 C          14.601000    4.672000   12.878000 C.ar      1 <1>         0.344900 
     12 C          14.977000    3.754000   11.915000 C.ar      1 <1>        -0.369900 
     13 H          15.982000    3.744000   11.504000 H         1 <1>         0.168000 
     14 C          14.030000    2.832000   11.466000 C.ar      1 <1>         0.050000 
     15 H          14.313000    2.109000   10.704000 H         1 <1>         0.106000 
     16 S          15.789000    5.859000   13.473000 S.3       1 <1>        -0.011800 
     17 C          15.713000    7.113000   12.191000 C.ar      1 <1>        -0.183000 
     18 C          14.471000    7.700000   11.896000 C.ar      1 <1>        -0.011100 
     19 H          13.575000    7.410000   12.444000 H         1 <1>         0.101800 
     20 C          14.363000    8.662000   10.893000 C.ar      1 <1>        -0.203100 
     21 H          13.397000    9.113000   10.671000 H         1 <1>         0.128200 
     22 C          15.492000    9.043000   10.176000 C.ar      1 <1>        -0.029000 
     23 H          15.410000    9.796000    9.393000 H         1 <1>         0.114200 
     24 C          16.732000    8.462000   10.454000 C.ar      1 <1>        -0.339100 
     25 H          17.584000    8.795000    9.868000 H         1 <1>         0.146300 
     26 C          16.854000    7.487000   11.452000 C.ar      1 <1>         0.425200 
     27 O          18.032000    6.859000   11.772000 O.3       1 <1>        -0.337900 
     28 C          19.218000    7.331000   11.138000 C.3       1 <1>         0.071700 
     29 H          20.038000    6.668000   11.430000 H         1 <1>         0.058700 
     30 H          19.468000    8.342000   11.477000 H         1 <1>         0.030800 
     31 H          19.129000    7.287000   10.047000 H         1 <1>         0.021800 
     32 N           9.715000    1.071000   11.525000 N.pl3     1 <1>        -0.830600 
     33 H           9.988000    0.415000   10.808000 H         1 <1>         0.381100 
     34 H           8.771000    1.075000   11.882000 H         1 <1>         0.375200 
@<TRIPOS>BOND
     1    1    2 ar   
     2    2    3 ar   
     3    3    4 ar   
     4    4    5 ar   
     5    5    6 ar   
     6    6    1 ar   
     7    6    7 1    
     8    7    8 1    
     9    7    9 1    
    10    5   10 ar   
    11   10   11 ar   
    12   11   12 ar   
    13   12   13 1    
    14   12   14 ar   
    15   14   15 1    
    16   14    4 ar   
    17   11   16 1    
    18   16   17 1    
    19   17   18 ar   
    20   18   19 1    
    21   18   20 ar   
    22   20   21 1    
    23   20   22 ar   
    24   22   23 1    
    25   22   24 ar   
    26   24   25 1    
    27   24   26 ar   
    28   26   17 ar   
    29   26   27 1    
    30   27   28 1    
    31   28   29 1    
    32   28   30 1    
    33   28   31 1    
    34    2   32 1    
    35   32   33 1    
    36   32   34 1    
@<TRIPOS>SUBSTRUCTURE
     1 ****        1 TEMP              0 ****  ****    0 ROOT 
@<TRIPOS>SET
UNITY_3DHIT     STATIC     ATOMS    <user>   **** Atoms matching 3D or FLEX Search
0
