#	Name:			22-5
#	Creating user name:	jeff
#	Creation time:		Thu Dec  4 18:13:35 2003

#	Modifying user name:	jeff
#	Modification time:	Thu Dec  4 18:13:35 2003

@<TRIPOS>MOLECULE
22-5
   34    36     1     0     1
SMALL
USER_CHARGES
****
From 3DB ct
@<TRIPOS>ATOM
      1 N          10.242000    2.843000   12.967000 N.ar      1 <1>        -0.668500 
      2 C          10.622000    1.970000   12.036000 C.ar      1 <1>         0.806700 
      3 N          11.845000    1.918000   11.511000 N.ar      1 <1>        -0.624000 
      4 C          12.746000    2.812000   11.951000 C.ar      1 <1>         0.163800 
      5 C          12.479000    3.781000   12.922000 C.ar      1 <1>        -0.036300 
      6 C          11.169000    3.721000   13.403000 C.ar      1 <1>         0.613500 
      7 N          10.719000    4.643000   14.341000 N.pl3     1 <1>        -0.749200 
      8 H          11.405000    5.030000   14.982000 H         1 <1>         0.356700 
      9 H           9.773000    4.524000   14.685000 H         1 <1>         0.354900 
     10 N          13.408000    4.683000   13.362000 N.ar      1 <1>        -0.417300 
     11 C          14.643000    4.640000   12.818000 C.ar      1 <1>         0.331800 
     12 C          14.997000    3.709000   11.859000 C.ar      1 <1>        -0.301800 
     13 H          15.997000    3.679000   11.439000 H         1 <1>         0.136900 
     14 C          14.031000    2.797000   11.431000 C.ar      1 <1>         0.013700 
     15 H          14.296000    2.061000   10.675000 H         1 <1>         0.114400 
     16 S          15.842000    5.815000   13.410000 S.3       1 <1>        -0.035600 
     17 C          15.696000    7.089000   12.172000 C.ar      1 <1>        -0.121000 
     18 C          16.819000    7.555000   11.484000 C.ar      1 <1>         0.020200 
     19 H          17.806000    7.140000   11.681000 H         1 <1>         0.102500 
     20 C          16.689000    8.570000   10.531000 C.ar      1 <1>        -0.303100 
     21 H          17.574000    8.920000   10.002000 H         1 <1>         0.131800 
     22 C          15.441000    9.137000   10.259000 C.ar      1 <1>         0.347200 
     23 C          14.320000    8.679000   10.950000 C.ar      1 <1>        -0.282200 
     24 H          13.329000    9.087000   10.777000 H         1 <1>         0.148400 
     25 C          14.449000    7.661000   11.905000 C.ar      1 <1>        -0.021400 
     26 H          13.560000    7.320000   12.434000 H         1 <1>         0.114300 
     27 O          15.453000   10.120000    9.309000 O.3       1 <1>        -0.308800 
     28 C          16.730000   10.525000    8.818000 C.3       1 <1>         0.058900 
     29 H          16.567000   11.305000    8.069000 H         1 <1>         0.060000 
     30 H          17.245000    9.692000    8.327000 H         1 <1>         0.028800 
     31 H          17.341000   10.953000    9.620000 H         1 <1>         0.033400 
     32 N           9.703000    1.073000   11.591000 N.pl3     1 <1>        -0.822200 
     33 H           9.959000    0.402000   10.882000 H         1 <1>         0.378500 
     34 H           8.766000    1.088000   11.965000 H         1 <1>         0.374900 
@<TRIPOS>BOND
     1    1    2 ar   
     2    2    3 ar   
     3    3    4 ar   
     4    4    5 ar   
     5    5    6 ar   
     6    6    1 ar   
     7    6    7 1    
     8    7    8 1    
     9    7    9 1    
    10    5   10 ar   
    11   10   11 ar   
    12   11   12 ar   
    13   12   13 1    
    14   12   14 ar   
    15   14   15 1    
    16   14    4 ar   
    17   11   16 1    
    18   16   17 1    
    19   17   18 ar   
    20   18   19 1    
    21   18   20 ar   
    22   20   21 1    
    23   20   22 ar   
    24   22   23 ar   
    25   23   24 1    
    26   23   25 ar   
    27   25   26 1    
    28   25   17 ar   
    29   22   27 1    
    30   27   28 1    
    31   28   29 1    
    32   28   30 1    
    33   28   31 1    
    34    2   32 1    
    35   32   33 1    
    36   32   34 1    
@<TRIPOS>SUBSTRUCTURE
     1 ****        1 TEMP              0 ****  ****    0 ROOT 
@<TRIPOS>SET
UNITY_3DHIT     STATIC     ATOMS    <user>   **** Atoms matching 3D or FLEX Search
0
