#	Name:			22-6
#	Creating user name:	jeff
#	Creation time:		Thu Dec  4 18:13:35 2003

#	Modifying user name:	jeff
#	Modification time:	Thu Dec  4 18:13:35 2003

@<TRIPOS>MOLECULE
22-6
   38    40     1     0     1
SMALL
USER_CHARGES
****
From 3DB ct
@<TRIPOS>ATOM
      1 N          10.236000    2.847000   12.959000 N.ar      1 <1>        -0.671700 
      2 C          10.617000    1.969000   12.033000 C.ar      1 <1>         0.822200 
      3 N          11.839000    1.917000   11.506000 N.ar      1 <1>        -0.633100 
      4 C          12.743000    2.809000   11.948000 C.ar      1 <1>         0.175600 
      5 C          12.475000    3.781000   12.915000 C.ar      1 <1>        -0.051100 
      6 C          11.156000    3.741000   13.374000 C.ar      1 <1>         0.607400 
      7 N          10.732000    4.611000   14.372000 N.pl3     1 <1>        -0.743100 
      8 H          11.187000    5.518000   14.425000 H         1 <1>         0.352100 
      9 H           9.753000    4.567000   14.633000 H         1 <1>         0.358800 
     10 N          13.403000    4.683000   13.356000 N.ar      1 <1>        -0.395700 
     11 C          14.647000    4.622000   12.835000 C.ar      1 <1>         0.325800 
     12 C          14.997000    3.697000   11.867000 C.ar      1 <1>        -0.309500 
     13 H          15.997000    3.667000   11.446000 H         1 <1>         0.138200 
     14 C          14.030000    2.790000   11.433000 C.ar      1 <1>         0.014800 
     15 H          14.293000    2.056000   10.675000 H         1 <1>         0.115300 
     16 S          15.817000    5.819000   13.441000 S.3       1 <1>        -0.037100 
     17 C          15.664000    7.102000   12.211000 C.ar      1 <1>        -0.053500 
     18 C          14.420000    7.659000   11.897000 C.ar      1 <1>        -0.178100 
     19 H          13.517000    7.316000   12.400000 H         1 <1>         0.145100 
     20 C          14.310000    8.673000   10.935000 C.ar      1 <1>        -0.117900 
     21 H          13.321000    9.078000   10.740000 H         1 <1>         0.130900 
     22 C          15.444000    9.133000   10.264000 C.ar      1 <1>         0.140500 
     23 C          16.681000    8.540000   10.555000 C.ar      1 <1>         0.078500 
     24 C          16.799000    7.545000   11.530000 C.ar      1 <1>        -0.078700 
     25 H          17.779000    7.127000   11.753000 H         1 <1>         0.107900 
     26 O          17.826000    8.975000    9.931000 O.3       1 <1>        -0.192500 
     27 C          18.947000    8.209000   10.389000 C.3       1 <1>        -0.092900 
     28 H          19.838000    8.579000    9.873000 H         1 <1>         0.088300 
     29 H          18.828000    7.147000   10.144000 H         1 <1>         0.065200 
     30 H          19.100000    8.338000   11.466000 H         1 <1>         0.071400 
     31 O          15.456000   10.129000    9.323000 O.3       1 <1>        -0.298300 
     32 C          16.730000   10.528000    8.820000 C.3       1 <1>         0.129200 
     33 H          16.560000   11.287000    8.052000 H         1 <1>         0.029200 
     34 H          17.250000    9.687000    8.349000 H         1 <1>         0.013500 
     35 H          17.338000   10.981000    9.610000 H         1 <1>         0.017100 
     36 N           9.700000    1.064000   11.597000 N.pl3     1 <1>        -0.832600 
     37 H           9.961000    0.381000   10.902000 H         1 <1>         0.381500 
     38 H           8.766000    1.072000   11.981000 H         1 <1>         0.377100 
@<TRIPOS>BOND
     1    1    2 ar   
     2    2    3 ar   
     3    3    4 ar   
     4    4    5 ar   
     5    5    6 ar   
     6    6    1 ar   
     7    6    7 1    
     8    7    8 1    
     9    7    9 1    
    10    5   10 ar   
    11   10   11 ar   
    12   11   12 ar   
    13   12   13 1    
    14   12   14 ar   
    15   14   15 1    
    16   14    4 ar   
    17   11   16 1    
    18   16   17 1    
    19   17   18 ar   
    20   18   19 1    
    21   18   20 ar   
    22   20   21 1    
    23   20   22 ar   
    24   22   23 ar   
    25   23   24 ar   
    26   24   25 1    
    27   24   17 ar   
    28   23   26 1    
    29   26   27 1    
    30   27   28 1    
    31   27   29 1    
    32   27   30 1    
    33   22   31 1    
    34   31   32 1    
    35   32   33 1    
    36   32   34 1    
    37   32   35 1    
    38    2   36 1    
    39   36   37 1    
    40   36   38 1    
@<TRIPOS>SUBSTRUCTURE
     1 ****        1 TEMP              0 ****  ****    0 ROOT 
@<TRIPOS>SET
UNITY_3DHIT     STATIC     ATOMS    <user>   **** Atoms matching 3D or FLEX Search
0
