#	Name:			22-7
#	Creating user name:	jeff
#	Creation time:		Thu Dec  4 18:13:35 2003

#	Modifying user name:	jeff
#	Modification time:	Thu Dec  4 18:13:35 2003

@<TRIPOS>MOLECULE
22-7
   36    38     1     0     1
SMALL
USER_CHARGES
****
From 3DB ct
@<TRIPOS>ATOM
      1 N          10.188000    2.768000   13.011000 N.ar      1 <1>        -0.656600 
      2 C          10.575000    1.827000   12.151000 C.ar      1 <1>         0.779800 
      3 N          11.797000    1.746000   11.625000 N.ar      1 <1>        -0.617500 
      4 C          12.692000    2.679000   11.990000 C.ar      1 <1>         0.201700 
      5 C          12.417000    3.719000   12.887000 C.ar      1 <1>        -0.010700 
      6 C          11.108000    3.685000   13.373000 C.ar      1 <1>         0.621900 
      7 N          10.653000    4.677000   14.235000 N.pl3     1 <1>        -0.776600 
      8 H          11.336000    5.111000   14.849000 H         1 <1>         0.377300 
      9 H           9.707000    4.579000   14.587000 H         1 <1>         0.361100 
     10 N          13.338000    4.661000   13.252000 N.ar      1 <1>        -0.403400 
     11 C          14.573000    4.563000   12.694000 C.ar      1 <1>         0.061400 
     12 C          14.945000    3.576000   11.806000 C.ar      1 <1>        -0.224700 
     13 H          15.944000    3.523000   11.387000 H         1 <1>         0.175400 
     14 C          13.977000    2.633000   11.461000 C.ar      1 <1>        -0.019100 
     15 H          14.237000    1.841000   10.761000 H         1 <1>         0.118700 
     16 S          15.735000    5.816000   13.236000 S.o2      1 <1>         1.426100 
     17 C          15.700000    7.208000   12.127000 C.ar      1 <1>        -0.278400 
     18 C          14.487000    7.852000   11.845000 C.ar      1 <1>        -0.020000 
     19 H          13.547000    7.531000   12.285000 H         1 <1>         0.135200 
     20 C          14.464000    8.941000   10.975000 C.ar      1 <1>        -0.142400 
     21 H          13.524000    9.445000   10.756000 H         1 <1>         0.118600 
     22 C          15.645000    9.383000   10.385000 C.ar      1 <1>        -0.034800 
     23 H          15.627000   10.233000    9.705000 H         1 <1>         0.111600 
     24 C          16.854000    8.738000   10.660000 C.ar      1 <1>        -0.193300 
     25 H          17.746000    9.120000   10.169000 H         1 <1>         0.136500 
     26 C          16.898000    7.642000   11.532000 C.ar      1 <1>         0.194800 
     27 O          18.042000    6.954000   11.838000 O.3       1 <1>        -0.275500 
     28 C          19.260000    7.392000   11.236000 C.3       1 <1>        -0.005700 
     29 H          20.060000    6.737000   11.595000 H         1 <1>         0.081400 
     30 H          19.504000    8.415000   11.542000 H         1 <1>         0.063100 
     31 H          19.216000    7.300000   10.146000 H         1 <1>         0.045500 
     32 O          17.076000    5.242000   13.132000 O.2       1 <1>        -0.652300 
     33 O          15.269000    6.275000   14.544000 O.2       1 <1>        -0.651500 
     34 N           9.664000    0.888000   11.783000 N.pl3     1 <1>        -0.791000 
     35 H           9.928000    0.162000   11.133000 H         1 <1>         0.374100 
     36 H           8.730000    0.919000   12.163000 H         1 <1>         0.369300 
@<TRIPOS>BOND
     1    1    2 ar   
     2    2    3 ar   
     3    3    4 ar   
     4    4    5 ar   
     5    5    6 ar   
     6    6    1 ar   
     7    6    7 1    
     8    7    8 1    
     9    7    9 1    
    10    5   10 ar   
    11   10   11 ar   
    12   11   12 ar   
    13   12   13 1    
    14   12   14 ar   
    15   14   15 1    
    16   14    4 ar   
    17   11   16 1    
    18   16   17 1    
    19   17   18 ar   
    20   18   19 1    
    21   18   20 ar   
    22   20   21 1    
    23   20   22 ar   
    24   22   23 1    
    25   22   24 ar   
    26   24   25 1    
    27   24   26 ar   
    28   26   17 ar   
    29   26   27 1    
    30   27   28 1    
    31   28   29 1    
    32   28   30 1    
    33   28   31 1    
    34   16   32 2    
    35   16   33 2    
    36    2   34 1    
    37   34   35 1    
    38   34   36 1    
@<TRIPOS>SUBSTRUCTURE
     1 ****        1 TEMP              0 ****  ****    0 ROOT 
@<TRIPOS>SET
UNITY_3DHIT     STATIC     ATOMS    <user>   **** Atoms matching 3D or FLEX Search
0
