#	Name:			22-8
#	Creating user name:	jeff
#	Creation time:		Thu Dec  4 18:13:35 2003

#	Modifying user name:	jeff
#	Modification time:	Thu Dec  4 18:13:35 2003

@<TRIPOS>MOLECULE
22-8
   36    38     1     0     1
SMALL
USER_CHARGES
****
From 3DB ct
@<TRIPOS>ATOM
      1 N          10.191000    2.787000   13.002000 N.ar      1 <1>        -0.641700 
      2 C          10.572000    1.848000   12.138000 C.ar      1 <1>         0.797000 
      3 N          11.793000    1.762000   11.611000 N.ar      1 <1>        -0.644700 
      4 C          12.695000    2.687000   11.983000 C.ar      1 <1>         0.276300 
      5 C          12.425000    3.726000   12.880000 C.ar      1 <1>        -0.082200 
      6 C          11.109000    3.712000   13.348000 C.ar      1 <1>         0.591400 
      7 N          10.685000    4.648000   14.286000 N.pl3     1 <1>        -0.748500 
      8 H          11.130000    5.561000   14.269000 H         1 <1>         0.370300 
      9 H           9.709000    4.613000   14.558000 H         1 <1>         0.352200 
     10 N          13.353000    4.661000   13.248000 N.ar      1 <1>        -0.292900 
     11 C          14.595000    4.550000   12.703000 C.ar      1 <1>        -0.094500 
     12 C          14.959000    3.563000   11.812000 C.ar      1 <1>        -0.160400 
     13 H          15.951000    3.496000   11.382000 H         1 <1>         0.157300 
     14 C          13.982000    2.630000   11.461000 C.ar      1 <1>        -0.052900 
     15 H          14.237000    1.838000   10.758000 H         1 <1>         0.123400 
     16 S          15.737000    5.812000   13.254000 S.o2      1 <1>         1.542200 
     17 C          15.684000    7.186000   12.118000 C.ar      1 <1>        -0.472000 
     18 C          16.869000    7.637000   11.528000 C.ar      1 <1>         0.052800 
     19 H          17.819000    7.149000   11.739000 H         1 <1>         0.133800 
     20 C          16.838000    8.727000   10.650000 C.ar      1 <1>        -0.291600 
     21 H          17.778000    9.047000   10.206000 H         1 <1>         0.133000 
     22 C          15.631000    9.371000   10.369000 C.ar      1 <1>         0.427800 
     23 C          14.454000    8.917000   10.975000 C.ar      1 <1>        -0.369000 
     24 H          13.508000    9.415000   10.765000 H         1 <1>         0.164100 
     25 C          14.474000    7.830000   11.852000 C.ar      1 <1>         0.170900 
     26 H          13.546000    7.499000   12.312000 H         1 <1>         0.082400 
     27 O          15.469000   10.442000    9.534000 O.3       1 <1>        -0.318200 
     28 C          16.640000   10.936000    8.887000 C.3       1 <1>         0.080200 
     29 H          16.343000   11.781000    8.259000 H         1 <1>         0.060200 
     30 H          17.081000   10.174000    8.236000 H         1 <1>         0.021200 
     31 H          17.368000   11.304000    9.618000 H         1 <1>         0.029100 
     32 O          17.090000    5.264000   13.169000 O.2       1 <1>        -0.680900 
     33 O          15.260000    6.292000   14.549000 O.2       1 <1>        -0.666400 
     34 N           9.657000    0.912000   11.769000 N.pl3     1 <1>        -0.801400 
     35 H           9.917000    0.187000   11.116000 H         1 <1>         0.381500 
     36 H           8.723000    0.947000   12.149000 H         1 <1>         0.370200 
@<TRIPOS>BOND
     1    1    2 ar   
     2    2    3 ar   
     3    3    4 ar   
     4    4    5 ar   
     5    5    6 ar   
     6    6    1 ar   
     7    6    7 1    
     8    7    8 1    
     9    7    9 1    
    10    5   10 ar   
    11   10   11 ar   
    12   11   12 ar   
    13   12   13 1    
    14   12   14 ar   
    15   14   15 1    
    16   14    4 ar   
    17   11   16 1    
    18   16   17 1    
    19   17   18 ar   
    20   18   19 1    
    21   18   20 ar   
    22   20   21 1    
    23   20   22 ar   
    24   22   23 ar   
    25   23   24 1    
    26   23   25 ar   
    27   25   26 1    
    28   25   17 ar   
    29   22   27 1    
    30   27   28 1    
    31   28   29 1    
    32   28   30 1    
    33   28   31 1    
    34   16   32 2    
    35   16   33 2    
    36    2   34 1    
    37   34   35 1    
    38   34   36 1    
@<TRIPOS>SUBSTRUCTURE
     1 ****        1 TEMP              0 ****  ****    0 ROOT 
@<TRIPOS>SET
UNITY_3DHIT     STATIC     ATOMS    <user>   **** Atoms matching 3D or FLEX Search
0
