#	Name:			22-9
#	Creating user name:	jeff
#	Creation time:		Thu Dec  4 18:13:35 2003

#	Modifying user name:	jeff
#	Modification time:	Thu Dec  4 18:13:35 2003

@<TRIPOS>MOLECULE
22-9
   40    42     1     0     1
SMALL
USER_CHARGES
****
From 3DB ct
@<TRIPOS>ATOM
      1 N          10.211000    2.813000   12.985000 N.ar      1 <1>        -0.640700 
      2 C          10.583000    1.910000   12.079000 C.ar      1 <1>         0.789700 
      3 N          11.806000    1.833000   11.554000 N.ar      1 <1>        -0.639400 
      4 C          12.716000    2.733000   11.967000 C.ar      1 <1>         0.273200 
      5 C          12.454000    3.732000   12.912000 C.ar      1 <1>        -0.072300 
      6 C          11.144000    3.696000   13.395000 C.ar      1 <1>         0.594000 
      7 N          10.703000    4.652000   14.302000 N.pl3     1 <1>        -0.756600 
      8 H          11.393000    5.050000   14.932000 H         1 <1>         0.373900 
      9 H           9.756000    4.554000   14.650000 H         1 <1>         0.355600 
     10 N          13.383000    4.646000   13.323000 N.ar      1 <1>        -0.307800 
     11 C          14.617000    4.557000   12.763000 C.ar      1 <1>        -0.085100 
     12 C          14.978000    3.615000   11.823000 C.ar      1 <1>        -0.158900 
     13 H          15.974000    3.581000   11.395000 H         1 <1>         0.159400 
     14 C          14.000000    2.698000   11.435000 C.ar      1 <1>        -0.055500 
     15 H          14.250000    1.940000   10.695000 H         1 <1>         0.123700 
     16 S          15.764000    5.811000   13.311000 S.o2      1 <1>         1.543700 
     17 C          15.663000    7.150000   12.139000 C.ar      1 <1>        -0.436800 
     18 C          14.407000    7.642000   11.767000 C.ar      1 <1>         0.137900 
     19 H          13.495000    7.221000   12.189000 H         1 <1>         0.090000 
     20 C          14.312000    8.695000   10.847000 C.ar      1 <1>        -0.340900 
     21 H          13.319000    9.059000   10.597000 H         1 <1>         0.166300 
     22 C          15.466000    9.249000   10.286000 C.ar      1 <1>         0.324200 
     23 C          16.716000    8.722000   10.654000 C.ar      1 <1>         0.095700 
     24 C          16.826000    7.687000   11.586000 C.ar      1 <1>        -0.100300 
     25 H          17.807000    7.318000   11.873000 H         1 <1>         0.161200 
     26 O          17.875000    9.266000   10.156000 O.3       1 <1>        -0.273900 
     27 C          19.008000    8.561000   10.675000 C.3       1 <1>         0.012000 
     28 H          19.906000    9.009000   10.238000 H         1 <1>         0.058800 
     29 H          18.984000    7.503000   10.396000 H         1 <1>         0.046500 
     30 H          19.071000    8.668000   11.763000 H         1 <1>         0.060000 
     31 O          15.489000   10.284000    9.387000 O.3       1 <1>        -0.284600 
     32 C          16.766000   10.715000    8.923000 C.3       1 <1>         0.036700 
     33 H          16.605000   11.563000    8.251000 H         1 <1>         0.058000 
     34 H          17.263000    9.925000    8.351000 H         1 <1>         0.040700 
     35 H          17.391000   11.062000    9.752000 H         1 <1>         0.048300 
     36 O          17.123000    5.280000   13.220000 O.2       1 <1>        -0.683300 
     37 O          15.300000    6.299000   14.608000 O.2       1 <1>        -0.666600 
     38 N           9.653000    1.010000   11.662000 N.pl3     1 <1>        -0.795600 
     39 H           9.900000    0.310000   10.979000 H         1 <1>         0.379900 
     40 H           8.718000    1.048000   12.041000 H         1 <1>         0.369000 
@<TRIPOS>BOND
     1    1    2 ar   
     2    2    3 ar   
     3    3    4 ar   
     4    4    5 ar   
     5    5    6 ar   
     6    6    1 ar   
     7    6    7 1    
     8    7    8 1    
     9    7    9 1    
    10    5   10 ar   
    11   10   11 ar   
    12   11   12 ar   
    13   12   13 1    
    14   12   14 ar   
    15   14   15 1    
    16   14    4 ar   
    17   11   16 1    
    18   16   17 1    
    19   17   18 ar   
    20   18   19 1    
    21   18   20 ar   
    22   20   21 1    
    23   20   22 ar   
    24   22   23 ar   
    25   23   24 ar   
    26   24   25 1    
    27   24   17 ar   
    28   23   26 1    
    29   26   27 1    
    30   27   28 1    
    31   27   29 1    
    32   27   30 1    
    33   22   31 1    
    34   31   32 1    
    35   32   33 1    
    36   32   34 1    
    37   32   35 1    
    38   16   36 2    
    39   16   37 2    
    40    2   38 1    
    41   38   39 1    
    42   38   40 1    
@<TRIPOS>SUBSTRUCTURE
     1 ****        1 TEMP              0 ****  ****    0 ROOT 
@<TRIPOS>SET
UNITY_3DHIT     STATIC     ATOMS    <user>   **** Atoms matching 3D or FLEX Search
0
