#	Name:			23-4b
#	Creating user name:	jeff
#	Creation time:		Thu Dec  4 18:13:35 2003

#	Modifying user name:	jeff
#	Modification time:	Thu Dec  4 18:13:36 2003

@<TRIPOS>MOLECULE
23-4b
   37    39     1     0     1
SMALL
USER_CHARGES
****
From 3DB ct
@<TRIPOS>ATOM
      1 N          10.125000    2.628000   12.805000 N.ar      1 <1>        -0.712600 
      2 C          10.798000    1.969000   11.873000 C.ar      1 <1>         0.809900 
      3 N          12.079000    2.166000   11.604000 N.ar      1 <1>        -0.704200 
      4 C          12.735000    3.076000   12.303000 C.ar      1 <1>         0.840900 
      5 C          12.156000    3.850000   13.316000 C.ar      1 <1>        -0.859100 
      6 C          10.789000    3.552000   13.516000 C.ar      1 <1>         0.817000 
      7 N           9.999000    4.183000   14.466000 N.pl3     1 <1>        -0.756200 
      8 H          10.276000    4.017000   15.431000 H         1 <1>         0.324300 
      9 H           9.850000    5.176000   14.306000 H         1 <1>         0.323300 
     10 C          13.002000    4.812000   13.996000 C.ar      1 <1>         0.482600 
     11 C          14.357000    4.920000   13.623000 C.ar      1 <1>        -0.451200 
     12 C          14.790000    4.096000   12.598000 C.ar      1 <1>         0.395100 
     13 H          15.820000    4.134000   12.245000 H         1 <1>         0.086100 
     14 N          14.011000    3.198000   11.955000 N.ar      1 <1>        -0.589300 
     15 C          15.351000    5.878000   14.240000 C.3       1 <1>         0.210300 
     16 H          15.858000    5.393000   15.084000 H         1 <1>         0.056900 
     17 H          14.817000    6.740000   14.657000 H         1 <1>         0.048300 
     18 N          16.332000    6.285000   13.249000 N.pl3     1 <1>        -0.769800 
     19 H          17.285000    5.952000   13.379000 H         1 <1>         0.385200 
     20 C          16.062000    7.098000   12.167000 C.ar      1 <1>         0.453100 
     21 C          14.779000    7.648000   12.041000 C.ar      1 <1>        -0.277700 
     22 H          14.016000    7.430000   12.787000 H         1 <1>         0.123500 
     23 C          14.443000    8.482000   10.969000 C.ar      1 <1>         0.132100 
     24 H          13.436000    8.889000   10.907000 H         1 <1>         0.067500 
     25 C          15.393000    8.784000    9.996000 C.ar      1 <1>        -0.290200 
     26 C          16.678000    8.248000   10.103000 C.ar      1 <1>        -0.107500 
     27 C          17.005000    7.413000   11.182000 C.ar      1 <1>        -0.159600 
     28 H          18.013000    7.010000   11.237000 H         1 <1>         0.082700 
     29 Cl         17.914000    8.576000    8.936000 Cl        1 <1>         0.059500 
     30 Cl         14.923000    9.820000    8.694000 Cl        1 <1>         0.057000 
     31 C          12.450000    5.692000   15.091000 C.3       1 <1>        -0.212700 
     32 H          13.183000    6.386000   15.507000 H         1 <1>         0.040300 
     33 H          12.101000    5.081000   15.929000 H         1 <1>         0.076800 
     34 H          11.638000    6.314000   14.704000 H         1 <1>         0.068100 
     35 N          10.130000    1.030000   11.149000 N.pl3     1 <1>        -0.807200 
     36 H          10.614000    0.510000   10.431000 H         1 <1>         0.381600 
     37 H           9.152000    0.860000   11.333000 H         1 <1>         0.375000 
@<TRIPOS>BOND
     1    1    2 ar   
     2    2    3 ar   
     3    3    4 ar   
     4    4    5 ar   
     5    5    6 ar   
     6    6    1 ar   
     7    6    7 1    
     8    7    8 1    
     9    7    9 1    
    10    5   10 ar   
    11   10   11 ar   
    12   11   12 ar   
    13   12   13 1    
    14   12   14 ar   
    15   14    4 ar   
    16   11   15 1    
    17   15   16 1    
    18   15   17 1    
    19   15   18 1    
    20   18   19 1    
    21   18   20 1    
    22   20   21 ar   
    23   21   22 1    
    24   21   23 ar   
    25   23   24 1    
    26   23   25 ar   
    27   25   26 ar   
    28   26   27 ar   
    29   27   28 1    
    30   27   20 ar   
    31   26   29 1    
    32   25   30 1    
    33   10   31 1    
    34   31   32 1    
    35   31   33 1    
    36   31   34 1    
    37    2   35 1    
    38   35   36 1    
    39   35   37 1    
@<TRIPOS>SUBSTRUCTURE
     1 ****        1 TEMP              0 ****  ****    0 ROOT 
@<TRIPOS>SET
UNITY_3DHIT     STATIC     ATOMS    <user>   **** Atoms matching 3D or FLEX Search
0
