#	Name:			23-6a
#	Creating user name:	jeff
#	Creation time:		Thu Dec  4 18:13:36 2003

#	Modifying user name:	jeff
#	Modification time:	Thu Dec  4 18:13:36 2003

@<TRIPOS>MOLECULE
23-6a
   51    53     1     0     1
SMALL
USER_CHARGES
****
From 3DB ct
@<TRIPOS>ATOM
      1 N          10.110000    2.627000   12.825000 N.ar      1 <1>        -0.718300 
      2 C          10.757000    1.965000   11.880000 C.ar      1 <1>         0.816000 
      3 N          12.038000    2.138000   11.597000 N.ar      1 <1>        -0.701400 
      4 C          12.717000    3.038000   12.289000 C.ar      1 <1>         0.834200 
      5 C          12.164000    3.828000   13.301000 C.ar      1 <1>        -0.875900 
      6 C          10.798000    3.540000   13.529000 C.ar      1 <1>         0.832800 
      7 N          10.032000    4.175000   14.495000 N.pl3     1 <1>        -0.753200 
      8 H          10.338000    4.025000   15.453000 H         1 <1>         0.319600 
      9 H           9.858000    5.163000   14.325000 H         1 <1>         0.325700 
     10 C          13.033000    4.791000   13.955000 C.ar      1 <1>         0.491300 
     11 C          14.393000    4.876000   13.577000 C.ar      1 <1>        -0.312400 
     12 C          14.797000    4.015000   12.571000 C.ar      1 <1>         0.363100 
     13 H          15.823000    3.990000   12.212000 H         1 <1>         0.084300 
     14 N          13.994000    3.130000   11.939000 N.ar      1 <1>        -0.581500 
     15 C          15.363000    5.843000   14.240000 C.3       1 <1>        -0.307600 
     16 H          15.866000    5.287000   15.042000 H         1 <1>         0.144900 
     17 H          14.822000    6.652000   14.743000 H         1 <1>         0.145800 
     18 N          16.409000    6.411000   13.374000 N.am      1 <1>        -0.139000 
     19 C          16.057000    7.215000   12.225000 C.ar      1 <1>         0.248200 
     20 C          16.990000    7.493000   11.209000 C.ar      1 <1>        -0.377100 
     21 H          18.008000    7.123000   11.259000 H         1 <1>         0.195400 
     22 C          16.637000    8.229000   10.069000 C.ar      1 <1>         0.288500 
     23 C          15.349000    8.740000    9.928000 C.ar      1 <1>        -0.156200 
     24 C          14.421000    8.512000   10.942000 C.ar      1 <1>         0.456800 
     25 C          14.756000    7.723000   12.053000 C.ar      1 <1>        -0.465700 
     26 H          13.968000    7.555000   12.781000 H         1 <1>         0.166300 
     27 O          13.137000    8.991000   10.872000 O.3       1 <1>        -0.314000 
     28 C          12.968000    9.786000    9.693000 C.3       1 <1>         0.048900 
     29 H          11.947000   10.179000    9.701000 H         1 <1>         0.043100 
     30 H          13.091000    9.192000    8.782000 H         1 <1>         0.047100 
     31 H          13.662000   10.634000    9.690000 H         1 <1>         0.049100 
     32 O          15.045000    9.483000    8.818000 O.3       1 <1>        -0.269400 
     33 C          16.201000    9.650000    7.990000 C.3       1 <1>         0.073900 
     34 H          15.988000   10.453000    7.279000 H         1 <1>         0.036600 
     35 H          16.406000    8.740000    7.418000 H         1 <1>         0.030000 
     36 H          17.082000    9.940000    8.576000 H         1 <1>         0.031700 
     37 O          17.569000    8.494000    9.096000 O.3       1 <1>        -0.224900 
     38 C          18.802000    7.817000    9.366000 C.3       1 <1>        -0.014400 
     39 H          19.364000    8.328000   10.155000 H         1 <1>         0.055600 
     40 H          19.404000    7.843000    8.452000 H         1 <1>         0.069600 
     41 H          18.635000    6.767000    9.630000 H         1 <1>         0.048300 
     42 C          17.728000    6.135000   13.751000 C.2       1 <1>         0.401400 
     43 H          17.778000    5.415000   14.585000 H         1 <1>         0.057500 
     44 O          18.774000    6.589000   13.293000 O.2       1 <1>        -0.419100 
     45 C          12.494000    5.689000   15.045000 C.3       1 <1>        -0.228700 
     46 H          12.195000    5.093000   15.913000 H         1 <1>         0.074600 
     47 H          11.650000    6.274000   14.671000 H         1 <1>         0.071700 
     48 H          13.217000    6.422000   15.408000 H         1 <1>         0.060700 
     49 N          10.058000    1.055000   11.150000 N.pl3     1 <1>        -0.807900 
     50 H          10.511000    0.552000   10.403000 H         1 <1>         0.379500 
     51 H           9.071000    0.931000   11.325000 H         1 <1>         0.374200 
@<TRIPOS>BOND
     1    1    2 ar   
     2    2    3 ar   
     3    3    4 ar   
     4    4    5 ar   
     5    5    6 ar   
     6    6    1 ar   
     7    6    7 1    
     8    7    8 1    
     9    7    9 1    
    10    5   10 ar   
    11   10   11 ar   
    12   11   12 ar   
    13   12   13 1    
    14   12   14 ar   
    15   14    4 ar   
    16   11   15 1    
    17   15   16 1    
    18   15   17 1    
    19   15   18 1    
    20   18   19 1    
    21   19   20 ar   
    22   20   21 1    
    23   20   22 ar   
    24   22   23 ar   
    25   23   24 ar   
    26   24   25 ar   
    27   25   26 1    
    28   25   19 ar   
    29   24   27 1    
    30   27   28 1    
    31   28   29 1    
    32   28   30 1    
    33   28   31 1    
    34   23   32 1    
    35   32   33 1    
    36   33   34 1    
    37   33   35 1    
    38   33   36 1    
    39   22   37 1    
    40   37   38 1    
    41   38   39 1    
    42   38   40 1    
    43   38   41 1    
    44   18   42 am   
    45   42   43 1    
    46   42   44 2    
    47   10   45 1    
    48   45   46 1    
    49   45   47 1    
    50   45   48 1    
    51    2   49 1    
    52   49   50 1    
    53   49   51 1    
@<TRIPOS>SUBSTRUCTURE
     1 ****        1 TEMP              0 ****  ****    0 ROOT 
@<TRIPOS>SET
UNITY_3DHIT     STATIC     ATOMS    <user>   **** Atoms matching 3D or FLEX Search
0
