#	Name:			23-6b
#	Creating user name:	jeff
#	Creation time:		Thu Dec  4 18:13:36 2003

#	Modifying user name:	jeff
#	Modification time:	Thu Dec  4 18:13:36 2003

@<TRIPOS>MOLECULE
23-6b
   39    41     1     0     1
SMALL
USER_CHARGES
****
From 3DB ct
@<TRIPOS>ATOM
      1 N          10.105000    2.631000   12.813000 N.ar      1 <1>        -0.728600 
      2 C          10.762000    1.959000   11.880000 C.ar      1 <1>         0.833700 
      3 N          12.043000    2.139000   11.600000 N.ar      1 <1>        -0.713300 
      4 C          12.715000    3.045000   12.290000 C.ar      1 <1>         0.862000 
      5 C          12.157000    3.830000   13.304000 C.ar      1 <1>        -0.928200 
      6 C          10.786000    3.551000   13.514000 C.ar      1 <1>         0.851400 
      7 N          10.011000    4.197000   14.465000 N.pl3     1 <1>        -0.753800 
      8 H          10.277000    4.017000   15.430000 H         1 <1>         0.323100 
      9 H           9.885000    5.195000   14.312000 H         1 <1>         0.321400 
     10 C          13.025000    4.782000   13.973000 C.ar      1 <1>         0.547100 
     11 C          14.378000    4.891000   13.580000 C.ar      1 <1>        -0.349900 
     12 C          14.788000    4.042000   12.565000 C.ar      1 <1>         0.331200 
     13 H          15.811000    4.042000   12.195000 H         1 <1>         0.108400 
     14 N          13.990000    3.148000   11.937000 N.ar      1 <1>        -0.579700 
     15 C          15.341000    5.865000   14.241000 C.3       1 <1>        -0.209700 
     16 H          15.814000    5.332000   15.075000 H         1 <1>         0.136900 
     17 H          14.796000    6.705000   14.687000 H         1 <1>         0.126400 
     18 N          16.412000    6.408000   13.388000 N.am      1 <1>        -0.303500 
     19 C          16.075000    7.189000   12.222000 C.ar      1 <1>         0.192000 
     20 C          17.012000    7.467000   11.216000 C.ar      1 <1>        -0.197700 
     21 H          18.041000    7.127000   11.277000 H         1 <1>         0.160100 
     22 C          16.679000    8.233000   10.088000 C.ar      1 <1>         0.101200 
     23 H          17.442000    8.427000    9.337000 H         1 <1>         0.075000 
     24 C          15.394000    8.744000    9.938000 C.ar      1 <1>        -0.258200 
     25 C          14.443000    8.487000   10.924000 C.ar      1 <1>        -0.151100 
     26 C          14.783000    7.722000   12.051000 C.ar      1 <1>         0.029900 
     27 H          13.997000    7.542000   12.779000 H         1 <1>         0.033400 
     28 Cl         12.821000    9.084000   10.816000 Cl        1 <1>         0.055000 
     29 Cl         15.048000    9.679000    8.528000 Cl        1 <1>         0.069400 
     30 C          17.722000    6.132000   13.794000 C.2       1 <1>         0.455500 
     31 H          17.747000    5.563000   14.740000 H         1 <1>         0.053800 
     32 O          18.781000    6.405000   13.235000 O.2       1 <1>        -0.410200 
     33 C          12.490000    5.656000   15.084000 C.3       1 <1>        -0.239800 
     34 H          12.107000    5.038000   15.901000 H         1 <1>         0.076300 
     35 H          11.709000    6.319000   14.701000 H         1 <1>         0.080400 
     36 H          13.245000    6.304000   15.535000 H         1 <1>         0.053700 
     37 N          10.077000    1.025000   11.165000 N.pl3     1 <1>        -0.818200 
     38 H          10.549000    0.497000   10.446000 H         1 <1>         0.384800 
     39 H           9.098000    0.869000   11.355000 H         1 <1>         0.379600 
@<TRIPOS>BOND
     1    1    2 ar   
     2    2    3 ar   
     3    3    4 ar   
     4    4    5 ar   
     5    5    6 ar   
     6    6    1 ar   
     7    6    7 1    
     8    7    8 1    
     9    7    9 1    
    10    5   10 ar   
    11   10   11 ar   
    12   11   12 ar   
    13   12   13 1    
    14   12   14 ar   
    15   14    4 ar   
    16   11   15 1    
    17   15   16 1    
    18   15   17 1    
    19   15   18 1    
    20   18   19 1    
    21   19   20 ar   
    22   20   21 1    
    23   20   22 ar   
    24   22   23 1    
    25   22   24 ar   
    26   24   25 ar   
    27   25   26 ar   
    28   26   27 1    
    29   26   19 ar   
    30   25   28 1    
    31   24   29 1    
    32   18   30 am   
    33   30   31 1    
    34   30   32 2    
    35   10   33 1    
    36   33   34 1    
    37   33   35 1    
    38   33   36 1    
    39    2   37 1    
    40   37   38 1    
    41   37   39 1    
@<TRIPOS>SUBSTRUCTURE
     1 ****        1 TEMP              0 ****  ****    0 ROOT 
@<TRIPOS>SET
UNITY_3DHIT     STATIC     ATOMS    <user>   **** Atoms matching 3D or FLEX Search
0
