#	Name:			23-7
#	Creating user name:	jeff
#	Creation time:		Thu Dec  4 18:13:36 2003

#	Modifying user name:	jeff
#	Modification time:	Thu Dec  4 18:13:36 2003

@<TRIPOS>MOLECULE
23-7
   53    55     1     0     1
SMALL
USER_CHARGES
****
From 3DB ct
@<TRIPOS>ATOM
      1 N          11.883000    2.219000   11.353000 N.ar      1 <1>        -0.738600 
      2 C          10.704000    1.912000   11.921000 C.ar      1 <1>         0.867900 
      3 N           9.989000    0.921000   11.356000 N.pl3     1 <1>        -0.853400 
      4 H          10.340000    0.457000   10.543000 H         1 <1>         0.385300 
      5 H           9.106000    0.662000   11.748000 H         1 <1>         0.384600 
      6 N          10.179000    2.504000   13.007000 N.ar      1 <1>        -0.752600 
      7 C          10.906000    3.499000   13.550000 C.ar      1 <1>         0.855500 
      8 N          10.415000    4.139000   14.653000 N.pl3     1 <1>        -0.825200 
      9 H           9.496000    3.901000   14.972000 H         1 <1>         0.340800 
     10 H          10.877000    4.943000   15.021000 H         1 <1>         0.358600 
     11 C          12.156000    3.901000   13.051000 C.ar      1 <1>        -0.905200 
     12 C          12.974000    5.077000   13.645000 C.3       1 <1>         0.515000 
     13 H          12.943000    4.998000   14.746000 H         1 <1>        -0.034500 
     14 C          12.316000    6.413000   13.216000 C.3       1 <1>        -0.259100 
     15 H          12.834000    7.288000   13.639000 H         1 <1>         0.042800 
     16 H          12.338000    6.511000   12.117000 H         1 <1>         0.084800 
     17 H          11.261000    6.474000   13.527000 H         1 <1>         0.035400 
     18 C          14.431000    5.032000   13.199000 C.2       1 <1>        -0.198300 
     19 C          14.779000    4.339000   12.081000 C.2       1 <1>         0.138200 
     20 H          15.819000    4.329000   11.701000 H         1 <1>         0.120000 
     21 N          13.849000    3.536000   11.419000 N.pl3     1 <1>        -0.559400 
     22 H          14.168000    3.040000   10.611000 H         1 <1>         0.343100 
     23 C          12.593000    3.201000   11.931000 C.ar      1 <1>         0.749800 
     24 C          15.409000    5.809000   14.042000 C.3       1 <1>        -0.373100 
     25 H          14.861000    6.519000   14.684000 H         1 <1>         0.170900 
     26 H          15.882000    5.108000   14.755000 H         1 <1>         0.145600 
     27 N          16.481000    6.556000   13.359000 N.am      1 <1>        -0.112400 
     28 C          16.070000    7.295000   12.188000 C.ar      1 <1>         0.190200 
     29 C          17.032000    7.521000   11.218000 C.ar      1 <1>        -0.348100 
     30 H          17.915000    7.194000   11.340000 H         1 <1>         0.187800 
     31 C          16.670000    8.229000   10.084000 C.ar      1 <1>         0.265700 
     32 C          15.374000    8.720000    9.931000 C.ar      1 <1>        -0.134600 
     33 C          14.472000    8.497000   10.940000 C.ar      1 <1>         0.410300 
     34 O          13.110000    8.897000   10.996000 O.3       1 <1>        -0.318600 
     35 C          12.895000    9.719000    9.837000 C.3       1 <1>         0.063300 
     36 H          11.993000   10.017000    9.823000 H         1 <1>         0.041000 
     37 H          13.476000   10.470000    9.870000 H         1 <1>         0.045800 
     38 H          13.074000    9.214000    9.053000 H         1 <1>         0.029300 
     39 C          14.806000    7.792000   12.068000 C.ar      1 <1>        -0.399500 
     40 H          14.171000    7.647000   12.760000 H         1 <1>         0.162300 
     41 O          15.047000    9.370000    8.854000 O.3       1 <1>        -0.267900 
     42 C          16.262000    9.577000    8.144000 C.3       1 <1>         0.114400 
     43 H          17.096000    9.133000    8.688000 H         1 <1>         0.021200 
     44 H          16.187000    9.116000    7.159000 H         1 <1>         0.010400 
     45 H          16.435000   10.647000    8.029000 H         1 <1>         0.032700 
     46 O          17.544000    8.443000    9.145000 O.3       1 <1>        -0.214800 
     47 C          18.718000    7.746000    9.543000 C.3       1 <1>        -0.025700 
     48 H          18.548000    7.236000   10.491000 H         1 <1>         0.048100 
     49 H          18.978000    7.012000    8.780000 H         1 <1>         0.071500 
     50 H          19.539000    8.454000    9.655000 H         1 <1>         0.058300 
     51 C          17.758000    6.376000   13.848000 C.2       1 <1>         0.398500 
     52 H          17.767000    5.724000   14.756000 H         1 <1>         0.056900 
     53 O          18.809000    6.830000   13.420000 O.2       1 <1>        -0.424900 
@<TRIPOS>BOND
     1    1    2 ar   
     2    2    3 1    
     3    3    4 1    
     4    3    5 1    
     5    2    6 ar   
     6    6    7 ar   
     7    7    8 1    
     8    8    9 1    
     9    8   10 1    
    10    7   11 ar   
    11   11   12 1    
    12   12   13 1    
    13   12   14 1    
    14   14   15 1    
    15   14   16 1    
    16   14   17 1    
    17   12   18 1    
    18   18   19 2    
    19   19   20 1    
    20   19   21 1    
    21   21   22 1    
    22   21   23 1    
    23   23    1 ar   
    24   23   11 ar   
    25   18   24 1    
    26   24   25 1    
    27   24   26 1    
    28   24   27 1    
    29   27   28 1    
    30   28   29 ar   
    31   29   30 1    
    32   29   31 ar   
    33   31   32 ar   
    34   32   33 ar   
    35   33   34 1    
    36   34   35 1    
    37   35   36 1    
    38   35   37 1    
    39   35   38 1    
    40   33   39 ar   
    41   39   40 1    
    42   39   28 ar   
    43   32   41 1    
    44   41   42 1    
    45   42   43 1    
    46   42   44 1    
    47   42   45 1    
    48   31   46 1    
    49   46   47 1    
    50   47   48 1    
    51   47   49 1    
    52   47   50 1    
    53   27   51 am   
    54   51   52 1    
    55   51   53 2    
@<TRIPOS>SUBSTRUCTURE
     1 ****        1 TEMP              0 ****  ****    0 ROOT 
@<TRIPOS>SET
UNITY_3DHIT     STATIC     ATOMS    <user>   **** Atoms matching 3D or FLEX Search
0
@<TRIPOS>UNITY_BOND_ATTR
18 1
S N
