#	Name:			23-8b
#	Creating user name:	jeff
#	Creation time:		Thu Dec  4 18:13:36 2003

#	Modifying user name:	jeff
#	Modification time:	Thu Dec  4 18:13:36 2003

@<TRIPOS>MOLECULE
23-8b
   55    57     1     0     1
SMALL
USER_CHARGES
****
From 3DB ct
@<TRIPOS>ATOM
      1 N          11.925000    2.185000   11.417000 N.ar      1 <1>        -0.748600 
      2 C          10.692000    1.928000   11.890000 C.ar      1 <1>         0.866200 
      3 N           9.972000    0.988000   11.253000 N.pl3     1 <1>        -0.857900 
      4 H          10.350000    0.531000   10.448000 H         1 <1>         0.385400 
      5 H           9.049000    0.773000   11.572000 H         1 <1>         0.385000 
      6 N          10.133000    2.517000   12.955000 N.ar      1 <1>        -0.738300 
      7 C          10.861000    3.473000   13.572000 C.ar      1 <1>         0.773000 
      8 N          10.315000    4.054000   14.679000 N.pl3     1 <1>        -0.748800 
      9 H           9.407000    3.756000   14.977000 H         1 <1>         0.322300 
     10 H          10.805000    4.757000   15.191000 H         1 <1>         0.324900 
     11 C          12.136000    3.872000   13.141000 C.ar      1 <1>        -0.852300 
     12 C          12.952000    5.000000   13.826000 C.3       1 <1>         0.440100 
     13 H          13.061000    4.708000   14.887000 H         1 <1>        -0.028700 
     14 C          12.213000    6.357000   13.746000 C.3       1 <1>        -0.231600 
     15 H          12.798000    7.162000   14.217000 H         1 <1>         0.037800 
     16 H          12.050000    6.636000   12.692000 H         1 <1>         0.070500 
     17 H          11.228000    6.353000   14.234000 H         1 <1>         0.046000 
     18 C          14.367000    5.138000   13.175000 C.3       1 <1>        -0.087600 
     19 H          14.252000    5.787000   12.282000 H         1 <1>         0.127000 
     20 C          14.874000    3.803000   12.619000 C.3       1 <1>         0.112100 
     21 H          14.999000    3.053000   13.422000 H         1 <1>         0.042000 
     22 H          15.860000    3.931000   12.142000 H         1 <1>         0.061800 
     23 N          13.925000    3.360000   11.607000 N.pl3     1 <1>        -0.671500 
     24 H          14.232000    2.622000   10.998000 H         1 <1>         0.357400 
     25 C          12.627000    3.125000   12.057000 C.ar      1 <1>         0.767100 
     26 C          15.415000    5.879000   14.051000 C.3       1 <1>        -0.488100 
     27 H          14.895000    6.602000   14.702000 H         1 <1>         0.175400 
     28 H          15.867000    5.154000   14.746000 H         1 <1>         0.170300 
     29 N          16.517000    6.554000   13.334000 N.am      1 <1>        -0.080000 
     30 C          16.118000    7.332000   12.183000 C.ar      1 <1>         0.207400 
     31 C          17.067000    7.558000   11.201000 C.ar      1 <1>        -0.352100 
     32 H          17.955000    7.242000   11.317000 H         1 <1>         0.179500 
     33 C          16.685000    8.249000   10.062000 C.ar      1 <1>         0.284400 
     34 C          15.382000    8.723000    9.918000 C.ar      1 <1>        -0.132100 
     35 C          14.493000    8.501000   10.938000 C.ar      1 <1>         0.414100 
     36 O          13.127000    8.886000   11.005000 O.3       1 <1>        -0.311800 
     37 C          12.896000    9.710000    9.850000 C.3       1 <1>         0.057800 
     38 H          11.991000    9.998000    9.843000 H         1 <1>         0.042300 
     39 H          13.469000   10.467000    9.882000 H         1 <1>         0.047400 
     40 H          13.075000    9.209000    9.063000 H         1 <1>         0.032000 
     41 C          14.847000    7.813000   12.071000 C.ar      1 <1>        -0.428800 
     42 H          14.087000    7.677000   12.870000 H         1 <1>         0.165700 
     43 O          15.036000    9.356000    8.837000 O.3       1 <1>        -0.273100 
     44 C          16.244000    9.599000    8.127000 C.3       1 <1>         0.137100 
     45 H          17.091000    9.184000    8.675000 H         1 <1>         0.015100 
     46 H          16.186000    9.131000    7.145000 H         1 <1>         0.007200 
     47 H          16.383000   10.674000    8.007000 H         1 <1>         0.024900 
     48 O          17.546000    8.462000    9.112000 O.3       1 <1>        -0.230200 
     49 C          18.728000    7.772000    9.498000 C.3       1 <1>        -0.012600 
     50 H          18.572000    7.266000   10.452000 H         1 <1>         0.044000 
     51 H          18.982000    7.035000    8.736000 H         1 <1>         0.070600 
     52 H          19.547000    8.485000    9.598000 H         1 <1>         0.057800 
     53 C          17.800000    6.338000   13.789000 C.2       1 <1>         0.388000 
     54 H          17.823000    5.680000   14.690000 H         1 <1>         0.050000 
     55 O          18.849000    6.769000   13.332000 O.2       1 <1>        -0.415500 
@<TRIPOS>BOND
     1    1    2 ar   
     2    2    3 1    
     3    3    4 1    
     4    3    5 1    
     5    2    6 ar   
     6    6    7 ar   
     7    7    8 1    
     8    8    9 1    
     9    8   10 1    
    10    7   11 ar   
    11   11   12 1    
    12   12   13 1    
    13   12   14 1    
    14   14   15 1    
    15   14   16 1    
    16   14   17 1    
    17   12   18 1    
    18   18   19 1    
    19   18   20 1    
    20   20   21 1    
    21   20   22 1    
    22   20   23 1    
    23   23   24 1    
    24   23   25 1    
    25   25    1 ar   
    26   25   11 ar   
    27   18   26 1    
    28   26   27 1    
    29   26   28 1    
    30   26   29 1    
    31   29   30 1    
    32   30   31 ar   
    33   31   32 1    
    34   31   33 ar   
    35   33   34 ar   
    36   34   35 ar   
    37   35   36 1    
    38   36   37 1    
    39   37   38 1    
    40   37   39 1    
    41   37   40 1    
    42   35   41 ar   
    43   41   42 1    
    44   41   30 ar   
    45   34   43 1    
    46   43   44 1    
    47   44   45 1    
    48   44   46 1    
    49   44   47 1    
    50   33   48 1    
    51   48   49 1    
    52   49   50 1    
    53   49   51 1    
    54   49   52 1    
    55   29   53 am   
    56   53   54 1    
    57   53   55 2    
@<TRIPOS>SUBSTRUCTURE
     1 ****        1 TEMP              0 ****  ****    0 ROOT 
@<TRIPOS>SET
UNITY_3DHIT     STATIC     ATOMS    <user>   **** Atoms matching 3D or FLEX Search
0
