#	Name:			23-8
#	Creating user name:	jeff
#	Creation time:		Thu Dec  4 18:13:36 2003

#	Modifying user name:	jeff
#	Modification time:	Thu Dec  4 18:13:36 2003

@<TRIPOS>MOLECULE
23-8
   53    55     1     0     1
SMALL
USER_CHARGES
****
From 3DB ct
@<TRIPOS>ATOM
      1 N          11.795000    2.012000   11.393000 N.ar      1 <1>        -0.741900 
      2 C          10.596000    1.826000   11.975000 C.ar      1 <1>         0.839700 
      3 N           9.799000    0.877000   11.450000 N.pl3     1 <1>        -0.835900 
      4 H          10.101000    0.362000   10.648000 H         1 <1>         0.378200 
      5 H           8.898000    0.710000   11.851000 H         1 <1>         0.378600 
      6 N          10.140000    2.491000   13.045000 N.ar      1 <1>        -0.746800 
      7 C          10.944000    3.455000   13.543000 C.ar      1 <1>         0.840600 
      8 N          10.510000    4.129000   14.650000 N.pl3     1 <1>        -0.833000 
      9 H           9.588000    3.938000   14.991000 H         1 <1>         0.343300 
     10 H          11.024000    4.910000   15.000000 H         1 <1>         0.361400 
     11 C          12.198000    3.772000   13.001000 C.ar      1 <1>        -0.882300 
     12 C          13.096000    4.913000   13.550000 C.3       1 <1>         0.418200 
     13 H          13.222000    4.737000   14.633000 H         1 <1>        -0.023400 
     14 C          12.394000    6.276000   13.328000 C.3       1 <1>        -0.322200 
     15 H          12.998000    7.117000   13.700000 H         1 <1>         0.059600 
     16 H          12.232000    6.440000   12.248000 H         1 <1>         0.089000 
     17 H          11.412000    6.348000   13.816000 H         1 <1>         0.063700 
     18 C          14.506000    4.921000   12.867000 C.3       1 <1>        -0.092200 
     19 H          14.437000    5.583000   11.983000 H         1 <1>         0.101500 
     20 C          14.880000    3.545000   12.306000 C.3       1 <1>         0.209600 
     21 H          15.022000    2.817000   13.127000 H         1 <1>         0.012600 
     22 H          15.838000    3.606000   11.762000 H         1 <1>         0.033400 
     23 N          13.844000    3.126000   11.371000 N.pl3     1 <1>        -0.700700 
     24 H          14.076000    2.362000   10.762000 H         1 <1>         0.350700 
     25 C          12.577000    2.956000   11.924000 C.ar      1 <1>         0.785400 
     26 C          15.627000    5.469000   13.787000 C.3       1 <1>        -0.173700 
     27 H          15.156000    5.785000   14.737000 H         1 <1>         0.115300 
     28 H          16.311000    4.649000   14.070000 H         1 <1>         0.101700 
     29 N          16.389000    6.602000   13.307000 N.pl3     1 <1>        -0.457800 
     30 H          17.371000    6.556000   13.500000 H         1 <1>         0.287600 
     31 C          16.038000    7.346000   12.178000 C.ar      1 <1>         0.416200 
     32 C          17.024000    7.572000   11.233000 C.ar      1 <1>        -0.537900 
     33 H          17.899000    7.228000   11.368000 H         1 <1>         0.164100 
     34 C          16.699000    8.304000   10.102000 C.ar      1 <1>         0.405100 
     35 C          15.415000    8.818000    9.930000 C.ar      1 <1>        -0.199700 
     36 C          14.487000    8.594000   10.915000 C.ar      1 <1>         0.394900 
     37 O          13.130000    9.016000   10.948000 O.3       1 <1>        -0.300500 
     38 C          12.926000    9.772000    9.743000 C.3       1 <1>         0.073700 
     39 H          12.028000   10.081000    9.712000 H         1 <1>         0.034000 
     40 H          13.518000   10.515000    9.732000 H         1 <1>         0.045300 
     41 H          13.097000    9.219000    8.990000 H         1 <1>         0.035300 
     42 C          14.784000    7.866000   12.039000 C.ar      1 <1>        -0.455100 
     43 H          13.992000    7.719000   12.800000 H         1 <1>         0.161800 
     44 O          15.122000    9.490000    8.857000 O.3       1 <1>        -0.262400 
     45 C          16.325000    9.556000    8.101000 C.3       1 <1>         0.027100 
     46 H          17.125000    9.027000    8.621000 H         1 <1>         0.036000 
     47 H          16.164000    9.097000    7.126000 H         1 <1>         0.026500 
     48 H          16.611000   10.599000    7.966000 H         1 <1>         0.061100 
     49 O          17.596000    8.518000    9.186000 O.3       1 <1>        -0.224900 
     50 C          18.721000    7.730000    9.555000 C.3       1 <1>        -0.046700 
     51 H          18.509000    7.178000   10.471000 H         1 <1>         0.055900 
     52 H          18.947000    7.026000    8.754000 H         1 <1>         0.076400 
     53 H          19.581000    8.380000    9.717000 H         1 <1>         0.053800 
@<TRIPOS>BOND
     1    1    2 ar   
     2    2    3 1    
     3    3    4 1    
     4    3    5 1    
     5    2    6 ar   
     6    6    7 ar   
     7    7    8 1    
     8    8    9 1    
     9    8   10 1    
    10    7   11 ar   
    11   11   12 1    
    12   12   13 1    
    13   12   14 1    
    14   14   15 1    
    15   14   16 1    
    16   14   17 1    
    17   12   18 1    
    18   18   19 1    
    19   18   20 1    
    20   20   21 1    
    21   20   22 1    
    22   20   23 1    
    23   23   24 1    
    24   23   25 1    
    25   25    1 ar   
    26   25   11 ar   
    27   18   26 1    
    28   26   27 1    
    29   26   28 1    
    30   26   29 1    
    31   29   30 1    
    32   29   31 1    
    33   31   32 ar   
    34   32   33 1    
    35   32   34 ar   
    36   34   35 ar   
    37   35   36 ar   
    38   36   37 1    
    39   37   38 1    
    40   38   39 1    
    41   38   40 1    
    42   38   41 1    
    43   36   42 ar   
    44   42   43 1    
    45   42   31 ar   
    46   35   44 1    
    47   44   45 1    
    48   45   46 1    
    49   45   47 1    
    50   45   48 1    
    51   34   49 1    
    52   49   50 1    
    53   50   51 1    
    54   50   52 1    
    55   50   53 1    
@<TRIPOS>SUBSTRUCTURE
     1 ****        1 TEMP              0 ****  ****    0 ROOT 
@<TRIPOS>SET
UNITY_3DHIT     STATIC     ATOMS    <user>   **** Atoms matching 3D or FLEX Search
0
