#	Name:			24-2e
#	Creating user name:	jeff
#	Creation time:		Thu Dec  4 18:13:37 2003

#	Modifying user name:	jeff
#	Modification time:	Thu Dec  4 18:13:37 2003

@<TRIPOS>MOLECULE
24-2e
   51    53     1     0     1
SMALL
USER_CHARGES
****
From 3DB ct
@<TRIPOS>ATOM
      1 N          10.123000    2.598000   12.814000 N.ar      1 <1>        -0.711700 
      2 C          10.802000    1.947000   11.881000 C.ar      1 <1>         0.801400 
      3 N          12.076000    2.168000   11.602000 N.ar      1 <1>        -0.701400 
      4 C          12.719000    3.094000   12.292000 C.ar      1 <1>         0.832800 
      5 C          12.132000    3.866000   13.301000 C.ar      1 <1>        -0.851900 
      6 C          10.774000    3.540000   13.514000 C.ar      1 <1>         0.814700 
      7 N           9.982000    4.150000   14.477000 N.pl3     1 <1>        -0.750400 
      8 H          10.279000    3.990000   15.437000 H         1 <1>         0.318600 
      9 H           9.799000    5.138000   14.323000 H         1 <1>         0.322000 
     10 C          12.963000    4.849000   13.969000 C.ar      1 <1>         0.462800 
     11 C          14.320000    4.962000   13.604000 C.ar      1 <1>        -0.406000 
     12 C          14.763000    4.137000   12.584000 C.ar      1 <1>         0.391000 
     13 H          15.795000    4.179000   12.235000 H         1 <1>         0.087500 
     14 N          13.993000    3.232000   11.941000 N.ar      1 <1>        -0.592000 
     15 C          15.314000    5.911000   14.240000 C.3       1 <1>         0.116000 
     16 H          15.791000    5.408000   15.090000 H         1 <1>         0.062600 
     17 H          14.771000    6.774000   14.641000 H         1 <1>         0.064500 
     18 N          16.322000    6.310000   13.275000 N.pl3     1 <1>        -0.537300 
     19 H          17.253000    5.921000   13.407000 H         1 <1>         0.315600 
     20 C          16.109000    7.116000   12.165000 C.ar      1 <1>         0.252200 
     21 C          14.813000    7.648000   12.007000 C.ar      1 <1>        -0.310000 
     22 H          14.048000    7.414000   12.747000 H         1 <1>         0.147000 
     23 C          14.462000    8.471000   10.931000 C.ar      1 <1>         0.266800 
     24 C          15.424000    8.780000    9.979000 C.ar      1 <1>        -0.275000 
     25 H          15.210000    9.419000    9.126000 H         1 <1>         0.111800 
     26 C          16.718000    8.268000   10.102000 C.ar      1 <1>        -0.091100 
     27 H          17.444000    8.553000    9.344000 H         1 <1>         0.103800 
     28 C          17.066000    7.431000   11.175000 C.ar      1 <1>         0.004900 
     29 O          18.333000    6.929000   11.329000 O.3       1 <1>        -0.290900 
     30 C          19.318000    7.318000   10.367000 C.3       1 <1>         0.231800 
     31 H          19.642000    8.347000   10.558000 H         1 <1>         0.007700 
     32 H          18.924000    7.226000    9.348000 H         1 <1>         0.011700 
     33 C          20.505000    6.383000   10.527000 C.3       1 <1>        -0.210500 
     34 H          21.298000    6.632000    9.816000 H         1 <1>         0.050200 
     35 H          20.199000    5.344000   10.367000 H         1 <1>         0.064300 
     36 H          20.908000    6.443000   11.543000 H         1 <1>         0.060000 
     37 O          13.162000    8.898000   10.931000 O.3       1 <1>        -0.321100 
     38 C          12.760000    9.751000    9.854000 C.3       1 <1>         0.261400 
     39 H          12.880000    9.234000    8.895000 H         1 <1>         0.006300 
     40 H          13.350000   10.674000    9.863000 H         1 <1>         0.002900 
     41 C          11.294000   10.094000   10.050000 C.3       1 <1>        -0.234000 
     42 H          10.939000   10.756000    9.255000 H         1 <1>         0.053600 
     43 H          11.138000   10.587000   11.015000 H         1 <1>         0.068500 
     44 H          10.682000    9.186000   10.052000 H         1 <1>         0.069100 
     45 C          12.394000    5.743000   15.044000 C.3       1 <1>        -0.198300 
     46 H          12.067000    5.148000   15.902000 H         1 <1>         0.069500 
     47 H          11.562000    6.330000   14.644000 H         1 <1>         0.063000 
     48 H          13.111000    6.471000   15.430000 H         1 <1>         0.040600 
     49 N          10.149000    0.989000   11.169000 N.pl3     1 <1>        -0.803600 
     50 H          10.641000    0.466000   10.460000 H         1 <1>         0.377100 
     51 H           9.180000    0.792000   11.373000 H         1 <1>         0.371100 
@<TRIPOS>BOND
     1    1    2 ar   
     2    2    3 ar   
     3    3    4 ar   
     4    4    5 ar   
     5    5    6 ar   
     6    6    1 ar   
     7    6    7 1    
     8    7    8 1    
     9    7    9 1    
    10    5   10 ar   
    11   10   11 ar   
    12   11   12 ar   
    13   12   13 1    
    14   12   14 ar   
    15   14    4 ar   
    16   11   15 1    
    17   15   16 1    
    18   15   17 1    
    19   15   18 1    
    20   18   19 1    
    21   18   20 1    
    22   20   21 ar   
    23   21   22 1    
    24   21   23 ar   
    25   23   24 ar   
    26   24   25 1    
    27   24   26 ar   
    28   26   27 1    
    29   26   28 ar   
    30   28   20 ar   
    31   28   29 1    
    32   29   30 1    
    33   30   31 1    
    34   30   32 1    
    35   30   33 1    
    36   33   34 1    
    37   33   35 1    
    38   33   36 1    
    39   23   37 1    
    40   37   38 1    
    41   38   39 1    
    42   38   40 1    
    43   38   41 1    
    44   41   42 1    
    45   41   43 1    
    46   41   44 1    
    47   10   45 1    
    48   45   46 1    
    49   45   47 1    
    50   45   48 1    
    51    2   49 1    
    52   49   50 1    
    53   49   51 1    
@<TRIPOS>SUBSTRUCTURE
     1 ****        1 TEMP              0 ****  ****    0 ROOT 
@<TRIPOS>SET
UNITY_3DHIT     STATIC     ATOMS    <user>   **** Atoms matching 3D or FLEX Search
0
