#	Name:			24-2b
#	Creating user name:	jeff
#	Creation time:		Thu Dec  4 18:13:36 2003

#	Modifying user name:	jeff
#	Modification time:	Thu Dec  4 18:13:36 2003

@<TRIPOS>MOLECULE
24-2b
   45    47     1     0     1
SMALL
USER_CHARGES
****
From 3DB ct
@<TRIPOS>ATOM
      1 N          10.112000    2.647000   12.779000 N.ar      1 <1>        -0.711500 
      2 C          10.792000    1.969000   11.868000 C.ar      1 <1>         0.800100 
      3 N          12.079000    2.151000   11.616000 N.ar      1 <1>        -0.696300 
      4 C          12.734000    3.058000   12.320000 C.ar      1 <1>         0.824300 
      5 C          12.155000    3.834000   13.331000 C.ar      1 <1>        -0.835300 
      6 C          10.775000    3.571000   13.492000 C.ar      1 <1>         0.815800 
      7 N           9.971000    4.237000   14.405000 N.pl3     1 <1>        -0.754900 
      8 H          10.137000    3.995000   15.379000 H         1 <1>         0.320400 
      9 H           9.932000    5.247000   14.289000 H         1 <1>         0.325200 
     10 C          13.012000    4.771000   14.036000 C.ar      1 <1>         0.435500 
     11 C          14.342000    4.947000   13.606000 C.ar      1 <1>        -0.379600 
     12 C          14.782000    4.092000   12.607000 C.ar      1 <1>         0.382600 
     13 H          15.814000    4.126000   12.258000 H         1 <1>         0.081300 
     14 N          14.014000    3.171000   11.984000 N.ar      1 <1>        -0.589200 
     15 C          15.325000    5.936000   14.201000 C.3       1 <1>         0.128000 
     16 H          15.790000    5.453000   15.069000 H         1 <1>         0.048400 
     17 H          14.827000    6.849000   14.534000 H         1 <1>         0.070200 
     18 N          16.328000    6.335000   13.221000 N.pl3     1 <1>        -0.574400 
     19 H          17.174000    5.766000   13.183000 H         1 <1>         0.320300 
     20 C          16.073000    7.158000   12.139000 C.ar      1 <1>         0.419500 
     21 C          14.789000    7.696000   11.989000 C.ar      1 <1>        -0.485000 
     22 H          14.027000    7.484000   12.739000 H         1 <1>         0.154900 
     23 C          14.447000    8.505000   10.898000 C.ar      1 <1>         0.476900 
     24 C          15.403000    8.781000    9.920000 C.ar      1 <1>        -0.497000 
     25 H          15.150000    9.407000    9.073000 H         1 <1>         0.154100 
     26 C          16.686000    8.242000   10.035000 C.ar      1 <1>         0.427600 
     27 C          17.006000    7.434000   11.135000 C.ar      1 <1>        -0.476000 
     28 H          18.014000    7.029000   11.190000 H         1 <1>         0.138200 
     29 O          17.714000    8.424000    9.149000 O.3       1 <1>        -0.293700 
     30 C          18.931000    7.729000    9.416000 C.3       1 <1>         0.056200 
     31 H          19.641000    7.984000    8.623000 H         1 <1>         0.054500 
     32 H          18.778000    6.645000    9.392000 H         1 <1>         0.034900 
     33 H          19.366000    8.050000   10.369000 H         1 <1>         0.028900 
     34 O          13.154000    8.957000   10.907000 O.3       1 <1>        -0.306800 
     35 C          12.749000    9.784000    9.817000 C.3       1 <1>         0.031700 
     36 H          11.700000   10.052000    9.976000 H         1 <1>         0.058300 
     37 H          12.816000    9.243000    8.868000 H         1 <1>         0.044300 
     38 H          13.331000   10.711000    9.790000 H         1 <1>         0.041700 
     39 C          12.486000    5.560000   15.211000 C.3       1 <1>        -0.195000 
     40 H          11.926000    4.913000   15.892000 H         1 <1>         0.069900 
     41 H          11.859000    6.387000   14.866000 H         1 <1>         0.065900 
     42 H          13.280000    5.969000   15.840000 H         1 <1>         0.039300 
     43 N          10.126000    1.030000   11.143000 N.pl3     1 <1>        -0.802600 
     44 H          10.616000    0.497000   10.439000 H         1 <1>         0.376800 
     45 H           9.143000    0.873000   11.311000 H         1 <1>         0.371600 
@<TRIPOS>BOND
     1    1    2 ar   
     2    2    3 ar   
     3    3    4 ar   
     4    4    5 ar   
     5    5    6 ar   
     6    6    1 ar   
     7    6    7 1    
     8    7    8 1    
     9    7    9 1    
    10    5   10 ar   
    11   10   11 ar   
    12   11   12 ar   
    13   12   13 1    
    14   12   14 ar   
    15   14    4 ar   
    16   11   15 1    
    17   15   16 1    
    18   15   17 1    
    19   15   18 1    
    20   18   19 1    
    21   18   20 1    
    22   20   21 ar   
    23   21   22 1    
    24   21   23 ar   
    25   23   24 ar   
    26   24   25 1    
    27   24   26 ar   
    28   26   27 ar   
    29   27   28 1    
    30   27   20 ar   
    31   26   29 1    
    32   29   30 1    
    33   30   31 1    
    34   30   32 1    
    35   30   33 1    
    36   23   34 1    
    37   34   35 1    
    38   35   36 1    
    39   35   37 1    
    40   35   38 1    
    41   10   39 1    
    42   39   40 1    
    43   39   41 1    
    44   39   42 1    
    45    2   43 1    
    46   43   44 1    
    47   43   45 1    
@<TRIPOS>SUBSTRUCTURE
     1 ****        1 TEMP              0 ****  ****    0 ROOT 
@<TRIPOS>SET
UNITY_3DHIT     STATIC     ATOMS    <user>   **** Atoms matching 3D or FLEX Search
0
