#	Name:			24-2a
#	Creating user name:	jeff
#	Creation time:		Thu Dec  4 18:13:36 2003

#	Modifying user name:	jeff
#	Modification time:	Thu Dec  4 18:13:36 2003

@<TRIPOS>MOLECULE
24-2a
   45    47     1     0     1
SMALL
USER_CHARGES
****
From 3DB ct
@<TRIPOS>ATOM
      1 N          10.121000    2.609000   12.803000 N.ar      1 <1>        -0.711800 
      2 C          10.803000    1.956000   11.875000 C.ar      1 <1>         0.800300 
      3 N          12.082000    2.167000   11.606000 N.ar      1 <1>        -0.696800 
      4 C          12.726000    3.087000   12.303000 C.ar      1 <1>         0.824600 
      5 C          12.137000    3.856000   13.314000 C.ar      1 <1>        -0.839700 
      6 C          10.774000    3.544000   13.512000 C.ar      1 <1>         0.813500 
      7 N           9.975000    4.168000   14.459000 N.pl3     1 <1>        -0.752000 
      8 H          10.249000    4.006000   15.425000 H         1 <1>         0.319500 
      9 H           9.816000    5.160000   14.298000 H         1 <1>         0.323300 
     10 C          12.972000    4.829000   13.994000 C.ar      1 <1>         0.444200 
     11 C          14.325000    4.953000   13.621000 C.ar      1 <1>        -0.399100 
     12 C          14.769000    4.131000   12.598000 C.ar      1 <1>         0.398200 
     13 H          15.798000    4.181000   12.245000 H         1 <1>         0.083500 
     14 N          14.002000    3.223000   11.957000 N.ar      1 <1>        -0.594100 
     15 C          15.309000    5.924000   14.238000 C.3       1 <1>         0.128500 
     16 H          15.796000    5.448000   15.098000 H         1 <1>         0.057200 
     17 H          14.759000    6.791000   14.620000 H         1 <1>         0.067500 
     18 N          16.308000    6.307000   13.257000 N.pl3     1 <1>        -0.517200 
     19 H          17.247000    5.942000   13.405000 H         1 <1>         0.298700 
     20 C          16.099000    7.111000   12.144000 C.ar      1 <1>         0.212900 
     21 C          14.803000    7.644000   11.987000 C.ar      1 <1>        -0.348800 
     22 H          14.036000    7.404000   12.724000 H         1 <1>         0.148900 
     23 C          14.455000    8.478000   10.920000 C.ar      1 <1>         0.350000 
     24 C          15.420000    8.795000    9.974000 C.ar      1 <1>        -0.307100 
     25 H          15.206000    9.437000    9.124000 H         1 <1>         0.135800 
     26 C          16.715000    8.283000   10.099000 C.ar      1 <1>        -0.120100 
     27 H          17.432000    8.564000    9.331000 H         1 <1>         0.127500 
     28 C          17.067000    7.446000   11.170000 C.ar      1 <1>         0.065500 
     29 O          18.326000    6.922000   11.323000 O.3       1 <1>        -0.247100 
     30 C          19.330000    7.299000   10.385000 C.3       1 <1>        -0.010800 
     31 H          20.252000    6.776000   10.658000 H         1 <1>         0.066100 
     32 H          19.532000    8.374000   10.435000 H         1 <1>         0.042300 
     33 H          19.059000    6.988000    9.370000 H         1 <1>         0.049100 
     34 O          13.157000    8.907000   10.922000 O.3       1 <1>        -0.305100 
     35 C          12.760000    9.757000    9.846000 C.3       1 <1>         0.055900 
     36 H          11.707000   10.012000    9.996000 H         1 <1>         0.056200 
     37 H          12.844000    9.239000    8.885000 H         1 <1>         0.030000 
     38 H          13.334000   10.689000    9.848000 H         1 <1>         0.028100 
     39 C          12.407000    5.703000   15.088000 C.3       1 <1>        -0.190800 
     40 H          12.061000    5.088000   15.924000 H         1 <1>         0.069400 
     41 H          11.592000    6.318000   14.698000 H         1 <1>         0.062900 
     42 H          13.134000    6.402000   15.508000 H         1 <1>         0.036300 
     43 N          10.148000    1.007000   11.152000 N.pl3     1 <1>        -0.803600 
     44 H          10.638000    0.491000   10.437000 H         1 <1>         0.376500 
     45 H           9.172000    0.824000   11.337000 H         1 <1>         0.371500 
@<TRIPOS>BOND
     1    1    2 ar   
     2    2    3 ar   
     3    3    4 ar   
     4    4    5 ar   
     5    5    6 ar   
     6    6    1 ar   
     7    6    7 1    
     8    7    8 1    
     9    7    9 1    
    10    5   10 ar   
    11   10   11 ar   
    12   11   12 ar   
    13   12   13 1    
    14   12   14 ar   
    15   14    4 ar   
    16   11   15 1    
    17   15   16 1    
    18   15   17 1    
    19   15   18 1    
    20   18   19 1    
    21   18   20 1    
    22   20   21 ar   
    23   21   22 1    
    24   21   23 ar   
    25   23   24 ar   
    26   24   25 1    
    27   24   26 ar   
    28   26   27 1    
    29   26   28 ar   
    30   28   20 ar   
    31   28   29 1    
    32   29   30 1    
    33   30   31 1    
    34   30   32 1    
    35   30   33 1    
    36   23   34 1    
    37   34   35 1    
    38   35   36 1    
    39   35   37 1    
    40   35   38 1    
    41   10   39 1    
    42   39   40 1    
    43   39   41 1    
    44   39   42 1    
    45    2   43 1    
    46   43   44 1    
    47   43   45 1    
@<TRIPOS>SUBSTRUCTURE
     1 ****        1 TEMP              0 ****  ****    0 ROOT 
@<TRIPOS>SET
UNITY_3DHIT     STATIC     ATOMS    <user>   **** Atoms matching 3D or FLEX Search
0
