#	Name:			24-2c
#	Creating user name:	jeff
#	Creation time:		Thu Dec  4 18:13:36 2003

#	Modifying user name:	jeff
#	Modification time:	Thu Dec  4 18:13:36 2003

@<TRIPOS>MOLECULE
24-2c
   45    47     1     0     1
SMALL
USER_CHARGES
****
From 3DB ct
@<TRIPOS>ATOM
      1 N          10.123000    2.618000   12.797000 N.ar      1 <1>        -0.712300 
      2 C          10.805000    1.968000   11.866000 C.ar      1 <1>         0.805300 
      3 N          12.086000    2.172000   11.606000 N.ar      1 <1>        -0.701400 
      4 C          12.733000    3.084000   12.312000 C.ar      1 <1>         0.835400 
      5 C          12.143000    3.853000   13.323000 C.ar      1 <1>        -0.855700 
      6 C          10.778000    3.543000   13.515000 C.ar      1 <1>         0.813900 
      7 N           9.981000    4.160000   14.469000 N.pl3     1 <1>        -0.749300 
      8 H          10.256000    3.983000   15.432000 H         1 <1>         0.319000 
      9 H           9.830000    5.155000   14.320000 H         1 <1>         0.321500 
     10 C          12.977000    4.822000   14.007000 C.ar      1 <1>         0.468500 
     11 C          14.334000    4.938000   13.643000 C.ar      1 <1>        -0.420000 
     12 C          14.780000    4.115000   12.622000 C.ar      1 <1>         0.385100 
     13 H          15.811000    4.162000   12.275000 H         1 <1>         0.092700 
     14 N          14.011000    3.213000   11.974000 N.ar      1 <1>        -0.592500 
     15 C          15.318000    5.907000   14.261000 C.3       1 <1>         0.129200 
     16 H          15.805000    5.426000   15.118000 H         1 <1>         0.061600 
     17 H          14.775000    6.776000   14.648000 H         1 <1>         0.050300 
     18 N          16.314000    6.289000   13.276000 N.pl3     1 <1>        -0.481900 
     19 H          17.254000    5.923000   13.422000 H         1 <1>         0.290000 
     20 C          16.107000    7.091000   12.165000 C.ar      1 <1>         0.000400 
     21 C          14.812000    7.614000   12.002000 C.ar      1 <1>        -0.004000 
     22 H          14.034000    7.384000   12.730000 H         1 <1>         0.103600 
     23 C          14.476000    8.430000   10.919000 C.ar      1 <1>        -0.328100 
     24 H          13.461000    8.811000   10.834000 H         1 <1>         0.156700 
     25 C          15.429000    8.750000    9.959000 C.ar      1 <1>         0.295600 
     26 C          16.724000    8.247000   10.094000 C.ar      1 <1>        -0.297900 
     27 H          17.467000    8.494000    9.346000 H         1 <1>         0.136400 
     28 C          17.073000    7.425000   11.185000 C.ar      1 <1>         0.185900 
     29 O          18.337000    6.911000   11.354000 O.3       1 <1>        -0.242200 
     30 C          19.347000    7.274000   10.416000 C.3       1 <1>        -0.023800 
     31 H          20.277000    6.790000   10.728000 H         1 <1>         0.070800 
     32 H          19.517000    8.355000   10.418000 H         1 <1>         0.044800 
     33 H          19.104000    6.908000    9.413000 H         1 <1>         0.053000 
     34 O          14.976000    9.555000    8.950000 O.3       1 <1>        -0.291500 
     35 C          15.880000    9.828000    7.881000 C.3       1 <1>         0.047700 
     36 H          15.365000   10.479000    7.169000 H         1 <1>         0.058300 
     37 H          16.155000    8.908000    7.356000 H         1 <1>         0.029400 
     38 H          16.766000   10.362000    8.241000 H         1 <1>         0.028200 
     39 C          12.409000    5.701000   15.095000 C.3       1 <1>        -0.201900 
     40 H          12.066000    5.092000   15.936000 H         1 <1>         0.070400 
     41 H          11.590000    6.311000   14.701000 H         1 <1>         0.062800 
     42 H          13.131000    6.409000   15.507000 H         1 <1>         0.042900 
     43 N          10.147000    1.032000   11.130000 N.pl3     1 <1>        -0.807400 
     44 H          10.639000    0.517000   10.415000 H         1 <1>         0.378300 
     45 H           9.169000    0.852000   11.309000 H         1 <1>         0.372400 
@<TRIPOS>BOND
     1    1    2 ar   
     2    2    3 ar   
     3    3    4 ar   
     4    4    5 ar   
     5    5    6 ar   
     6    6    1 ar   
     7    6    7 1    
     8    7    8 1    
     9    7    9 1    
    10    5   10 ar   
    11   10   11 ar   
    12   11   12 ar   
    13   12   13 1    
    14   12   14 ar   
    15   14    4 ar   
    16   11   15 1    
    17   15   16 1    
    18   15   17 1    
    19   15   18 1    
    20   18   19 1    
    21   18   20 1    
    22   20   21 ar   
    23   21   22 1    
    24   21   23 ar   
    25   23   24 1    
    26   23   25 ar   
    27   25   26 ar   
    28   26   27 1    
    29   26   28 ar   
    30   28   20 ar   
    31   28   29 1    
    32   29   30 1    
    33   30   31 1    
    34   30   32 1    
    35   30   33 1    
    36   25   34 1    
    37   34   35 1    
    38   35   36 1    
    39   35   37 1    
    40   35   38 1    
    41   10   39 1    
    42   39   40 1    
    43   39   41 1    
    44   39   42 1    
    45    2   43 1    
    46   43   44 1    
    47   43   45 1    
@<TRIPOS>SUBSTRUCTURE
     1 ****        1 TEMP              0 ****  ****    0 ROOT 
@<TRIPOS>SET
UNITY_3DHIT     STATIC     ATOMS    <user>   **** Atoms matching 3D or FLEX Search
0
