#	Name:			24-2d
#	Creating user name:	jeff
#	Creation time:		Thu Dec  4 18:13:36 2003

#	Modifying user name:	jeff
#	Modification time:	Thu Dec  4 18:13:37 2003

@<TRIPOS>MOLECULE
24-2d
   45    47     1     0     1
SMALL
USER_CHARGES
****
From 3DB ct
@<TRIPOS>ATOM
      1 N          10.132000    2.628000   12.807000 N.ar      1 <1>        -0.710100 
      2 C          10.805000    1.970000   11.876000 C.ar      1 <1>         0.802500 
      3 N          12.085000    2.170000   11.604000 N.ar      1 <1>        -0.698200 
      4 C          12.739000    3.083000   12.302000 C.ar      1 <1>         0.832000 
      5 C          12.160000    3.856000   13.315000 C.ar      1 <1>        -0.851900 
      6 C          10.794000    3.555000   13.516000 C.ar      1 <1>         0.815600 
      7 N          10.004000    4.185000   14.467000 N.pl3     1 <1>        -0.754300 
      8 H          10.281000    4.019000   15.431000 H         1 <1>         0.320600 
      9 H           9.852000    5.177000   14.307000 H         1 <1>         0.324300 
     10 C          13.005000    4.821000   13.993000 C.ar      1 <1>         0.469400 
     11 C          14.358000    4.933000   13.618000 C.ar      1 <1>        -0.417800 
     12 C          14.792000    4.109000   12.593000 C.ar      1 <1>         0.397600 
     13 H          15.822000    4.150000   12.239000 H         1 <1>         0.082800 
     14 N          14.015000    3.208000   11.953000 N.ar      1 <1>        -0.594700 
     15 C          15.350000    5.894000   14.232000 C.3       1 <1>         0.106500 
     16 H          15.851000    5.415000   15.083000 H         1 <1>         0.063500 
     17 H          14.817000    6.761000   14.639000 H         1 <1>         0.063400 
     18 N          16.338000    6.290000   13.244000 N.pl3     1 <1>        -0.564600 
     19 H          17.285000    5.936000   13.367000 H         1 <1>         0.321100 
     20 C          16.073000    7.089000   12.151000 C.ar      1 <1>         0.276700 
     21 C          14.789000    7.633000   12.006000 C.ar      1 <1>        -0.218900 
     22 H          14.020000    7.421000   12.748000 H         1 <1>         0.126300 
     23 C          14.461000    8.460000   10.924000 C.ar      1 <1>        -0.117700 
     24 H          13.456000    8.869000   10.850000 H         1 <1>         0.133300 
     25 C          15.419000    8.769000    9.962000 C.ar      1 <1>         0.072400 
     26 C          16.687000    8.194000   10.064000 C.ar      1 <1>         0.218800 
     27 C          17.017000    7.385000   11.161000 C.ar      1 <1>        -0.355500 
     28 H          18.026000    6.983000   11.217000 H         1 <1>         0.131700 
     29 O          17.659000    8.418000    9.123000 O.3       1 <1>        -0.239300 
     30 C          18.855000    7.718000    9.487000 C.3       1 <1>        -0.019900 
     31 H          19.600000    7.905000    8.707000 H         1 <1>         0.065200 
     32 H          18.683000    6.637000    9.539000 H         1 <1>         0.057500 
     33 H          19.256000    8.089000   10.436000 H         1 <1>         0.049900 
     34 O          14.998000    9.583000    8.945000 O.3       1 <1>        -0.284900 
     35 C          15.970000    9.773000    7.915000 C.3       1 <1>         0.102200 
     36 H          15.791000   10.756000    7.469000 H         1 <1>         0.029500 
     37 H          15.839000    9.024000    7.128000 H         1 <1>         0.026800 
     38 H          16.997000    9.761000    8.298000 H         1 <1>         0.017700 
     39 C          12.451000    5.700000   15.088000 C.3       1 <1>        -0.210400 
     40 H          13.183000    6.397000   15.502000 H         1 <1>         0.045700 
     41 H          12.105000    5.089000   15.927000 H         1 <1>         0.073900 
     42 H          11.636000    6.320000   14.701000 H         1 <1>         0.065100 
     43 N          10.139000    1.029000   11.152000 N.pl3     1 <1>        -0.803700 
     44 H          10.623000    0.510000   10.435000 H         1 <1>         0.377600 
     45 H           9.162000    0.856000   11.338000 H         1 <1>         0.372100 
@<TRIPOS>BOND
     1    1    2 ar   
     2    2    3 ar   
     3    3    4 ar   
     4    4    5 ar   
     5    5    6 ar   
     6    6    1 ar   
     7    6    7 1    
     8    7    8 1    
     9    7    9 1    
    10    5   10 ar   
    11   10   11 ar   
    12   11   12 ar   
    13   12   13 1    
    14   12   14 ar   
    15   14    4 ar   
    16   11   15 1    
    17   15   16 1    
    18   15   17 1    
    19   15   18 1    
    20   18   19 1    
    21   18   20 1    
    22   20   21 ar   
    23   21   22 1    
    24   21   23 ar   
    25   23   24 1    
    26   23   25 ar   
    27   25   26 ar   
    28   26   27 ar   
    29   27   28 1    
    30   27   20 ar   
    31   26   29 1    
    32   29   30 1    
    33   30   31 1    
    34   30   32 1    
    35   30   33 1    
    36   25   34 1    
    37   34   35 1    
    38   35   36 1    
    39   35   37 1    
    40   35   38 1    
    41   10   39 1    
    42   39   40 1    
    43   39   41 1    
    44   39   42 1    
    45    2   43 1    
    46   43   44 1    
    47   43   45 1    
@<TRIPOS>SUBSTRUCTURE
     1 ****        1 TEMP              0 ****  ****    0 ROOT 
@<TRIPOS>SET
UNITY_3DHIT     STATIC     ATOMS    <user>   **** Atoms matching 3D or FLEX Search
0
