#	Name:			24-3e
#	Creating user name:	jeff
#	Creation time:		Thu Dec  4 18:13:37 2003

#	Modifying user name:	jeff
#	Modification time:	Thu Dec  4 18:13:37 2003

@<TRIPOS>MOLECULE
24-3e
   54    56     1     0     1
SMALL
USER_CHARGES
****
From 3DB ct
@<TRIPOS>ATOM
      1 N          10.130000    2.595000   12.828000 N.ar      1 <1>        -0.666800 
      2 C          10.801000    1.945000   11.890000 C.ar      1 <1>         0.785300 
      3 N          12.075000    2.163000   11.603000 N.ar      1 <1>        -0.685900 
      4 C          12.722000    3.092000   12.285000 C.ar      1 <1>         0.830300 
      5 C          12.140000    3.869000   13.295000 C.ar      1 <1>        -0.934600 
      6 C          10.786000    3.537000   13.524000 C.ar      1 <1>         0.938700 
      7 N           9.999000    4.154000   14.485000 N.pl3     1 <1>        -0.968300 
      8 H          10.321000    4.039000   15.442000 H         1 <1>         0.367800 
      9 H           9.782000    5.130000   14.297000 H         1 <1>         0.363700 
     10 C          12.973000    4.862000   13.946000 C.ar      1 <1>         0.510800 
     11 C          14.329000    4.974000   13.573000 C.ar      1 <1>        -0.389000 
     12 C          14.767000    4.139000   12.559000 C.ar      1 <1>         0.419700 
     13 H          15.799000    4.172000   12.210000 H         1 <1>         0.072300 
     14 N          13.994000    3.230000   11.925000 N.ar      1 <1>        -0.591000 
     15 C          15.325000    5.932000   14.193000 C.3       1 <1>        -0.131400 
     16 H          15.723000    5.453000   15.098000 H         1 <1>         0.115300 
     17 H          14.823000    6.848000   14.533000 H         1 <1>         0.097700 
     18 N          16.397000    6.286000   13.251000 N.pl3     1 <1>        -0.141500 
     19 C          16.079000    7.122000   12.165000 C.ar      1 <1>         0.146700 
     20 C          14.786000    7.655000   12.017000 C.ar      1 <1>        -0.302200 
     21 H          14.012000    7.417000   12.744000 H         1 <1>         0.137400 
     22 C          14.445000    8.476000   10.936000 C.ar      1 <1>         0.274000 
     23 C          15.408000    8.773000    9.978000 C.ar      1 <1>        -0.261800 
     24 H          15.192000    9.403000    9.119000 H         1 <1>         0.113600 
     25 C          16.703000    8.257000   10.099000 C.ar      1 <1>        -0.104000 
     26 H          17.420000    8.521000    9.326000 H         1 <1>         0.103800 
     27 C          17.049000    7.439000   11.181000 C.ar      1 <1>         0.026100 
     28 O          18.307000    6.923000   11.385000 O.3       1 <1>        -0.233500 
     29 C          19.328000    7.262000   10.445000 C.3       1 <1>         0.175400 
     30 H          19.478000    8.347000   10.420000 H         1 <1>         0.019400 
     31 H          19.064000    6.891000    9.448000 H         1 <1>         0.021500 
     32 C          20.614000    6.595000   10.899000 C.3       1 <1>        -0.201300 
     33 H          21.434000    6.821000   10.213000 H         1 <1>         0.054900 
     34 H          20.486000    5.509000   10.953000 H         1 <1>         0.057500 
     35 H          20.889000    6.934000   11.904000 H         1 <1>         0.057800 
     36 O          13.148000    8.912000   10.935000 O.3       1 <1>        -0.324300 
     37 C          12.748000    9.757000    9.852000 C.3       1 <1>         0.264900 
     38 H          12.854000    9.227000    8.898000 H         1 <1>         0.002300 
     39 H          13.348000   10.674000    9.845000 H         1 <1>        -0.001200 
     40 C          11.289000   10.120000   10.059000 C.3       1 <1>        -0.218800 
     41 H          10.930000   10.770000    9.256000 H         1 <1>         0.049600 
     42 H          11.151000   10.633000   11.017000 H         1 <1>         0.063600 
     43 H          10.668000    9.219000   10.088000 H         1 <1>         0.066700 
     44 C          17.410000    5.271000   12.951000 C.3       1 <1>        -0.084200 
     45 H          18.274000    5.688000   12.422000 H         1 <1>         0.054800 
     46 H          16.980000    4.475000   12.332000 H         1 <1>         0.068600 
     47 H          17.795000    4.816000   13.869000 H         1 <1>         0.059900 
     48 C          12.410000    5.761000   15.020000 C.3       1 <1>        -0.232400 
     49 H          12.171000    5.179000   15.915000 H         1 <1>         0.060200 
     50 H          11.523000    6.284000   14.652000 H         1 <1>         0.077800 
     51 H          13.096000    6.552000   15.326000 H         1 <1>         0.060600 
     52 N          10.141000    0.992000   11.178000 N.pl3     1 <1>        -0.793200 
     53 H          10.624000    0.478000   10.456000 H         1 <1>         0.374400 
     54 H           9.168000    0.806000   11.375000 H         1 <1>         0.372400 
@<TRIPOS>BOND
     1    1    2 ar   
     2    2    3 ar   
     3    3    4 ar   
     4    4    5 ar   
     5    5    6 ar   
     6    6    1 ar   
     7    6    7 1    
     8    7    8 1    
     9    7    9 1    
    10    5   10 ar   
    11   10   11 ar   
    12   11   12 ar   
    13   12   13 1    
    14   12   14 ar   
    15   14    4 ar   
    16   11   15 1    
    17   15   16 1    
    18   15   17 1    
    19   15   18 1    
    20   18   19 1    
    21   19   20 ar   
    22   20   21 1    
    23   20   22 ar   
    24   22   23 ar   
    25   23   24 1    
    26   23   25 ar   
    27   25   26 1    
    28   25   27 ar   
    29   27   19 ar   
    30   27   28 1    
    31   28   29 1    
    32   29   30 1    
    33   29   31 1    
    34   29   32 1    
    35   32   33 1    
    36   32   34 1    
    37   32   35 1    
    38   22   36 1    
    39   36   37 1    
    40   37   38 1    
    41   37   39 1    
    42   37   40 1    
    43   40   41 1    
    44   40   42 1    
    45   40   43 1    
    46   18   44 1    
    47   44   45 1    
    48   44   46 1    
    49   44   47 1    
    50   10   48 1    
    51   48   49 1    
    52   48   50 1    
    53   48   51 1    
    54    2   52 1    
    55   52   53 1    
    56   52   54 1    
@<TRIPOS>SUBSTRUCTURE
     1 ****        1 TEMP              0 ****  ****    0 ROOT 
@<TRIPOS>SET
UNITY_3DHIT     STATIC     ATOMS    <user>   **** Atoms matching 3D or FLEX Search
0
