#	Name:			24-3a
#	Creating user name:	jeff
#	Creation time:		Thu Dec  4 18:13:37 2003

#	Modifying user name:	jeff
#	Modification time:	Thu Dec  4 18:13:37 2003

@<TRIPOS>MOLECULE
24-3a
   48    50     1     0     1
SMALL
USER_CHARGES
****
From 3DB ct
@<TRIPOS>ATOM
      1 N          10.129000    2.595000   12.828000 N.ar      1 <1>        -0.661900 
      2 C          10.802000    1.943000   11.892000 C.ar      1 <1>         0.785000 
      3 N          12.074000    2.163000   11.602000 N.ar      1 <1>        -0.684700 
      4 C          12.721000    3.094000   12.284000 C.ar      1 <1>         0.820100 
      5 C          12.140000    3.869000   13.294000 C.ar      1 <1>        -0.921400 
      6 C          10.785000    3.538000   13.522000 C.ar      1 <1>         0.938100 
      7 N           9.996000    4.159000   14.480000 N.pl3     1 <1>        -0.967300 
      8 H          10.315000    4.042000   15.439000 H         1 <1>         0.364500 
      9 H           9.785000    5.136000   14.293000 H         1 <1>         0.361900 
     10 C          12.973000    4.861000   13.946000 C.ar      1 <1>         0.467600 
     11 C          14.328000    4.975000   13.572000 C.ar      1 <1>        -0.332200 
     12 C          14.765000    4.142000   12.555000 C.ar      1 <1>         0.378000 
     13 H          15.796000    4.176000   12.206000 H         1 <1>         0.078000 
     14 N          13.992000    3.233000   11.922000 N.ar      1 <1>        -0.576300 
     15 C          15.325000    5.931000   14.194000 C.3       1 <1>        -0.115200 
     16 H          15.722000    5.451000   15.098000 H         1 <1>         0.108000 
     17 H          14.822000    6.846000   14.534000 H         1 <1>         0.104200 
     18 N          16.399000    6.286000   13.253000 N.pl3     1 <1>        -0.168600 
     19 C          16.081000    7.122000   12.167000 C.ar      1 <1>         0.219500 
     20 C          14.787000    7.655000   12.019000 C.ar      1 <1>        -0.408800 
     21 H          14.013000    7.417000   12.746000 H         1 <1>         0.147500 
     22 C          14.445000    8.475000   10.937000 C.ar      1 <1>         0.386300 
     23 C          15.408000    8.772000    9.979000 C.ar      1 <1>        -0.296200 
     24 H          15.193000    9.403000    9.121000 H         1 <1>         0.132500 
     25 C          16.703000    8.257000   10.101000 C.ar      1 <1>        -0.122600 
     26 H          17.421000    8.522000    9.328000 H         1 <1>         0.144700 
     27 C          17.050000    7.438000   11.182000 C.ar      1 <1>         0.038000 
     28 O          18.309000    6.922000   11.383000 O.3       1 <1>        -0.268400 
     29 C          19.320000    7.267000   10.441000 C.3       1 <1>        -0.006500 
     30 H          20.247000    6.775000   10.753000 H         1 <1>         0.056100 
     31 H          19.502000    8.347000   10.436000 H         1 <1>         0.041500 
     32 H          19.069000    6.899000    9.441000 H         1 <1>         0.052900 
     33 O          13.148000    8.910000   10.934000 O.3       1 <1>        -0.295400 
     34 C          12.755000    9.754000    9.853000 C.3       1 <1>         0.012800 
     35 H          11.702000   10.011000    9.998000 H         1 <1>         0.068200 
     36 H          12.843000    9.231000    8.895000 H         1 <1>         0.042400 
     37 H          13.330000   10.685000    9.852000 H         1 <1>         0.038000 
     38 C          17.406000    5.266000   12.948000 C.3       1 <1>        -0.084300 
     39 H          18.265000    5.676000   12.407000 H         1 <1>         0.059600 
     40 H          16.967000    4.467000   12.339000 H         1 <1>         0.079200 
     41 H          17.799000    4.816000   13.865000 H         1 <1>         0.058200 
     42 C          12.411000    5.757000   15.023000 C.3       1 <1>        -0.196400 
     43 H          12.164000    5.171000   15.913000 H         1 <1>         0.054300 
     44 H          11.530000    6.289000   14.655000 H         1 <1>         0.067400 
     45 H          13.101000    6.541000   15.339000 H         1 <1>         0.047100 
     46 N          10.143000    0.986000   11.184000 N.pl3     1 <1>        -0.791000 
     47 H          10.627000    0.470000   10.464000 H         1 <1>         0.373600 
     48 H           9.172000    0.796000   11.384000 H         1 <1>         0.372000 
@<TRIPOS>BOND
     1    1    2 ar   
     2    2    3 ar   
     3    3    4 ar   
     4    4    5 ar   
     5    5    6 ar   
     6    6    1 ar   
     7    6    7 1    
     8    7    8 1    
     9    7    9 1    
    10    5   10 ar   
    11   10   11 ar   
    12   11   12 ar   
    13   12   13 1    
    14   12   14 ar   
    15   14    4 ar   
    16   11   15 1    
    17   15   16 1    
    18   15   17 1    
    19   15   18 1    
    20   18   19 1    
    21   19   20 ar   
    22   20   21 1    
    23   20   22 ar   
    24   22   23 ar   
    25   23   24 1    
    26   23   25 ar   
    27   25   26 1    
    28   25   27 ar   
    29   27   19 ar   
    30   27   28 1    
    31   28   29 1    
    32   29   30 1    
    33   29   31 1    
    34   29   32 1    
    35   22   33 1    
    36   33   34 1    
    37   34   35 1    
    38   34   36 1    
    39   34   37 1    
    40   18   38 1    
    41   38   39 1    
    42   38   40 1    
    43   38   41 1    
    44   10   42 1    
    45   42   43 1    
    46   42   44 1    
    47   42   45 1    
    48    2   46 1    
    49   46   47 1    
    50   46   48 1    
@<TRIPOS>SUBSTRUCTURE
     1 ****        1 TEMP              0 ****  ****    0 ROOT 
@<TRIPOS>SET
UNITY_3DHIT     STATIC     ATOMS    <user>   **** Atoms matching 3D or FLEX Search
0
