#	Name:			24-3c
#	Creating user name:	jeff
#	Creation time:		Thu Dec  4 18:13:37 2003

#	Modifying user name:	jeff
#	Modification time:	Thu Dec  4 18:13:37 2003

@<TRIPOS>MOLECULE
24-3c
   48    50     1     0     1
SMALL
USER_CHARGES
****
From 3DB ct
@<TRIPOS>ATOM
      1 N          10.131000    2.604000   12.821000 N.ar      1 <1>        -0.720700 
      2 C          10.803000    1.952000   11.885000 C.ar      1 <1>         0.820300 
      3 N          12.079000    2.167000   11.603000 N.ar      1 <1>        -0.707400 
      4 C          12.727000    3.091000   12.290000 C.ar      1 <1>         0.841000 
      5 C          12.146000    3.866000   13.301000 C.ar      1 <1>        -0.883600 
      6 C          10.788000    3.542000   13.522000 C.ar      1 <1>         0.827500 
      7 N           9.998000    4.163000   14.478000 N.pl3     1 <1>        -0.750500 
      8 H          10.310000    4.039000   15.438000 H         1 <1>         0.317900 
      9 H           9.795000    5.143000   14.294000 H         1 <1>         0.322700 
     10 C          12.982000    4.851000   13.961000 C.ar      1 <1>         0.497200 
     11 C          14.337000    4.962000   13.590000 C.ar      1 <1>        -0.353200 
     12 C          14.775000    4.130000   12.572000 C.ar      1 <1>         0.353000 
     13 H          15.807000    4.162000   12.226000 H         1 <1>         0.099500 
     14 N          14.001000    3.225000   11.935000 N.ar      1 <1>        -0.585000 
     15 C          15.335000    5.916000   14.215000 C.3       1 <1>        -0.159300 
     16 H          15.731000    5.433000   15.118000 H         1 <1>         0.119100 
     17 H          14.833000    6.830000   14.559000 H         1 <1>         0.102400 
     18 N          16.408000    6.274000   13.275000 N.pl3     1 <1>        -0.139700 
     19 C          16.087000    7.101000   12.184000 C.ar      1 <1>        -0.001500 
     20 C          14.795000    7.626000   12.033000 C.ar      1 <1>        -0.067600 
     21 H          14.012000    7.397000   12.753000 H         1 <1>         0.114500 
     22 C          14.467000    8.434000   10.941000 C.ar      1 <1>        -0.301300 
     23 H          13.453000    8.821000   10.852000 H         1 <1>         0.154800 
     24 C          15.420000    8.739000    9.972000 C.ar      1 <1>         0.317900 
     25 C          16.713000    8.230000   10.101000 C.ar      1 <1>        -0.326500 
     26 H          17.459000    8.469000    9.352000 H         1 <1>         0.150900 
     27 C          17.054000    7.416000   11.195000 C.ar      1 <1>         0.194100 
     28 O          18.315000    6.904000   11.407000 O.3       1 <1>        -0.272500 
     29 C          19.336000    7.242000   10.472000 C.3       1 <1>         0.045300 
     30 H          20.254000    6.736000   10.785000 H         1 <1>         0.049600 
     31 H          19.532000    8.319000   10.477000 H         1 <1>         0.024700 
     32 H          19.085000    6.885000    9.468000 H         1 <1>         0.039500 
     33 O          14.966000    9.539000    8.959000 O.3       1 <1>        -0.304400 
     34 C          15.876000    9.818000    7.896000 C.3       1 <1>         0.070500 
     35 H          15.360000   10.463000    7.178000 H         1 <1>         0.055200 
     36 H          16.164000    8.900000    7.375000 H         1 <1>         0.021500 
     37 H          16.753000   10.361000    8.263000 H         1 <1>         0.021400 
     38 C          17.421000    5.257000   12.977000 C.3       1 <1>        -0.076600 
     39 H          18.282000    5.670000   12.441000 H         1 <1>         0.052400 
     40 H          16.989000    4.456000   12.365000 H         1 <1>         0.069200 
     41 H          17.810000    4.809000   13.896000 H         1 <1>         0.063200 
     42 C          12.420000    5.743000   15.041000 C.3       1 <1>        -0.223400 
     43 H          12.162000    5.151000   15.925000 H         1 <1>         0.075600 
     44 H          11.546000    6.285000   14.671000 H         1 <1>         0.059800 
     45 H          13.115000    6.517000   15.370000 H         1 <1>         0.054900 
     46 N          10.143000    1.002000   11.170000 N.pl3     1 <1>        -0.818900 
     47 H          10.627000    0.488000   10.448000 H         1 <1>         0.381600 
     48 H           9.170000    0.817000   11.365000 H         1 <1>         0.374900 
@<TRIPOS>BOND
     1    1    2 ar   
     2    2    3 ar   
     3    3    4 ar   
     4    4    5 ar   
     5    5    6 ar   
     6    6    1 ar   
     7    6    7 1    
     8    7    8 1    
     9    7    9 1    
    10    5   10 ar   
    11   10   11 ar   
    12   11   12 ar   
    13   12   13 1    
    14   12   14 ar   
    15   14    4 ar   
    16   11   15 1    
    17   15   16 1    
    18   15   17 1    
    19   15   18 1    
    20   18   19 1    
    21   19   20 ar   
    22   20   21 1    
    23   20   22 ar   
    24   22   23 1    
    25   22   24 ar   
    26   24   25 ar   
    27   25   26 1    
    28   25   27 ar   
    29   27   19 ar   
    30   27   28 1    
    31   28   29 1    
    32   29   30 1    
    33   29   31 1    
    34   29   32 1    
    35   24   33 1    
    36   33   34 1    
    37   34   35 1    
    38   34   36 1    
    39   34   37 1    
    40   18   38 1    
    41   38   39 1    
    42   38   40 1    
    43   38   41 1    
    44   10   42 1    
    45   42   43 1    
    46   42   44 1    
    47   42   45 1    
    48    2   46 1    
    49   46   47 1    
    50   46   48 1    
@<TRIPOS>SUBSTRUCTURE
     1 ****        1 TEMP              0 ****  ****    0 ROOT 
@<TRIPOS>SET
UNITY_3DHIT     STATIC     ATOMS    <user>   **** Atoms matching 3D or FLEX Search
0
