#	Name:			24-4c
#	Creating user name:	jeff
#	Creation time:		Thu Dec  4 18:13:37 2003

#	Modifying user name:	jeff
#	Modification time:	Thu Dec  4 18:13:38 2003

@<TRIPOS>MOLECULE
24-4c
   55    57     1     0     1
SMALL
USER_CHARGES
****
From 3DB ct
@<TRIPOS>ATOM
      1 N          10.138000    2.573000   12.859000 N.ar      1 <1>        -0.715500 
      2 C          10.800000    1.921000   11.915000 C.ar      1 <1>         0.810200 
      3 N          12.062000    2.158000   11.596000 N.ar      1 <1>        -0.699900 
      4 C          12.709000    3.106000   12.254000 C.ar      1 <1>         0.827900 
      5 C          12.137000    3.885000   13.265000 C.ar      1 <1>        -0.863300 
      6 C          10.795000    3.533000   13.530000 C.ar      1 <1>         0.822000 
      7 N          10.022000    4.142000   14.508000 N.pl3     1 <1>        -0.753400 
      8 H          10.383000    4.059000   15.454000 H         1 <1>         0.320300 
      9 H           9.758000    5.104000   14.309000 H         1 <1>         0.324100 
     10 C          12.970000    4.899000   13.886000 C.ar      1 <1>         0.482100 
     11 C          14.330000    4.996000   13.522000 C.ar      1 <1>        -0.403900 
     12 C          14.747000    4.175000   12.487000 C.ar      1 <1>         0.428100 
     13 H          15.768000    4.224000   12.110000 H         1 <1>         0.070700 
     14 N          13.969000    3.260000   11.866000 N.ar      1 <1>        -0.599400 
     15 C          15.301000    5.984000   14.142000 C.3       1 <1>        -0.029800 
     16 H          15.713000    5.592000   15.079000 H         1 <1>         0.109000 
     17 H          14.728000    6.890000   14.379000 H         1 <1>         0.082600 
     18 N          16.446000    6.288000   13.260000 N.pl3     1 <1>        -0.358000 
     19 C          16.116000    7.101000   12.170000 C.ar      1 <1>         0.270000 
     20 C          14.825000    7.643000   12.088000 C.ar      1 <1>        -0.377700 
     21 H          14.095000    7.417000   12.862000 H         1 <1>         0.154200 
     22 C          14.457000    8.458000   11.013000 C.ar      1 <1>         0.359200 
     23 C          15.367000    8.717000    9.986000 C.ar      1 <1>        -0.169900 
     24 C          16.674000    8.233000   10.092000 C.ar      1 <1>         0.265700 
     25 C          17.041000    7.415000   11.164000 C.ar      1 <1>        -0.356900 
     26 H          18.058000    7.033000   11.212000 H         1 <1>         0.170700 
     27 O          17.609000    8.472000    9.117000 O.3       1 <1>        -0.207900 
     28 C          18.823000    7.776000    9.419000 C.3       1 <1>        -0.069700 
     29 H          19.512000    7.931000    8.583000 H         1 <1>         0.084400 
     30 H          18.648000    6.699000    9.520000 H         1 <1>         0.059800 
     31 H          19.294000    8.173000   10.324000 H         1 <1>         0.057300 
     32 O          14.997000    9.470000    8.902000 O.3       1 <1>        -0.206900 
     33 C          16.118000    9.648000    8.031000 C.3       1 <1>        -0.026200 
     34 H          15.778000   10.221000    7.163000 H         1 <1>         0.048000 
     35 H          16.501000    8.686000    7.673000 H         1 <1>         0.065900 
     36 H          16.915000   10.217000    8.522000 H         1 <1>         0.052400 
     37 O          13.160000    8.902000   10.977000 O.3       1 <1>        -0.313500 
     38 C          12.933000    9.717000    9.822000 C.3       1 <1>         0.104900 
     39 H          11.997000   10.262000    9.980000 H         1 <1>         0.025400 
     40 H          12.816000    9.102000    8.925000 H         1 <1>         0.031800 
     41 H          13.733000   10.453000    9.681000 H         1 <1>         0.034400 
     42 C          17.552000    6.018000   13.476000 C.3       1 <1>         0.182500 
     43 H          17.501000    6.059000   14.571000 H         1 <1>         0.008100 
     44 H          17.915000    6.999000   13.151000 H         1 <1>         0.016400 
     45 C          18.547000    4.929000   13.100000 C.3       1 <1>        -0.145200 
     46 H          19.511000    5.116000   13.585000 H         1 <1>         0.037900 
     47 H          18.717000    4.894000   12.020000 H         1 <1>         0.033900 
     48 H          18.190000    3.945000   13.418000 H         1 <1>         0.040400 
     49 C          12.400000    5.840000   14.920000 C.3       1 <1>        -0.204500 
     50 H          12.240000    5.314000   15.866000 H         1 <1>         0.069500 
     51 H          11.466000    6.282000   14.563000 H         1 <1>         0.066500 
     52 H          13.044000    6.700000   15.119000 H         1 <1>         0.044200 
     53 N          10.143000    0.942000   11.235000 N.pl3     1 <1>        -0.812000 
     54 H          10.624000    0.416000   10.521000 H         1 <1>         0.379000 
     55 H           9.184000    0.730000   11.468000 H         1 <1>         0.374200 
@<TRIPOS>BOND
     1    1    2 ar   
     2    2    3 ar   
     3    3    4 ar   
     4    4    5 ar   
     5    5    6 ar   
     6    6    1 ar   
     7    6    7 1    
     8    7    8 1    
     9    7    9 1    
    10    5   10 ar   
    11   10   11 ar   
    12   11   12 ar   
    13   12   13 1    
    14   12   14 ar   
    15   14    4 ar   
    16   11   15 1    
    17   15   16 1    
    18   15   17 1    
    19   15   18 1    
    20   18   19 1    
    21   19   20 ar   
    22   20   21 1    
    23   20   22 ar   
    24   22   23 ar   
    25   23   24 ar   
    26   24   25 ar   
    27   25   26 1    
    28   25   19 ar   
    29   24   27 1    
    30   27   28 1    
    31   28   29 1    
    32   28   30 1    
    33   28   31 1    
    34   23   32 1    
    35   32   33 1    
    36   33   34 1    
    37   33   35 1    
    38   33   36 1    
    39   22   37 1    
    40   37   38 1    
    41   38   39 1    
    42   38   40 1    
    43   38   41 1    
    44   18   42 1    
    45   42   43 1    
    46   42   44 1    
    47   42   45 1    
    48   45   46 1    
    49   45   47 1    
    50   45   48 1    
    51   10   49 1    
    52   49   50 1    
    53   49   51 1    
    54   49   52 1    
    55    2   53 1    
    56   53   54 1    
    57   53   55 1    
@<TRIPOS>SUBSTRUCTURE
     1 ****        1 TEMP              0 ****  ****    0 ROOT 
@<TRIPOS>SET
UNITY_3DHIT     STATIC     ATOMS    <user>   **** Atoms matching 3D or FLEX Search
0
