#	Name:			24-4a
#	Creating user name:	jeff
#	Creation time:		Thu Dec  4 18:13:37 2003

#	Modifying user name:	jeff
#	Modification time:	Thu Dec  4 18:13:37 2003

@<TRIPOS>MOLECULE
24-4a
   54    56     1     0     1
SMALL
USER_CHARGES
****
From 3DB ct
@<TRIPOS>ATOM
      1 N          10.121000    2.682000   12.770000 N.ar      1 <1>        -0.717500 
      2 C          10.797000    2.008000   11.851000 C.ar      1 <1>         0.816100 
      3 N          12.091000    2.157000   11.620000 N.ar      1 <1>        -0.704200 
      4 C          12.761000    3.036000   12.345000 C.ar      1 <1>         0.830000 
      5 C          12.183000    3.806000   13.362000 C.ar      1 <1>        -0.874200 
      6 C          10.798000    3.572000   13.511000 C.ar      1 <1>         0.823900 
      7 N           9.995000    4.255000   14.413000 N.pl3     1 <1>        -0.751400 
      8 H          10.176000    4.061000   15.394000 H         1 <1>         0.319900 
      9 H           9.939000    5.258000   14.252000 H         1 <1>         0.323600 
     10 C          13.044000    4.722000   14.077000 C.ar      1 <1>         0.507600 
     11 C          14.379000    4.883000   13.653000 C.ar      1 <1>        -0.420900 
     12 C          14.817000    4.049000   12.637000 C.ar      1 <1>         0.433500 
     13 H          15.841000    4.102000   12.268000 H         1 <1>         0.067800 
     14 N          14.044000    3.136000   12.011000 N.ar      1 <1>        -0.599100 
     15 C          15.342000    5.914000   14.205000 C.3       1 <1>        -0.086800 
     16 H          15.837000    5.545000   15.113000 H         1 <1>         0.119500 
     17 H          14.743000    6.778000   14.520000 H         1 <1>         0.081700 
     18 N          16.369000    6.294000   13.220000 N.pl3     1 <1>        -0.181700 
     19 C          16.017000    7.113000   12.147000 C.ar      1 <1>         0.218800 
     20 C          16.968000    7.422000   11.164000 C.ar      1 <1>        -0.351400 
     21 H          17.974000    7.017000   11.239000 H         1 <1>         0.143700 
     22 C          16.628000    8.216000   10.066000 C.ar      1 <1>         0.297300 
     23 C          15.354000    8.783000    9.974000 C.ar      1 <1>        -0.178400 
     24 C          14.379000    8.488000   10.937000 C.ar      1 <1>         0.353000 
     25 C          14.723000    7.652000   12.010000 C.ar      1 <1>        -0.367300 
     26 H          13.990000    7.436000   12.782000 H         1 <1>         0.152900 
     27 O          13.150000    9.069000   10.753000 O.3       1 <1>        -0.311400 
     28 C          12.966000    9.853000    9.576000 C.3       1 <1>         0.097800 
     29 H          11.960000   10.279000    9.617000 H         1 <1>         0.026400 
     30 H          13.031000    9.235000    8.675000 H         1 <1>         0.035000 
     31 H          13.678000   10.684000    9.539000 H         1 <1>         0.033500 
     32 O          15.030000    9.575000    8.896000 O.3       1 <1>        -0.201400 
     33 C          16.141000    9.650000    7.994000 C.3       1 <1>        -0.024100 
     34 H          15.898000   10.389000    7.226000 H         1 <1>         0.048400 
     35 H          16.311000    8.688000    7.499000 H         1 <1>         0.064900 
     36 H          17.053000    9.981000    8.505000 H         1 <1>         0.054400 
     37 O          17.568000    8.481000    9.101000 O.3       1 <1>        -0.227400 
     38 C          18.788000    7.795000    9.407000 C.3       1 <1>        -0.053600 
     39 H          19.456000    7.901000    8.546000 H         1 <1>         0.077500 
     40 H          18.614000    6.725000    9.573000 H         1 <1>         0.060100 
     41 H          19.280000    8.242000   10.278000 H         1 <1>         0.058100 
     42 C          17.779000    6.324000   13.646000 C.3       1 <1>         0.003100 
     43 H          17.838000    6.145000   14.726000 H         1 <1>         0.074000 
     44 H          18.221000    7.317000   13.488000 H         1 <1>         0.091400 
     45 C          18.580000    5.317000   12.931000 C.1       1 <1>        -0.051400 
     46 C          19.237000    4.485000   12.360000 C.1       1 <1>        -0.318200 
     47 H          19.806000    3.742000   11.851000 H         1 <1>         0.293700 
     48 C          12.520000    5.533000   15.235000 C.3       1 <1>        -0.218300 
     49 H          12.031000    4.880000   15.963000 H         1 <1>         0.069100 
     50 H          11.829000    6.304000   14.883000 H         1 <1>         0.069800 
     51 H          13.307000    6.034000   15.800000 H         1 <1>         0.052800 
     52 N          10.114000    1.112000   11.090000 N.pl3     1 <1>        -0.815700 
     53 H          10.591000    0.601000   10.363000 H         1 <1>         0.379600 
     54 H           9.119000    1.000000   11.223000 H         1 <1>         0.375400 
@<TRIPOS>BOND
     1    1    2 ar   
     2    2    3 ar   
     3    3    4 ar   
     4    4    5 ar   
     5    5    6 ar   
     6    6    1 ar   
     7    6    7 1    
     8    7    8 1    
     9    7    9 1    
    10    5   10 ar   
    11   10   11 ar   
    12   11   12 ar   
    13   12   13 1    
    14   12   14 ar   
    15   14    4 ar   
    16   11   15 1    
    17   15   16 1    
    18   15   17 1    
    19   15   18 1    
    20   18   19 1    
    21   19   20 ar   
    22   20   21 1    
    23   20   22 ar   
    24   22   23 ar   
    25   23   24 ar   
    26   24   25 ar   
    27   25   26 1    
    28   25   19 ar   
    29   24   27 1    
    30   27   28 1    
    31   28   29 1    
    32   28   30 1    
    33   28   31 1    
    34   23   32 1    
    35   32   33 1    
    36   33   34 1    
    37   33   35 1    
    38   33   36 1    
    39   22   37 1    
    40   37   38 1    
    41   38   39 1    
    42   38   40 1    
    43   38   41 1    
    44   18   42 1    
    45   42   43 1    
    46   42   44 1    
    47   42   45 1    
    48   45   46 3    
    49   46   47 1    
    50   10   48 1    
    51   48   49 1    
    52   48   50 1    
    53   48   51 1    
    54    2   52 1    
    55   52   53 1    
    56   52   54 1    
@<TRIPOS>SUBSTRUCTURE
     1 ****        1 TEMP              0 ****  ****    0 ROOT 
@<TRIPOS>SET
UNITY_3DHIT     STATIC     ATOMS    <user>   **** Atoms matching 3D or FLEX Search
0
