#	Name:			24-5b
#	Creating user name:	jeff
#	Creation time:		Thu Dec  4 18:13:38 2003

#	Modifying user name:	jeff
#	Modification time:	Thu Dec  4 18:13:38 2003

@<TRIPOS>MOLECULE
24-5b
   47    50     1     0     1
SMALL
USER_CHARGES
****
From 3DB ct
@<TRIPOS>ATOM
      1 N          10.129000    2.634000   12.805000 N.ar      1 <1>        -0.717800 
      2 C          10.797000    1.983000   11.865000 C.ar      1 <1>         0.816000 
      3 N          12.079000    2.174000   11.598000 N.ar      1 <1>        -0.704900 
      4 C          12.741000    3.075000   12.305000 C.ar      1 <1>         0.838700 
      5 C          12.164000    3.849000   13.319000 C.ar      1 <1>        -0.880300 
      6 C          10.799000    3.548000   13.525000 C.ar      1 <1>         0.824800 
      7 N          10.017000    4.162000   14.493000 N.pl3     1 <1>        -0.753000 
      8 H          10.315000    3.994000   15.451000 H         1 <1>         0.319700 
      9 H           9.847000    5.153000   14.342000 H         1 <1>         0.322200 
     10 C          13.012000    4.812000   13.996000 C.ar      1 <1>         0.498600 
     11 C          14.372000    4.898000   13.643000 C.ar      1 <1>        -0.422200 
     12 C          14.805000    4.069000   12.620000 C.ar      1 <1>         0.423800 
     13 H          15.839000    4.094000   12.279000 H         1 <1>         0.075700 
     14 N          14.020000    3.185000   11.965000 N.ar      1 <1>        -0.596600 
     15 C          15.373000    5.841000   14.270000 C.3       1 <1>        -0.007500 
     16 H          15.899000    5.321000   15.081000 H         1 <1>         0.090000 
     17 H          14.850000    6.684000   14.736000 H         1 <1>         0.083800 
     18 N          16.327000    6.291000   13.269000 N.pl3     1 <1>        -0.461900 
     19 H          17.236000    5.840000   13.293000 H         1 <1>         0.298100 
     20 C          16.017000    7.113000   12.191000 C.ar      1 <1>         0.093900 
     21 C          14.727000    7.641000   12.045000 C.ar      1 <1>        -0.169900 
     22 H          13.939000    7.405000   12.758000 H         1 <1>         0.126900 
     23 C          14.386000    8.476000   10.981000 C.ar      1 <1>        -0.210700 
     24 H          13.363000    8.837000   10.936000 H         1 <1>         0.126700 
     25 C          15.338000    8.819000   10.026000 C.ar      1 <1>         0.200500 
     26 C          16.663000    8.333000   10.143000 C.ar      1 <1>        -0.110300 
     27 C          17.013000    7.484000   11.234000 C.ar      1 <1>         0.111900 
     28 C          18.362000    7.049000   11.310000 C.ar      1 <1>        -0.185500 
     29 H          18.701000    6.417000   12.128000 H         1 <1>         0.103100 
     30 C          19.322000    7.408000   10.360000 C.ar      1 <1>        -0.080300 
     31 H          20.345000    7.049000   10.458000 H         1 <1>         0.103800 
     32 C          18.967000    8.220000    9.298000 C.ar      1 <1>        -0.125900 
     33 H          19.705000    8.501000    8.550000 H         1 <1>         0.109900 
     34 C          17.656000    8.677000    9.194000 C.ar      1 <1>        -0.045100 
     35 H          17.410000    9.320000    8.348000 H         1 <1>         0.092500 
     36 O          15.078000    9.633000    8.948000 O.3       1 <1>        -0.246100 
     37 C          13.784000   10.226000    8.863000 C.3       1 <1>        -0.012900 
     38 H          13.746000   10.805000    7.935000 H         1 <1>         0.068600 
     39 H          13.614000   10.917000    9.695000 H         1 <1>         0.041200 
     40 H          13.003000    9.461000    8.810000 H         1 <1>         0.047900 
     41 C          12.454000    5.716000   15.069000 C.3       1 <1>        -0.204300 
     42 H          12.145000    5.128000   15.938000 H         1 <1>         0.070100 
     43 H          11.612000    6.294000   14.676000 H         1 <1>         0.060100 
     44 H          13.168000    6.459000   15.430000 H         1 <1>         0.046000 
     45 N          10.124000    1.057000   11.130000 N.pl3     1 <1>        -0.814800 
     46 H          10.603000    0.548000   10.401000 H         1 <1>         0.380800 
     47 H           9.144000    0.892000   11.308000 H         1 <1>         0.374700 
@<TRIPOS>BOND
     1    1    2 ar   
     2    2    3 ar   
     3    3    4 ar   
     4    4    5 ar   
     5    5    6 ar   
     6    6    1 ar   
     7    6    7 1    
     8    7    8 1    
     9    7    9 1    
    10    5   10 ar   
    11   10   11 ar   
    12   11   12 ar   
    13   12   13 1    
    14   12   14 ar   
    15   14    4 ar   
    16   11   15 1    
    17   15   16 1    
    18   15   17 1    
    19   15   18 1    
    20   18   19 1    
    21   18   20 1    
    22   20   21 ar   
    23   21   22 1    
    24   21   23 ar   
    25   23   24 1    
    26   23   25 ar   
    27   25   26 ar   
    28   26   27 ar   
    29   27   20 ar   
    30   27   28 ar   
    31   28   29 1    
    32   28   30 ar   
    33   30   31 1    
    34   30   32 ar   
    35   32   33 1    
    36   32   34 ar   
    37   34   35 1    
    38   34   26 ar   
    39   25   36 1    
    40   36   37 1    
    41   37   38 1    
    42   37   39 1    
    43   37   40 1    
    44   10   41 1    
    45   41   42 1    
    46   41   43 1    
    47   41   44 1    
    48    2   45 1    
    49   45   46 1    
    50   45   47 1    
@<TRIPOS>SUBSTRUCTURE
     1 ****        1 TEMP              0 ****  ****    0 ROOT 
@<TRIPOS>SET
UNITY_3DHIT     STATIC     ATOMS    <user>   **** Atoms matching 3D or FLEX Search
0
