#	Name:			24-5a
#	Creating user name:	jeff
#	Creation time:		Thu Dec  4 18:13:38 2003

#	Modifying user name:	jeff
#	Modification time:	Thu Dec  4 18:13:38 2003

@<TRIPOS>MOLECULE
24-5a
   43    46     1     0     1
SMALL
USER_CHARGES
****
From 3DB ct
@<TRIPOS>ATOM
      1 N          10.129000    2.624000   12.816000 N.ar      1 <1>        -0.716300 
      2 C          10.793000    1.976000   11.871000 C.ar      1 <1>         0.812000 
      3 N          12.074000    2.169000   11.599000 N.ar      1 <1>        -0.703800 
      4 C          12.736000    3.074000   12.299000 C.ar      1 <1>         0.839600 
      5 C          12.162000    3.851000   13.312000 C.ar      1 <1>        -0.876500 
      6 C          10.800000    3.542000   13.530000 C.ar      1 <1>         0.823600 
      7 N          10.025000    4.150000   14.508000 N.pl3     1 <1>        -0.752700 
      8 H          10.342000    3.994000   15.462000 H         1 <1>         0.319700 
      9 H           9.836000    5.137000   14.354000 H         1 <1>         0.322400 
     10 C          13.008000    4.823000   13.977000 C.ar      1 <1>         0.494000 
     11 C          14.370000    4.902000   13.627000 C.ar      1 <1>        -0.410200 
     12 C          14.800000    4.072000   12.605000 C.ar      1 <1>         0.401800 
     13 H          15.833000    4.099000   12.261000 H         1 <1>         0.083800 
     14 N          14.014000    3.186000   11.954000 N.ar      1 <1>        -0.592900 
     15 C          15.377000    5.837000   14.256000 C.3       1 <1>         0.022000 
     16 H          15.900000    5.308000   15.064000 H         1 <1>         0.083400 
     17 H          14.865000    6.683000   14.728000 H         1 <1>         0.079600 
     18 N          16.332000    6.282000   13.256000 N.pl3     1 <1>        -0.512700 
     19 H          17.248000    5.845000   13.288000 H         1 <1>         0.313500 
     20 C          16.029000    7.124000   12.192000 C.ar      1 <1>         0.210500 
     21 C          14.739000    7.666000   12.050000 C.ar      1 <1>        -0.215800 
     22 H          13.943000    7.413000   12.747000 H         1 <1>         0.116100 
     23 C          14.420000    8.531000   11.005000 C.ar      1 <1>        -0.047600 
     24 H          13.409000    8.924000   10.915000 H         1 <1>         0.107800 
     25 C          15.392000    8.892000   10.081000 C.ar      1 <1>        -0.276300 
     26 H          15.120000    9.571000    9.274000 H         1 <1>         0.132800 
     27 C          16.696000    8.396000   10.191000 C.ar      1 <1>         0.174500 
     28 C          17.035000    7.508000   11.249000 C.ar      1 <1>        -0.053100 
     29 C          18.381000    7.063000   11.301000 C.ar      1 <1>        -0.120300 
     30 H          18.717000    6.393000   12.089000 H         1 <1>         0.092900 
     31 C          19.334000    7.461000   10.358000 C.ar      1 <1>        -0.125600 
     32 H          20.356000    7.096000   10.431000 H         1 <1>         0.107400 
     33 C          18.975000    8.323000    9.332000 C.ar      1 <1>        -0.068500 
     34 H          19.713000    8.637000    8.596000 H         1 <1>         0.101800 
     35 C          17.665000    8.789000    9.251000 C.ar      1 <1>        -0.203200 
     36 H          17.404000    9.470000    8.441000 H         1 <1>         0.123600 
     37 C          12.447000    5.745000   15.032000 C.3       1 <1>        -0.211900 
     38 H          12.149000    5.174000   15.916000 H         1 <1>         0.072500 
     39 H          11.598000    6.305000   14.630000 H         1 <1>         0.063000 
     40 H          13.156000    6.503000   15.369000 H         1 <1>         0.046400 
     41 N          10.117000    1.054000   11.133000 N.pl3     1 <1>        -0.809800 
     42 H          10.593000    0.558000   10.394000 H         1 <1>         0.379300 
     43 H           9.136000    0.896000   11.305000 H         1 <1>         0.373400 
@<TRIPOS>BOND
     1    1    2 ar   
     2    2    3 ar   
     3    3    4 ar   
     4    4    5 ar   
     5    5    6 ar   
     6    6    1 ar   
     7    6    7 1    
     8    7    8 1    
     9    7    9 1    
    10    5   10 ar   
    11   10   11 ar   
    12   11   12 ar   
    13   12   13 1    
    14   12   14 ar   
    15   14    4 ar   
    16   11   15 1    
    17   15   16 1    
    18   15   17 1    
    19   15   18 1    
    20   18   19 1    
    21   18   20 1    
    22   20   21 ar   
    23   21   22 1    
    24   21   23 ar   
    25   23   24 1    
    26   23   25 ar   
    27   25   26 1    
    28   25   27 ar   
    29   27   28 ar   
    30   28   20 ar   
    31   28   29 ar   
    32   29   30 1    
    33   29   31 ar   
    34   31   32 1    
    35   31   33 ar   
    36   33   34 1    
    37   33   35 ar   
    38   35   36 1    
    39   35   27 ar   
    40   10   37 1    
    41   37   38 1    
    42   37   39 1    
    43   37   40 1    
    44    2   41 1    
    45   41   42 1    
    46   41   43 1    
@<TRIPOS>SUBSTRUCTURE
     1 ****        1 TEMP              0 ****  ****    0 ROOT 
@<TRIPOS>SET
UNITY_3DHIT     STATIC     ATOMS    <user>   **** Atoms matching 3D or FLEX Search
0
