#	Name:			25-11
#	Creating user name:	jeff
#	Creation time:		Thu Dec  4 18:13:38 2003

#	Modifying user name:	jeff
#	Modification time:	Thu Dec  4 18:13:38 2003

@<TRIPOS>MOLECULE
25-11
   46    48     1     0     1
SMALL
USER_CHARGES
****
From 3DB ct
@<TRIPOS>ATOM
      1 N          10.206000    2.745000   12.866000 N.ar      1 <1>        -0.670400 
      2 C          10.805000    2.062000   11.893000 C.ar      1 <1>         0.760100 
      3 N          12.085000    2.192000   11.556000 N.ar      1 <1>        -0.679300 
      4 C          12.818000    3.069000   12.226000 C.ar      1 <1>         0.745600 
      5 C          12.299000    3.838000   13.262000 C.ar      1 <1>        -0.635400 
      6 C          10.955000    3.612000   13.558000 C.ar      1 <1>         0.723000 
      7 N          10.284000    4.319000   14.540000 N.pl3     1 <1>        -0.748600 
      8 H          10.772000    4.531000   15.405000 H         1 <1>         0.334600 
      9 H           9.306000    4.071000   14.659000 H         1 <1>         0.321800 
     10 C          13.150000    4.766000   13.915000 C.ar      1 <1>         0.014500 
     11 H          12.752000    5.381000   14.720000 H         1 <1>         0.089000 
     12 C          14.483000    4.907000   13.544000 C.ar      1 <1>         0.060000 
     13 C          14.888000    4.081000   12.503000 C.ar      1 <1>         0.284700 
     14 H          15.910000    4.107000   12.132000 H         1 <1>         0.080100 
     15 N          14.093000    3.186000   11.854000 N.ar      1 <1>        -0.538200 
     16 N          15.284000    5.814000   14.198000 N.pl3     1 <1>        -0.639300 
     17 H          15.100000    6.018000   15.178000 H         1 <1>         0.344100 
     18 C          16.397000    6.513000   13.580000 C.3       1 <1>         0.146500 
     19 H          17.196000    5.810000   13.315000 H         1 <1>         0.042300 
     20 H          16.826000    7.247000   14.274000 H         1 <1>         0.050000 
     21 C          15.920000    7.223000   12.334000 C.ar      1 <1>         0.016800 
     22 C          16.815000    7.516000   11.295000 C.ar      1 <1>        -0.331000 
     23 H          17.866000    7.248000   11.386000 H         1 <1>         0.165300 
     24 C          16.361000    8.155000   10.140000 C.ar      1 <1>         0.294200 
     25 C          15.021000    8.539000   10.016000 C.ar      1 <1>        -0.100800 
     26 C          14.109000    8.195000   11.021000 C.ar      1 <1>         0.246700 
     27 C          14.565000    7.561000   12.181000 C.ar      1 <1>        -0.217900 
     28 H          13.855000    7.317000   12.972000 H         1 <1>         0.153600 
     29 O          12.772000    8.494000   10.995000 O.3       1 <1>        -0.304500 
     30 C          12.368000    9.179000    9.806000 C.3       1 <1>         0.102700 
     31 H          11.324000    8.916000    9.611000 H         1 <1>         0.031500 
     32 H          12.957000    8.883000    8.929000 H         1 <1>         0.032700 
     33 H          12.415000   10.261000    9.958000 H         1 <1>         0.027800 
     34 O          14.617000    9.219000    8.896000 O.3       1 <1>        -0.196100 
     35 C          15.700000    9.300000    7.962000 C.3       1 <1>        -0.045500 
     36 H          15.342000    9.845000    7.083000 H         1 <1>         0.065100 
     37 H          16.020000    8.304000    7.638000 H         1 <1>         0.058400 
     38 H          16.546000    9.854000    8.383000 H         1 <1>         0.058900 
     39 O          17.281000    8.468000    9.171000 O.3       1 <1>        -0.225000 
     40 C          18.586000    8.051000    9.585000 C.3       1 <1>        -0.070900 
     41 H          19.295000    8.352000    8.808000 H         1 <1>         0.089200 
     42 H          18.641000    6.962000    9.691000 H         1 <1>         0.058700 
     43 H          18.879000    8.541000   10.521000 H         1 <1>         0.059100 
     44 N          10.054000    1.169000   11.194000 N.pl3     1 <1>        -0.789800 
     45 H          10.473000    0.632000   10.449000 H         1 <1>         0.372000 
     46 H           9.079000    1.047000   11.425000 H         1 <1>         0.363900 
@<TRIPOS>BOND
     1    1    2 ar   
     2    2    3 ar   
     3    3    4 ar   
     4    4    5 ar   
     5    5    6 ar   
     6    6    1 ar   
     7    6    7 1    
     8    7    8 1    
     9    7    9 1    
    10    5   10 ar   
    11   10   11 1    
    12   10   12 ar   
    13   12   13 ar   
    14   13   14 1    
    15   13   15 ar   
    16   15    4 ar   
    17   12   16 1    
    18   16   17 1    
    19   16   18 1    
    20   18   19 1    
    21   18   20 1    
    22   18   21 1    
    23   21   22 ar   
    24   22   23 1    
    25   22   24 ar   
    26   24   25 ar   
    27   25   26 ar   
    28   26   27 ar   
    29   27   28 1    
    30   27   21 ar   
    31   26   29 1    
    32   29   30 1    
    33   30   31 1    
    34   30   32 1    
    35   30   33 1    
    36   25   34 1    
    37   34   35 1    
    38   35   36 1    
    39   35   37 1    
    40   35   38 1    
    41   24   39 1    
    42   39   40 1    
    43   40   41 1    
    44   40   42 1    
    45   40   43 1    
    46    2   44 1    
    47   44   45 1    
    48   44   46 1    
@<TRIPOS>SUBSTRUCTURE
     1 ****        1 TEMP              0 ****  ****    0 ROOT 
@<TRIPOS>SET
UNITY_3DHIT     STATIC     ATOMS    <user>   **** Atoms matching 3D or FLEX Search
0
