#	Name:			25-12
#	Creating user name:	jeff
#	Creation time:		Thu Dec  4 18:13:38 2003

#	Modifying user name:	jeff
#	Modification time:	Thu Dec  4 18:13:38 2003

@<TRIPOS>MOLECULE
25-12
   49    51     1     0     1
SMALL
USER_CHARGES
****
From 3DB ct
@<TRIPOS>ATOM
      1 N          10.184000    2.732000   12.825000 N.ar      1 <1>        -0.681200 
      2 C          10.792000    2.067000   11.846000 C.ar      1 <1>         0.788900 
      3 N          12.077000    2.197000   11.530000 N.ar      1 <1>        -0.707800 
      4 C          12.804000    3.056000   12.228000 C.ar      1 <1>         0.797900 
      5 C          12.278000    3.807000   13.272000 C.ar      1 <1>        -0.726900 
      6 C          10.928000    3.580000   13.546000 C.ar      1 <1>         0.747000 
      7 N          10.247000    4.265000   14.536000 N.pl3     1 <1>        -0.762800 
      8 H          10.720000    4.440000   15.417000 H         1 <1>         0.337900 
      9 H           9.266000    4.018000   14.631000 H         1 <1>         0.326500 
     10 C          13.126000    4.719000   13.959000 C.ar      1 <1>         0.161100 
     11 H          12.701000    5.284000   14.784000 H         1 <1>         0.069800 
     12 C          14.470000    4.870000   13.619000 C.ar      1 <1>        -0.105400 
     13 C          14.872000    4.051000   12.564000 C.ar      1 <1>         0.304100 
     14 H          15.895000    4.082000   12.194000 H         1 <1>         0.071000 
     15 N          14.084000    3.173000   11.882000 N.ar      1 <1>        -0.543700 
     16 N          15.326000    5.744000   14.269000 N.pl3     1 <1>        -0.292000 
     17 C          16.409000    6.456000   13.570000 C.3       1 <1>         0.020100 
     18 H          17.197000    5.737000   13.316000 H         1 <1>         0.051100 
     19 H          16.870000    7.231000   14.194000 H         1 <1>         0.081900 
     20 C          15.912000    7.175000   12.328000 C.ar      1 <1>         0.033300 
     21 C          16.805000    7.512000   11.302000 C.ar      1 <1>        -0.303000 
     22 H          17.858000    7.246000   11.378000 H         1 <1>         0.159100 
     23 C          16.348000    8.195000   10.177000 C.ar      1 <1>         0.269100 
     24 C          14.990000    8.507000   10.041000 C.ar      1 <1>        -0.092700 
     25 C          14.085000    8.205000   11.069000 C.ar      1 <1>         0.227900 
     26 C          14.555000    7.542000   12.209000 C.ar      1 <1>        -0.205300 
     27 H          13.888000    7.285000   13.029000 H         1 <1>         0.149800 
     28 O          12.786000    8.593000   10.863000 O.3       1 <1>        -0.294000 
     29 C          12.491000    9.241000    9.628000 C.3       1 <1>         0.085600 
     30 H          11.428000    9.503000    9.636000 H         1 <1>         0.035200 
     31 H          12.663000    8.569000    8.781000 H         1 <1>         0.035900 
     32 H          13.062000   10.169000    9.524000 H         1 <1>         0.033800 
     33 O          14.555000    9.174000    8.919000 O.3       1 <1>        -0.197400 
     34 C          15.636000    9.311000    7.989000 C.3       1 <1>        -0.046000 
     35 H          15.253000    9.832000    7.107000 H         1 <1>         0.064200 
     36 H          16.012000    8.332000    7.670000 H         1 <1>         0.060600 
     37 H          16.449000    9.911000    8.412000 H         1 <1>         0.057800 
     38 O          17.242000    8.488000    9.179000 O.3       1 <1>        -0.218000 
     39 C          18.556000    8.069000    9.566000 C.3       1 <1>        -0.065700 
     40 H          19.240000    8.328000    8.752000 H         1 <1>         0.087900 
     41 H          18.595000    6.984000    9.711000 H         1 <1>         0.057500 
     42 H          18.890000    8.588000   10.470000 H         1 <1>         0.056700 
     43 C          15.047000    6.117000   15.660000 C.3       1 <1>        -0.036400 
     44 H          13.978000    6.309000   15.811000 H         1 <1>         0.049400 
     45 H          15.567000    7.037000   15.946000 H         1 <1>         0.072800 
     46 H          15.368000    5.322000   16.341000 H         1 <1>         0.045500 
     47 N          10.046000    1.192000   11.119000 N.pl3     1 <1>        -0.806900 
     48 H          10.471000    0.667000   10.369000 H         1 <1>         0.378600 
     49 H           9.067000    1.072000   11.335000 H         1 <1>         0.367300 
@<TRIPOS>BOND
     1    1    2 ar   
     2    2    3 ar   
     3    3    4 ar   
     4    4    5 ar   
     5    5    6 ar   
     6    6    1 ar   
     7    6    7 1    
     8    7    8 1    
     9    7    9 1    
    10    5   10 ar   
    11   10   11 1    
    12   10   12 ar   
    13   12   13 ar   
    14   13   14 1    
    15   13   15 ar   
    16   15    4 ar   
    17   12   16 1    
    18   16   17 1    
    19   17   18 1    
    20   17   19 1    
    21   17   20 1    
    22   20   21 ar   
    23   21   22 1    
    24   21   23 ar   
    25   23   24 ar   
    26   24   25 ar   
    27   25   26 ar   
    28   26   27 1    
    29   26   20 ar   
    30   25   28 1    
    31   28   29 1    
    32   29   30 1    
    33   29   31 1    
    34   29   32 1    
    35   24   33 1    
    36   33   34 1    
    37   34   35 1    
    38   34   36 1    
    39   34   37 1    
    40   23   38 1    
    41   38   39 1    
    42   39   40 1    
    43   39   41 1    
    44   39   42 1    
    45   16   43 1    
    46   43   44 1    
    47   43   45 1    
    48   43   46 1    
    49    2   47 1    
    50   47   48 1    
    51   47   49 1    
@<TRIPOS>SUBSTRUCTURE
     1 ****        1 TEMP              0 ****  ****    0 ROOT 
@<TRIPOS>SET
UNITY_3DHIT     STATIC     ATOMS    <user>   **** Atoms matching 3D or FLEX Search
0
