#	Name:			25-13
#	Creating user name:	jeff
#	Creation time:		Thu Dec  4 18:13:38 2003

#	Modifying user name:	jeff
#	Modification time:	Thu Dec  4 18:13:38 2003

@<TRIPOS>MOLECULE
25-13
   49    51     1     0     1
SMALL
USER_CHARGES
****
From 3DB ct
@<TRIPOS>ATOM
      1 N          10.194000    2.741000   12.865000 N.ar      1 <1>        -0.680500 
      2 C          10.791000    2.061000   11.889000 C.ar      1 <1>         0.771300 
      3 N          12.072000    2.187000   11.555000 N.ar      1 <1>        -0.683200 
      4 C          12.809000    3.054000   12.232000 C.ar      1 <1>         0.747100 
      5 C          12.296000    3.816000   13.274000 C.ar      1 <1>        -0.663700 
      6 C          10.947000    3.601000   13.563000 C.ar      1 <1>         0.746100 
      7 N          10.272000    4.321000   14.532000 N.pl3     1 <1>        -0.759900 
      8 H          10.750000    4.551000   15.398000 H         1 <1>         0.335000 
      9 H           9.289000    4.090000   14.641000 H         1 <1>         0.325000 
     10 C          13.156000    4.734000   13.932000 C.ar      1 <1>         0.023100 
     11 H          12.766000    5.343000   14.746000 H         1 <1>         0.092900 
     12 C          14.487000    4.885000   13.548000 C.ar      1 <1>         0.074600 
     13 C          14.884000    4.062000   12.504000 C.ar      1 <1>         0.296000 
     14 H          15.903000    4.082000   12.125000 H         1 <1>         0.072400 
     15 N          14.083000    3.171000   11.855000 N.ar      1 <1>        -0.539200 
     16 N          15.286000    5.789000   14.206000 N.pl3     1 <1>        -0.672900 
     17 H          15.006000    6.075000   15.143000 H         1 <1>         0.324000 
     18 C          16.421000    6.511000   13.637000 C.3       1 <1>         0.369500 
     19 H          16.780000    7.272000   14.342000 H         1 <1>         0.023900 
     20 C          15.951000    7.233000   12.379000 C.ar      1 <1>        -0.116700 
     21 C          16.836000    7.547000   11.334000 C.ar      1 <1>        -0.217500 
     22 H          17.884000    7.263000   11.409000 H         1 <1>         0.149300 
     23 C          16.374000    8.195000   10.190000 C.ar      1 <1>         0.237100 
     24 C          15.010000    8.480000   10.053000 C.ar      1 <1>        -0.060500 
     25 C          14.109000    8.201000   11.091000 C.ar      1 <1>         0.241700 
     26 C          14.589000    7.570000   12.244000 C.ar      1 <1>        -0.201000 
     27 H          13.916000    7.317000   13.058000 H         1 <1>         0.145400 
     28 O          12.804000    8.569000   10.883000 O.3       1 <1>        -0.292100 
     29 C          12.503000    9.228000    9.652000 C.3       1 <1>         0.050800 
     30 H          11.424000    9.410000    9.627000 H         1 <1>         0.045000 
     31 H          12.753000    8.597000    8.791000 H         1 <1>         0.047100 
     32 H          13.007000   10.198000    9.595000 H         1 <1>         0.042700 
     33 O          14.561000    9.104000    8.911000 O.3       1 <1>        -0.203800 
     34 C          15.657000    9.300000    8.011000 C.3       1 <1>        -0.073400 
     35 H          15.279000    9.838000    7.136000 H         1 <1>         0.074000 
     36 H          16.064000    8.340000    7.672000 H         1 <1>         0.064400 
     37 H          16.451000    9.906000    8.464000 H         1 <1>         0.067800 
     38 O          17.214000    8.505000    9.151000 O.3       1 <1>        -0.226700 
     39 C          18.569000    8.131000    9.424000 C.3       1 <1>        -0.037500 
     40 H          19.206000    8.652000    8.702000 H         1 <1>         0.081100 
     41 H          18.712000    7.055000    9.288000 H         1 <1>         0.047000 
     42 H          18.877000    8.440000   10.429000 H         1 <1>         0.050400 
     43 C          17.578000    5.549000   13.351000 C.3       1 <1>        -0.242300 
     44 H          18.393000    6.062000   12.828000 H         1 <1>         0.052500 
     45 H          17.262000    4.698000   12.739000 H         1 <1>         0.062800 
     46 H          17.981000    5.140000   14.284000 H         1 <1>         0.069200 
     47 N          10.040000    1.178000   11.175000 N.pl3     1 <1>        -0.799000 
     48 H          10.460000    0.659000   10.418000 H         1 <1>         0.373900 
     49 H           9.064000    1.051000   11.400000 H         1 <1>         0.366700 
@<TRIPOS>BOND
     1    1    2 ar   
     2    2    3 ar   
     3    3    4 ar   
     4    4    5 ar   
     5    5    6 ar   
     6    6    1 ar   
     7    6    7 1    
     8    7    8 1    
     9    7    9 1    
    10    5   10 ar   
    11   10   11 1    
    12   10   12 ar   
    13   12   13 ar   
    14   13   14 1    
    15   13   15 ar   
    16   15    4 ar   
    17   12   16 1    
    18   16   17 1    
    19   16   18 1    
    20   18   19 1    
    21   18   20 1    
    22   20   21 ar   
    23   21   22 1    
    24   21   23 ar   
    25   23   24 ar   
    26   24   25 ar   
    27   25   26 ar   
    28   26   27 1    
    29   26   20 ar   
    30   25   28 1    
    31   28   29 1    
    32   29   30 1    
    33   29   31 1    
    34   29   32 1    
    35   24   33 1    
    36   33   34 1    
    37   34   35 1    
    38   34   36 1    
    39   34   37 1    
    40   23   38 1    
    41   38   39 1    
    42   39   40 1    
    43   39   41 1    
    44   39   42 1    
    45   18   43 1    
    46   43   44 1    
    47   43   45 1    
    48   43   46 1    
    49    2   47 1    
    50   47   48 1    
    51   47   49 1    
@<TRIPOS>SUBSTRUCTURE
     1 ****        1 TEMP              0 ****  ****    0 ROOT 
@<TRIPOS>SET
UNITY_3DHIT     STATIC     ATOMS    <user>   **** Atoms matching 3D or FLEX Search
0
