#	Name:			25-10
#	Creating user name:	jeff
#	Creation time:		Thu Dec  4 18:13:38 2003

#	Modifying user name:	jeff
#	Modification time:	Thu Dec  4 18:13:38 2003

@<TRIPOS>MOLECULE
25-10
   37    39     1     0     1
SMALL
USER_CHARGES
****
From 3DB ct
@<TRIPOS>ATOM
      1 N          10.178000    2.724000   12.829000 N.ar      1 <1>        -0.670000 
      2 C          10.786000    2.056000   11.852000 C.ar      1 <1>         0.773900 
      3 N          12.071000    2.185000   11.535000 N.ar      1 <1>        -0.700400 
      4 C          12.798000    3.046000   12.231000 C.ar      1 <1>         0.796000 
      5 C          12.271000    3.798000   13.273000 C.ar      1 <1>        -0.701500 
      6 C          10.921000    3.575000   13.547000 C.ar      1 <1>         0.724000 
      7 N          10.240000    4.270000   14.530000 N.pl3     1 <1>        -0.753900 
      8 H          10.713000    4.453000   15.409000 H         1 <1>         0.335000 
      9 H           9.258000    4.027000   14.625000 H         1 <1>         0.323300 
     10 C          13.120000    4.711000   13.954000 C.ar      1 <1>         0.156800 
     11 H          12.695000    5.291000   14.771000 H         1 <1>         0.066700 
     12 C          14.465000    4.867000   13.615000 C.ar      1 <1>        -0.179700 
     13 C          14.864000    4.054000   12.556000 C.ar      1 <1>         0.342300 
     14 H          15.877000    4.096000   12.161000 H         1 <1>         0.063400 
     15 N          14.076000    3.169000   11.880000 N.ar      1 <1>        -0.554200 
     16 N          15.297000    5.756000   14.273000 N.pl3     1 <1>        -0.199800 
     17 C          16.389000    6.476000   13.592000 C.3       1 <1>        -0.051000 
     18 H          17.178000    5.759000   13.339000 H         1 <1>         0.064700 
     19 H          16.855000    7.241000   14.223000 H         1 <1>         0.078500 
     20 C          15.900000    7.195000   12.348000 C.ar      1 <1>         0.026400 
     21 C          16.797000    7.529000   11.321000 C.ar      1 <1>        -0.131000 
     22 H          17.851000    7.268000   11.403000 H         1 <1>         0.118500 
     23 C          16.349000    8.197000   10.180000 C.ar      1 <1>        -0.116600 
     24 H          17.053000    8.449000    9.389000 H         1 <1>         0.107300 
     25 C          15.005000    8.542000   10.053000 C.ar      1 <1>        -0.068900 
     26 H          14.658000    9.061000    9.162000 H         1 <1>         0.097800 
     27 C          14.106000    8.224000   11.069000 C.ar      1 <1>        -0.127900 
     28 H          13.056000    8.495000   10.972000 H         1 <1>         0.109700 
     29 C          14.550000    7.557000   12.212000 C.ar      1 <1>        -0.101600 
     30 H          13.839000    7.313000   13.000000 H         1 <1>         0.107100 
     31 C          15.079000    6.057000   15.691000 C.3       1 <1>        -0.002200 
     32 H          15.587000    6.980000   15.991000 H         1 <1>         0.057800 
     33 H          15.458000    5.243000   16.318000 H         1 <1>         0.027100 
     34 H          14.014000    6.211000   15.903000 H         1 <1>         0.040600 
     35 N          10.039000    1.184000   11.123000 N.pl3     1 <1>        -0.799700 
     36 H          10.461000    0.674000   10.362000 H         1 <1>         0.377400 
     37 H           9.057000    1.074000   11.330000 H         1 <1>         0.364200 
@<TRIPOS>BOND
     1    1    2 ar   
     2    2    3 ar   
     3    3    4 ar   
     4    4    5 ar   
     5    5    6 ar   
     6    6    1 ar   
     7    6    7 1    
     8    7    8 1    
     9    7    9 1    
    10    5   10 ar   
    11   10   11 1    
    12   10   12 ar   
    13   12   13 ar   
    14   13   14 1    
    15   13   15 ar   
    16   15    4 ar   
    17   12   16 1    
    18   16   17 1    
    19   17   18 1    
    20   17   19 1    
    21   17   20 1    
    22   20   21 ar   
    23   21   22 1    
    24   21   23 ar   
    25   23   24 1    
    26   23   25 ar   
    27   25   26 1    
    28   25   27 ar   
    29   27   28 1    
    30   27   29 ar   
    31   29   30 1    
    32   29   20 ar   
    33   16   31 1    
    34   31   32 1    
    35   31   33 1    
    36   31   34 1    
    37    2   35 1    
    38   35   36 1    
    39   35   37 1    
@<TRIPOS>SUBSTRUCTURE
     1 ****        1 TEMP              0 ****  ****    0 ROOT 
@<TRIPOS>SET
UNITY_3DHIT     STATIC     ATOMS    <user>   **** Atoms matching 3D or FLEX Search
0
