#	Name:			25-14
#	Creating user name:	jeff
#	Creation time:		Thu Dec  4 18:13:38 2003

#	Modifying user name:	jeff
#	Modification time:	Thu Dec  4 18:13:38 2003

@<TRIPOS>MOLECULE
25-14
   46    48     1     0     1
SMALL
USER_CHARGES
****
From 3DB ct
@<TRIPOS>ATOM
      1 N          10.207000    2.748000   12.855000 N.ar      1 <1>        -0.667600 
      2 C          10.812000    2.075000   11.879000 C.ar      1 <1>         0.755700 
      3 N          12.094000    2.207000   11.552000 N.ar      1 <1>        -0.676700 
      4 C          12.823000    3.076000   12.235000 C.ar      1 <1>         0.750500 
      5 C          12.298000    3.835000   13.276000 C.ar      1 <1>        -0.639400 
      6 C          10.951000    3.608000   13.561000 C.ar      1 <1>         0.720200 
      7 N          10.275000    4.306000   14.545000 N.pl3     1 <1>        -0.749600 
      8 H          10.757000    4.510000   15.414000 H         1 <1>         0.334600 
      9 H           9.296000    4.057000   14.655000 H         1 <1>         0.321100 
     10 C          13.146000    4.754000   13.945000 C.ar      1 <1>         0.030000 
     11 H          12.745000    5.359000   14.757000 H         1 <1>         0.086400 
     12 C          14.481000    4.900000   13.582000 C.ar      1 <1>         0.005800 
     13 C          14.893000    4.080000   12.540000 C.ar      1 <1>         0.320700 
     14 H          15.919000    4.105000   12.178000 H         1 <1>         0.078700 
     15 N          14.101000    3.194000   11.875000 N.ar      1 <1>        -0.550900 
     16 N          15.283000    5.785000   14.265000 N.pl3     1 <1>        -0.588300 
     17 H          15.068000    5.991000   15.238000 H         1 <1>         0.328900 
     18 C          16.362000    6.546000   13.654000 C.3       1 <1>         0.134000 
     19 H          17.203000    5.884000   13.411000 H         1 <1>         0.053200 
     20 H          16.746000    7.300000   14.352000 H         1 <1>         0.051400 
     21 C          15.872000    7.208000   12.388000 C.ar      1 <1>        -0.136300 
     22 C          14.518000    7.558000   12.273000 C.ar      1 <1>        -0.015600 
     23 H          13.832000    7.357000   13.097000 H         1 <1>         0.121800 
     24 C          14.019000    8.148000   11.106000 C.ar      1 <1>        -0.283300 
     25 H          12.956000    8.374000   11.076000 H         1 <1>         0.153700 
     26 C          14.863000    8.409000   10.023000 C.ar      1 <1>         0.259400 
     27 C          16.232000    8.105000   10.143000 C.ar      1 <1>         0.017200 
     28 C          16.728000    7.511000   11.318000 C.ar      1 <1>         0.116300 
     29 O          18.052000    7.149000   11.395000 O.3       1 <1>        -0.233500 
     30 C          18.231000    5.804000   10.937000 C.3       1 <1>         0.005500 
     31 H          19.306000    5.628000   10.835000 H         1 <1>         0.057300 
     32 H          17.766000    5.640000    9.959000 H         1 <1>         0.050200 
     33 H          17.839000    5.089000   11.666000 H         1 <1>         0.056600 
     34 O          17.121000    8.288000    9.107000 O.3       1 <1>        -0.274300 
     35 C          18.456000    7.911000    9.458000 C.3       1 <1>         0.031700 
     36 H          18.937000    7.519000    8.557000 H         1 <1>         0.067500 
     37 H          18.489000    7.128000   10.225000 H         1 <1>         0.034600 
     38 H          19.022000    8.790000    9.781000 H         1 <1>         0.032800 
     39 O          14.445000    8.919000    8.823000 O.3       1 <1>        -0.293700 
     40 C          15.434000    9.128000    7.816000 C.3       1 <1>         0.087800 
     41 H          14.928000    9.529000    6.933000 H         1 <1>         0.037300 
     42 H          15.909000    8.184000    7.529000 H         1 <1>         0.030200 
     43 H          16.175000    9.866000    8.139000 H         1 <1>         0.032000 
     44 N          10.066000    1.188000   11.167000 N.pl3     1 <1>        -0.788500 
     45 H          10.491000    0.658000   10.420000 H         1 <1>         0.371300 
     46 H           9.089000    1.064000   11.390000 H         1 <1>         0.363100 
@<TRIPOS>BOND
     1    1    2 ar   
     2    2    3 ar   
     3    3    4 ar   
     4    4    5 ar   
     5    5    6 ar   
     6    6    1 ar   
     7    6    7 1    
     8    7    8 1    
     9    7    9 1    
    10    5   10 ar   
    11   10   11 1    
    12   10   12 ar   
    13   12   13 ar   
    14   13   14 1    
    15   13   15 ar   
    16   15    4 ar   
    17   12   16 1    
    18   16   17 1    
    19   16   18 1    
    20   18   19 1    
    21   18   20 1    
    22   18   21 1    
    23   21   22 ar   
    24   22   23 1    
    25   22   24 ar   
    26   24   25 1    
    27   24   26 ar   
    28   26   27 ar   
    29   27   28 ar   
    30   28   21 ar   
    31   28   29 1    
    32   29   30 1    
    33   30   31 1    
    34   30   32 1    
    35   30   33 1    
    36   27   34 1    
    37   34   35 1    
    38   35   36 1    
    39   35   37 1    
    40   35   38 1    
    41   26   39 1    
    42   39   40 1    
    43   40   41 1    
    44   40   42 1    
    45   40   43 1    
    46    2   44 1    
    47   44   45 1    
    48   44   46 1    
@<TRIPOS>SUBSTRUCTURE
     1 ****        1 TEMP              0 ****  ****    0 ROOT 
@<TRIPOS>SET
UNITY_3DHIT     STATIC     ATOMS    <user>   **** Atoms matching 3D or FLEX Search
0
