#	Name:			25-19
#	Creating user name:	jeff
#	Creation time:		Thu Dec  4 18:13:38 2003

#	Modifying user name:	jeff
#	Modification time:	Thu Dec  4 18:13:38 2003

@<TRIPOS>MOLECULE
25-19
   42    44     1     0     1
SMALL
USER_CHARGES
****
From 3DB ct
@<TRIPOS>ATOM
      1 N          10.202000    2.745000   12.848000 N.ar      1 <1>        -0.670100 
      2 C          10.812000    2.075000   11.873000 C.ar      1 <1>         0.761900 
      3 N          12.096000    2.208000   11.554000 N.ar      1 <1>        -0.680100 
      4 C          12.822000    3.074000   12.246000 C.ar      1 <1>         0.743700 
      5 C          12.291000    3.830000   13.286000 C.ar      1 <1>        -0.626700 
      6 C          10.943000    3.601000   13.562000 C.ar      1 <1>         0.716900 
      7 N          10.261000    4.293000   14.546000 N.pl3     1 <1>        -0.742300 
      8 H          10.735000    4.482000   15.424000 H         1 <1>         0.332200 
      9 H           9.281000    4.043000   14.646000 H         1 <1>         0.319400 
     10 C          13.133000    4.751000   13.964000 C.ar      1 <1>         0.003900 
     11 H          12.712000    5.351000   14.767000 H         1 <1>         0.088000 
     12 C          14.469000    4.895000   13.612000 C.ar      1 <1>         0.082300 
     13 C          14.885000    4.081000   12.564000 C.ar      1 <1>         0.270300 
     14 H          15.914000    4.124000   12.212000 H         1 <1>         0.084700 
     15 N          14.101000    3.194000   11.892000 N.ar      1 <1>        -0.534400 
     16 N          15.339000    5.774000   14.215000 N.pl3     1 <1>        -0.647600 
     17 H          15.193000    6.019000   15.193000 H         1 <1>         0.349400 
     18 C          16.443000    6.432000   13.536000 C.3       1 <1>         0.132200 
     19 H          17.193000    5.695000   13.224000 H         1 <1>         0.044600 
     20 H          16.942000    7.143000   14.207000 H         1 <1>         0.050300 
     21 C          15.927000    7.181000   12.328000 C.ar      1 <1>         0.102000 
     22 C          16.792000    7.524000   11.279000 C.ar      1 <1>        -0.368000 
     23 H          17.846000    7.254000   11.337000 H         1 <1>         0.150700 
     24 C          16.322000    8.208000   10.156000 C.ar      1 <1>         0.390000 
     25 C          14.970000    8.546000   10.079000 C.ar      1 <1>        -0.424400 
     26 H          14.568000    9.077000    9.221000 H         1 <1>         0.157400 
     27 C          14.088000    8.199000   11.109000 C.ar      1 <1>         0.406500 
     28 C          14.567000    7.517000   12.229000 C.ar      1 <1>        -0.349800 
     29 H          13.908000    7.230000   13.044000 H         1 <1>         0.163600 
     30 O          12.790000    8.584000   10.901000 O.3       1 <1>        -0.314100 
     31 C          12.500000    9.224000    9.659000 C.3       1 <1>         0.061100 
     32 H          11.437000    9.484000    9.661000 H         1 <1>         0.054300 
     33 H          12.677000    8.547000    8.818000 H         1 <1>         0.037200 
     34 H          13.072000   10.152000    9.552000 H         1 <1>         0.034100 
     35 O          17.275000    8.486000    9.214000 O.3       1 <1>        -0.290800 
     36 C          18.611000    8.083000    9.511000 C.3       1 <1>         0.025100 
     37 H          19.242000    8.374000    8.666000 H         1 <1>         0.065800 
     38 H          18.678000    6.996000    9.620000 H         1 <1>         0.043200 
     39 H          18.987000    8.596000   10.402000 H         1 <1>         0.033500 
     40 N          10.068000    1.194000   11.152000 N.pl3     1 <1>        -0.793900 
     41 H          10.493000    0.669000   10.402000 H         1 <1>         0.373500 
     42 H           9.090000    1.070000   11.371000 H         1 <1>         0.364400 
@<TRIPOS>BOND
     1    1    2 ar   
     2    2    3 ar   
     3    3    4 ar   
     4    4    5 ar   
     5    5    6 ar   
     6    6    1 ar   
     7    6    7 1    
     8    7    8 1    
     9    7    9 1    
    10    5   10 ar   
    11   10   11 1    
    12   10   12 ar   
    13   12   13 ar   
    14   13   14 1    
    15   13   15 ar   
    16   15    4 ar   
    17   12   16 1    
    18   16   17 1    
    19   16   18 1    
    20   18   19 1    
    21   18   20 1    
    22   18   21 1    
    23   21   22 ar   
    24   22   23 1    
    25   22   24 ar   
    26   24   25 ar   
    27   25   26 1    
    28   25   27 ar   
    29   27   28 ar   
    30   28   29 1    
    31   28   21 ar   
    32   27   30 1    
    33   30   31 1    
    34   31   32 1    
    35   31   33 1    
    36   31   34 1    
    37   24   35 1    
    38   35   36 1    
    39   36   37 1    
    40   36   38 1    
    41   36   39 1    
    42    2   40 1    
    43   40   41 1    
    44   40   42 1    
@<TRIPOS>SUBSTRUCTURE
     1 ****        1 TEMP              0 ****  ****    0 ROOT 
@<TRIPOS>SET
UNITY_3DHIT     STATIC     ATOMS    <user>   **** Atoms matching 3D or FLEX Search
0
