#	Name:			25-16
#	Creating user name:	jeff
#	Creation time:		Thu Dec  4 18:13:38 2003

#	Modifying user name:	jeff
#	Modification time:	Thu Dec  4 18:13:38 2003

@<TRIPOS>MOLECULE
25-16
   46    48     1     0     1
SMALL
USER_CHARGES
****
From 3DB ct
@<TRIPOS>ATOM
      1 N          10.196000    2.711000   12.831000 N.ar      1 <1>        -0.684400 
      2 C          10.833000    2.052000   11.865000 C.ar      1 <1>         0.768500 
      3 N          12.116000    2.214000   11.558000 N.ar      1 <1>        -0.676900 
      4 C          12.812000    3.103000   12.250000 C.ar      1 <1>         0.716800 
      5 C          12.252000    3.853000   13.281000 C.ar      1 <1>        -0.628100 
      6 C          10.908000    3.590000   13.546000 C.ar      1 <1>         0.744400 
      7 N          10.199000    4.270000   14.521000 N.pl3     1 <1>        -0.763400 
      8 H          10.662000    4.481000   15.399000 H         1 <1>         0.337400 
      9 H           9.226000    3.996000   14.616000 H         1 <1>         0.323800 
     10 C          13.063000    4.799000   13.960000 C.ar      1 <1>        -0.055000 
     11 H          12.620000    5.394000   14.755000 H         1 <1>         0.103500 
     12 C          14.399000    4.974000   13.620000 C.ar      1 <1>         0.211800 
     13 C          14.846000    4.161000   12.585000 C.ar      1 <1>         0.234500 
     14 H          15.881000    4.220000   12.250000 H         1 <1>         0.084400 
     15 N          14.091000    3.252000   11.908000 N.ar      1 <1>        -0.518000 
     16 N          15.249000    5.856000   14.246000 N.pl3     1 <1>        -0.761300 
     17 H          15.123000    6.039000   15.240000 H         1 <1>         0.361000 
     18 C          16.378000    6.514000   13.604000 C.3       1 <1>         0.338500 
     19 H          17.156000    5.784000   13.348000 H         1 <1>         0.018100 
     20 H          16.850000    7.222000   14.295000 H         1 <1>         0.021400 
     21 C          15.921000    7.231000   12.345000 C.ar      1 <1>        -0.514900 
     22 C          16.836000    7.484000   11.298000 C.ar      1 <1>         0.387000 
     23 C          16.408000    8.131000   10.132000 C.ar      1 <1>        -0.439300 
     24 H          17.114000    8.336000    9.336000 H         1 <1>         0.151100 
     25 C          15.075000    8.518000    9.991000 C.ar      1 <1>         0.452000 
     26 C          14.167000    8.259000   11.020000 C.ar      1 <1>        -0.546600 
     27 H          13.136000    8.573000   10.874000 H         1 <1>         0.189100 
     28 C          14.574000    7.618000   12.194000 C.ar      1 <1>         0.517400 
     29 O          13.738000    7.329000   13.243000 O.3       1 <1>        -0.297500 
     30 C          12.396000    7.807000   13.172000 C.3       1 <1>         0.004200 
     31 H          11.875000    7.472000   14.075000 H         1 <1>         0.060300 
     32 H          11.872000    7.383000   12.310000 H         1 <1>         0.056600 
     33 H          12.367000    8.902000   13.158000 H         1 <1>         0.047100 
     34 O          14.534000    9.153000    8.905000 O.3       1 <1>        -0.291900 
     35 C          15.411000    9.447000    7.819000 C.3       1 <1>         0.030100 
     36 H          14.823000    9.948000    7.044000 H         1 <1>         0.067800 
     37 H          15.822000    8.529000    7.386000 H         1 <1>         0.040400 
     38 H          16.207000   10.132000    8.130000 H         1 <1>         0.033300 
     39 O          18.127000    7.070000   11.516000 O.3       1 <1>        -0.203200 
     40 C          19.122000    7.465000   10.573000 C.3       1 <1>        -0.065600 
     41 H          20.061000    6.984000   10.862000 H         1 <1>         0.084200 
     42 H          19.279000    8.548000   10.601000 H         1 <1>         0.058200 
     43 H          18.867000    7.123000    9.564000 H         1 <1>         0.062500 
     44 N          10.118000    1.148000   11.140000 N.pl3     1 <1>        -0.796100 
     45 H          10.567000    0.629000   10.400000 H         1 <1>         0.371200 
     46 H           9.141000    1.004000   11.346000 H         1 <1>         0.365400 
@<TRIPOS>BOND
     1    1    2 ar   
     2    2    3 ar   
     3    3    4 ar   
     4    4    5 ar   
     5    5    6 ar   
     6    6    1 ar   
     7    6    7 1    
     8    7    8 1    
     9    7    9 1    
    10    5   10 ar   
    11   10   11 1    
    12   10   12 ar   
    13   12   13 ar   
    14   13   14 1    
    15   13   15 ar   
    16   15    4 ar   
    17   12   16 1    
    18   16   17 1    
    19   16   18 1    
    20   18   19 1    
    21   18   20 1    
    22   18   21 1    
    23   21   22 ar   
    24   22   23 ar   
    25   23   24 1    
    26   23   25 ar   
    27   25   26 ar   
    28   26   27 1    
    29   26   28 ar   
    30   28   21 ar   
    31   28   29 1    
    32   29   30 1    
    33   30   31 1    
    34   30   32 1    
    35   30   33 1    
    36   25   34 1    
    37   34   35 1    
    38   35   36 1    
    39   35   37 1    
    40   35   38 1    
    41   22   39 1    
    42   39   40 1    
    43   40   41 1    
    44   40   42 1    
    45   40   43 1    
    46    2   44 1    
    47   44   45 1    
    48   44   46 1    
@<TRIPOS>SUBSTRUCTURE
     1 ****        1 TEMP              0 ****  ****    0 ROOT 
@<TRIPOS>SET
UNITY_3DHIT     STATIC     ATOMS    <user>   **** Atoms matching 3D or FLEX Search
0
