#	Name:			25-15
#	Creating user name:	jeff
#	Creation time:		Thu Dec  4 18:13:38 2003

#	Modifying user name:	jeff
#	Modification time:	Thu Dec  4 18:13:38 2003

@<TRIPOS>MOLECULE
25-15
   49    51     1     0     1
SMALL
USER_CHARGES
****
From 3DB ct
@<TRIPOS>ATOM
      1 N          10.207000    2.748000   12.855000 N.ar      1 <1>        -0.675100 
      2 C          10.812000    2.075000   11.879000 C.ar      1 <1>         0.778500 
      3 N          12.094000    2.207000   11.552000 N.ar      1 <1>        -0.701700 
      4 C          12.823000    3.076000   12.235000 C.ar      1 <1>         0.802000 
      5 C          12.298000    3.835000   13.276000 C.ar      1 <1>        -0.722100 
      6 C          10.951000    3.608000   13.561000 C.ar      1 <1>         0.739800 
      7 N          10.275000    4.306000   14.545000 N.pl3     1 <1>        -0.763700 
      8 H          10.757000    4.510000   15.414000 H         1 <1>         0.338400 
      9 H           9.296000    4.057000   14.655000 H         1 <1>         0.325900 
     10 C          13.146000    4.754000   13.945000 C.ar      1 <1>         0.171100 
     11 H          12.745000    5.359000   14.757000 H         1 <1>         0.066900 
     12 C          14.481000    4.900000   13.582000 C.ar      1 <1>        -0.171700 
     13 C          14.893000    4.080000   12.540000 C.ar      1 <1>         0.347700 
     14 H          15.919000    4.105000   12.178000 H         1 <1>         0.070500 
     15 N          14.101000    3.194000   11.875000 N.ar      1 <1>        -0.560000 
     16 N          15.283000    5.785000   14.265000 N.pl3     1 <1>        -0.239900 
     17 C          16.362000    6.546000   13.654000 C.3       1 <1>         0.017800 
     18 H          17.203000    5.884000   13.411000 H         1 <1>         0.054200 
     19 H          16.746000    7.300000   14.352000 H         1 <1>         0.084300 
     20 C          15.872000    7.208000   12.388000 C.ar      1 <1>        -0.112100 
     21 C          14.518000    7.558000   12.273000 C.ar      1 <1>         0.005400 
     22 H          13.832000    7.357000   13.097000 H         1 <1>         0.111600 
     23 C          14.019000    8.148000   11.106000 C.ar      1 <1>        -0.295900 
     24 H          12.956000    8.374000   11.076000 H         1 <1>         0.156900 
     25 C          14.863000    8.409000   10.023000 C.ar      1 <1>         0.260600 
     26 C          16.232000    8.105000   10.143000 C.ar      1 <1>         0.027700 
     27 C          16.728000    7.511000   11.318000 C.ar      1 <1>         0.088400 
     28 O          18.052000    7.149000   11.395000 O.3       1 <1>        -0.213700 
     29 C          18.231000    5.804000   10.937000 C.3       1 <1>        -0.040800 
     30 H          19.306000    5.628000   10.835000 H         1 <1>         0.065200 
     31 H          17.766000    5.640000    9.959000 H         1 <1>         0.065000 
     32 H          17.839000    5.089000   11.666000 H         1 <1>         0.070100 
     33 O          17.121000    8.288000    9.107000 O.3       1 <1>        -0.275900 
     34 C          18.456000    7.911000    9.458000 C.3       1 <1>         0.045600 
     35 H          18.937000    7.519000    8.557000 H         1 <1>         0.063800 
     36 H          18.489000    7.128000   10.225000 H         1 <1>         0.032200 
     37 H          19.022000    8.790000    9.781000 H         1 <1>         0.027500 
     38 O          14.445000    8.919000    8.823000 O.3       1 <1>        -0.295100 
     39 C          15.434000    9.128000    7.816000 C.3       1 <1>         0.102800 
     40 H          14.928000    9.529000    6.933000 H         1 <1>         0.033500 
     41 H          15.909000    8.184000    7.529000 H         1 <1>         0.025300 
     42 H          16.175000    9.866000    8.139000 H         1 <1>         0.026700 
     43 C          14.998000    6.058000   15.556000 C.3       1 <1>        -0.019500 
     44 H          14.030000    5.628000   15.813000 H         1 <1>         0.040400 
     45 H          15.768000    5.628000   16.197000 H         1 <1>         0.061800 
     46 H          14.966000    7.138000   15.700000 H         1 <1>         0.038200 
     47 N          10.066000    1.188000   11.167000 N.pl3     1 <1>        -0.800600 
     48 H          10.491000    0.658000   10.420000 H         1 <1>         0.376500 
     49 H           9.089000    1.064000   11.390000 H         1 <1>         0.365400 
@<TRIPOS>BOND
     1    1    2 ar   
     2    2    3 ar   
     3    3    4 ar   
     4    4    5 ar   
     5    5    6 ar   
     6    6    1 ar   
     7    6    7 1    
     8    7    8 1    
     9    7    9 1    
    10    5   10 ar   
    11   10   11 1    
    12   10   12 ar   
    13   12   13 ar   
    14   13   14 1    
    15   13   15 ar   
    16   15    4 ar   
    17   12   16 1    
    18   16   17 1    
    19   17   18 1    
    20   17   19 1    
    21   17   20 1    
    22   20   21 ar   
    23   21   22 1    
    24   21   23 ar   
    25   23   24 1    
    26   23   25 ar   
    27   25   26 ar   
    28   26   27 ar   
    29   27   20 ar   
    30   27   28 1    
    31   28   29 1    
    32   29   30 1    
    33   29   31 1    
    34   29   32 1    
    35   26   33 1    
    36   33   34 1    
    37   34   35 1    
    38   34   36 1    
    39   34   37 1    
    40   25   38 1    
    41   38   39 1    
    42   39   40 1    
    43   39   41 1    
    44   39   42 1    
    45   16   43 1    
    46   43   44 1    
    47   43   45 1    
    48   43   46 1    
    49    2   47 1    
    50   47   48 1    
    51   47   49 1    
@<TRIPOS>SUBSTRUCTURE
     1 ****        1 TEMP              0 ****  ****    0 ROOT 
@<TRIPOS>SET
UNITY_3DHIT     STATIC     ATOMS    <user>   **** Atoms matching 3D or FLEX Search
0
