#	Name:			25-21
#	Creating user name:	jeff
#	Creation time:		Thu Dec  4 18:13:39 2003

#	Modifying user name:	jeff
#	Modification time:	Thu Dec  4 18:13:39 2003

@<TRIPOS>MOLECULE
25-21
   42    44     1     0     1
SMALL
USER_CHARGES
****
From 3DB ct
@<TRIPOS>ATOM
      1 N          10.199000    2.727000   12.844000 N.ar      1 <1>        -0.666600 
      2 C          10.819000    2.059000   11.875000 C.ar      1 <1>         0.751800 
      3 N          12.101000    2.207000   11.557000 N.ar      1 <1>        -0.677800 
      4 C          12.814000    3.088000   12.242000 C.ar      1 <1>         0.749500 
      5 C          12.272000    3.845000   13.275000 C.ar      1 <1>        -0.625900 
      6 C          10.927000    3.599000   13.552000 C.ar      1 <1>         0.711900 
      7 N          10.235000    4.288000   14.532000 N.pl3     1 <1>        -0.742200 
      8 H          10.707000    4.487000   15.408000 H         1 <1>         0.332300 
      9 H           9.258000    4.026000   14.634000 H         1 <1>         0.318800 
     10 C          13.101000    4.783000   13.947000 C.ar      1 <1>         0.004500 
     11 H          12.671000    5.381000   14.746000 H         1 <1>         0.088100 
     12 C          14.435000    4.944000   13.593000 C.ar      1 <1>         0.063400 
     13 C          14.864000    4.121000   12.558000 C.ar      1 <1>         0.280500 
     14 H          15.897000    4.166000   12.215000 H         1 <1>         0.093500 
     15 N          14.093000    3.221000   11.890000 N.ar      1 <1>        -0.544400 
     16 N          15.300000    5.818000   14.211000 N.pl3     1 <1>        -0.625100 
     17 H          15.249000    5.925000   15.223000 H         1 <1>         0.343100 
     18 C          16.393000    6.507000   13.543000 C.3       1 <1>         0.147200 
     19 H          17.154000    5.787000   13.215000 H         1 <1>         0.046500 
     20 H          16.892000    7.198000   14.232000 H         1 <1>         0.051400 
     21 C          15.873000    7.245000   12.327000 C.ar      1 <1>        -0.117200 
     22 C          14.512000    7.607000   12.286000 C.ar      1 <1>        -0.169700 
     23 H          13.863000    7.346000   13.122000 H         1 <1>         0.144900 
     24 C          13.974000    8.297000   11.198000 C.ar      1 <1>         0.232400 
     25 C          14.808000    8.638000   10.137000 C.ar      1 <1>        -0.180100 
     26 H          14.441000    9.174000    9.266000 H         1 <1>         0.126400 
     27 C          16.167000    8.296000   10.167000 C.ar      1 <1>        -0.203900 
     28 H          16.773000    8.591000    9.314000 H         1 <1>         0.130200 
     29 C          16.710000    7.605000   11.255000 C.ar      1 <1>         0.206000 
     30 O          18.025000    7.239000   11.363000 O.3       1 <1>        -0.261500 
     31 C          18.878000    7.518000   10.254000 C.3       1 <1>         0.029900 
     32 H          19.888000    7.194000   10.522000 H         1 <1>         0.060700 
     33 H          18.916000    8.592000   10.047000 H         1 <1>         0.034500 
     34 H          18.568000    6.951000    9.370000 H         1 <1>         0.043800 
     35 O          12.640000    8.575000   11.293000 O.3       1 <1>        -0.302600 
     36 C          12.051000    9.280000   10.200000 C.3       1 <1>         0.080500 
     37 H          10.990000    9.421000   10.428000 H         1 <1>         0.051800 
     38 H          12.120000    8.698000    9.275000 H         1 <1>         0.027500 
     39 H          12.502000   10.271000   10.083000 H         1 <1>         0.021100 
     40 N          10.089000    1.161000   11.159000 N.pl3     1 <1>        -0.788800 
     41 H          10.525000    0.636000   10.416000 H         1 <1>         0.371300 
     42 H           9.112000    1.024000   11.375000 H         1 <1>         0.362500 
@<TRIPOS>BOND
     1    1    2 ar   
     2    2    3 ar   
     3    3    4 ar   
     4    4    5 ar   
     5    5    6 ar   
     6    6    1 ar   
     7    6    7 1    
     8    7    8 1    
     9    7    9 1    
    10    5   10 ar   
    11   10   11 1    
    12   10   12 ar   
    13   12   13 ar   
    14   13   14 1    
    15   13   15 ar   
    16   15    4 ar   
    17   12   16 1    
    18   16   17 1    
    19   16   18 1    
    20   18   19 1    
    21   18   20 1    
    22   18   21 1    
    23   21   22 ar   
    24   22   23 1    
    25   22   24 ar   
    26   24   25 ar   
    27   25   26 1    
    28   25   27 ar   
    29   27   28 1    
    30   27   29 ar   
    31   29   21 ar   
    32   29   30 1    
    33   30   31 1    
    34   31   32 1    
    35   31   33 1    
    36   31   34 1    
    37   24   35 1    
    38   35   36 1    
    39   36   37 1    
    40   36   38 1    
    41   36   39 1    
    42    2   40 1    
    43   40   41 1    
    44   40   42 1    
@<TRIPOS>SUBSTRUCTURE
     1 ****        1 TEMP              0 ****  ****    0 ROOT 
@<TRIPOS>SET
UNITY_3DHIT     STATIC     ATOMS    <user>   **** Atoms matching 3D or FLEX Search
0
