#	Name:			25-20
#	Creating user name:	jeff
#	Creation time:		Thu Dec  4 18:13:38 2003

#	Modifying user name:	jeff
#	Modification time:	Thu Dec  4 18:13:39 2003

@<TRIPOS>MOLECULE
25-20
   45    47     1     0     1
SMALL
USER_CHARGES
****
From 3DB ct
@<TRIPOS>ATOM
      1 N          10.182000    2.730000   12.829000 N.ar      1 <1>        -0.676300 
      2 C          10.790000    2.062000   11.852000 C.ar      1 <1>         0.782300 
      3 N          12.073000    2.192000   11.533000 N.ar      1 <1>        -0.704500 
      4 C          12.801000    3.053000   12.228000 C.ar      1 <1>         0.794900 
      5 C          12.276000    3.806000   13.271000 C.ar      1 <1>        -0.710700 
      6 C          10.927000    3.581000   13.547000 C.ar      1 <1>         0.734600 
      7 N          10.246000    4.271000   14.534000 N.pl3     1 <1>        -0.758700 
      8 H          10.719000    4.457000   15.412000 H         1 <1>         0.336200 
      9 H           9.265000    4.024000   14.632000 H         1 <1>         0.325200 
     10 C          13.127000    4.717000   13.956000 C.ar      1 <1>         0.155100 
     11 H          12.704000    5.283000   14.782000 H         1 <1>         0.069900 
     12 C          14.471000    4.866000   13.617000 C.ar      1 <1>        -0.131800 
     13 C          14.871000    4.046000   12.562000 C.ar      1 <1>         0.310000 
     14 H          15.895000    4.074000   12.191000 H         1 <1>         0.070200 
     15 N          14.081000    3.168000   11.880000 N.ar      1 <1>        -0.544800 
     16 N          15.329000    5.736000   14.269000 N.pl3     1 <1>        -0.253200 
     17 C          16.401000    6.465000   13.570000 C.3       1 <1>         0.051400 
     18 H          17.196000    5.756000   13.309000 H         1 <1>         0.030300 
     19 H          16.859000    7.240000   14.194000 H         1 <1>         0.063500 
     20 C          15.890000    7.184000   12.335000 C.ar      1 <1>         0.137300 
     21 C          16.772000    7.529000   11.300000 C.ar      1 <1>        -0.380500 
     22 H          17.827000    7.266000   11.376000 H         1 <1>         0.161700 
     23 C          16.318000    8.208000   10.167000 C.ar      1 <1>         0.372100 
     24 C          14.969000    8.549000   10.069000 C.ar      1 <1>        -0.412800 
     25 H          14.579000    9.080000    9.204000 H         1 <1>         0.153500 
     26 C          14.073000    8.217000   11.093000 C.ar      1 <1>         0.411400 
     27 C          14.536000    7.542000   12.223000 C.ar      1 <1>        -0.367800 
     28 H          13.868000    7.275000   13.039000 H         1 <1>         0.156300 
     29 O          12.780000    8.610000   10.871000 O.3       1 <1>        -0.299300 
     30 C          12.505000    9.240000    9.621000 C.3       1 <1>         0.025700 
     31 H          11.450000    9.530000    9.618000 H         1 <1>         0.062500 
     32 H          12.663000    8.546000    8.789000 H         1 <1>         0.046300 
     33 H          13.102000   10.151000    9.499000 H         1 <1>         0.041000 
     34 O          17.285000    8.478000    9.237000 O.3       1 <1>        -0.287300 
     35 C          18.613000    8.062000    9.553000 C.3       1 <1>         0.035700 
     36 H          19.262000    8.368000    8.726000 H         1 <1>         0.062700 
     37 H          18.673000    6.972000    9.639000 H         1 <1>         0.040100 
     38 H          18.974000    8.555000   10.461000 H         1 <1>         0.030200 
     39 C          15.082000    6.069000   15.676000 C.3       1 <1>        -0.010100 
     40 H          15.596000    6.991000   15.969000 H         1 <1>         0.064900 
     41 H          15.435000    5.263000   16.328000 H         1 <1>         0.027400 
     42 H          14.015000    6.239000   15.859000 H         1 <1>         0.045800 
     43 N          10.043000    1.183000   11.129000 N.pl3     1 <1>        -0.804800 
     44 H          10.470000    0.655000   10.382000 H         1 <1>         0.378700 
     45 H           9.064000    1.063000   11.346000 H         1 <1>         0.365600 
@<TRIPOS>BOND
     1    1    2 ar   
     2    2    3 ar   
     3    3    4 ar   
     4    4    5 ar   
     5    5    6 ar   
     6    6    1 ar   
     7    6    7 1    
     8    7    8 1    
     9    7    9 1    
    10    5   10 ar   
    11   10   11 1    
    12   10   12 ar   
    13   12   13 ar   
    14   13   14 1    
    15   13   15 ar   
    16   15    4 ar   
    17   12   16 1    
    18   16   17 1    
    19   17   18 1    
    20   17   19 1    
    21   17   20 1    
    22   20   21 ar   
    23   21   22 1    
    24   21   23 ar   
    25   23   24 ar   
    26   24   25 1    
    27   24   26 ar   
    28   26   27 ar   
    29   27   28 1    
    30   27   20 ar   
    31   26   29 1    
    32   29   30 1    
    33   30   31 1    
    34   30   32 1    
    35   30   33 1    
    36   23   34 1    
    37   34   35 1    
    38   35   36 1    
    39   35   37 1    
    40   35   38 1    
    41   16   39 1    
    42   39   40 1    
    43   39   41 1    
    44   39   42 1    
    45    2   43 1    
    46   43   44 1    
    47   43   45 1    
@<TRIPOS>SUBSTRUCTURE
     1 ****        1 TEMP              0 ****  ****    0 ROOT 
@<TRIPOS>SET
UNITY_3DHIT     STATIC     ATOMS    <user>   **** Atoms matching 3D or FLEX Search
0
