#	Name:			25-23
#	Creating user name:	jeff
#	Creation time:		Thu Dec  4 18:13:39 2003

#	Modifying user name:	jeff
#	Modification time:	Thu Dec  4 18:13:39 2003

@<TRIPOS>MOLECULE
25-23
   40    43     1     0     1
SMALL
USER_CHARGES
****
From 3DB ct
@<TRIPOS>ATOM
      1 N          10.206000    2.764000   12.866000 N.ar      1 <1>        -0.672300 
      2 C          10.794000    2.083000   11.886000 C.ar      1 <1>         0.765500 
      3 N          12.076000    2.195000   11.551000 N.ar      1 <1>        -0.685200 
      4 C          12.823000    3.052000   12.231000 C.ar      1 <1>         0.759400 
      5 C          12.316000    3.817000   13.275000 C.ar      1 <1>        -0.656700 
      6 C          10.968000    3.611000   13.569000 C.ar      1 <1>         0.724900 
      7 N          10.309000    4.318000   14.558000 N.pl3     1 <1>        -0.749600 
      8 H          10.800000    4.513000   15.425000 H         1 <1>         0.334100 
      9 H           9.327000    4.085000   14.674000 H         1 <1>         0.321100 
     10 C          13.182000    4.724000   13.940000 C.ar      1 <1>         0.045100 
     11 H          12.794000    5.338000   14.750000 H         1 <1>         0.080100 
     12 C          14.517000    4.847000   13.571000 C.ar      1 <1>         0.034100 
     13 C          14.909000    4.027000   12.521000 C.ar      1 <1>         0.287900 
     14 H          15.931000    4.041000   12.150000 H         1 <1>         0.083100 
     15 N          14.100000    3.153000   11.861000 N.ar      1 <1>        -0.538700 
     16 N          15.331000    5.736000   14.233000 N.pl3     1 <1>        -0.642600 
     17 H          15.201000    5.875000   15.233000 H         1 <1>         0.348700 
     18 C          16.394000    6.500000   13.602000 C.3       1 <1>         0.121700 
     19 H          17.237000    5.856000   13.322000 H         1 <1>         0.064800 
     20 H          16.793000    7.237000   14.310000 H         1 <1>         0.047100 
     21 C          15.864000    7.212000   12.371000 C.ar      1 <1>        -0.041300 
     22 C          14.493000    7.528000   12.333000 C.ar      1 <1>        -0.082500 
     23 H          13.845000    7.260000   13.168000 H         1 <1>         0.115300 
     24 C          13.941000    8.183000   11.238000 C.ar      1 <1>        -0.120300 
     25 H          12.879000    8.425000   11.225000 H         1 <1>         0.115600 
     26 C          14.748000    8.530000   10.159000 C.ar      1 <1>        -0.191800 
     27 H          14.295000    9.045000    9.312000 H         1 <1>         0.130000 
     28 C          16.116000    8.220000   10.155000 C.ar      1 <1>         0.167000 
     29 C          16.695000    7.548000   11.263000 C.ar      1 <1>        -0.039600 
     30 C          18.076000    7.249000   11.194000 C.ar      1 <1>        -0.106500 
     31 H          18.574000    6.721000   12.006000 H         1 <1>         0.092900 
     32 C          18.852000    7.605000   10.088000 C.ar      1 <1>        -0.115200 
     33 H          19.913000    7.360000   10.066000 H         1 <1>         0.110300 
     34 C          18.269000    8.269000    9.017000 C.ar      1 <1>        -0.065700 
     35 H          18.870000    8.548000    8.153000 H         1 <1>         0.101400 
     36 C          16.910000    8.572000    9.050000 C.ar      1 <1>        -0.212500 
     37 H          16.470000    9.090000    8.197000 H         1 <1>         0.126900 
     38 N          10.029000    1.209000   11.177000 N.pl3     1 <1>        -0.795300 
     39 H          10.440000    0.674000   10.427000 H         1 <1>         0.374400 
     40 H           9.052000    1.101000   11.407000 H         1 <1>         0.364600 
@<TRIPOS>BOND
     1    1    2 ar   
     2    2    3 ar   
     3    3    4 ar   
     4    4    5 ar   
     5    5    6 ar   
     6    6    1 ar   
     7    6    7 1    
     8    7    8 1    
     9    7    9 1    
    10    5   10 ar   
    11   10   11 1    
    12   10   12 ar   
    13   12   13 ar   
    14   13   14 1    
    15   13   15 ar   
    16   15    4 ar   
    17   12   16 1    
    18   16   17 1    
    19   16   18 1    
    20   18   19 1    
    21   18   20 1    
    22   18   21 1    
    23   21   22 ar   
    24   22   23 1    
    25   22   24 ar   
    26   24   25 1    
    27   24   26 ar   
    28   26   27 1    
    29   26   28 ar   
    30   28   29 ar   
    31   29   21 ar   
    32   29   30 ar   
    33   30   31 1    
    34   30   32 ar   
    35   32   33 1    
    36   32   34 ar   
    37   34   35 1    
    38   34   36 ar   
    39   36   37 1    
    40   36   28 ar   
    41    2   38 1    
    42   38   39 1    
    43   38   40 1    
@<TRIPOS>SUBSTRUCTURE
     1 ****        1 TEMP              0 ****  ****    0 ROOT 
@<TRIPOS>SET
UNITY_3DHIT     STATIC     ATOMS    <user>   **** Atoms matching 3D or FLEX Search
0
