#	Name:			25-22
#	Creating user name:	jeff
#	Creation time:		Thu Dec  4 18:13:39 2003

#	Modifying user name:	jeff
#	Modification time:	Thu Dec  4 18:13:39 2003

@<TRIPOS>MOLECULE
25-22
   45    47     1     0     1
SMALL
USER_CHARGES
****
From 3DB ct
@<TRIPOS>ATOM
      1 N          10.160000    2.683000   12.819000 N.ar      1 <1>        -0.675300 
      2 C          10.793000    2.020000   11.854000 C.ar      1 <1>         0.778200 
      3 N          12.077000    2.177000   11.547000 N.ar      1 <1>        -0.707000 
      4 C          12.777000    3.062000   12.240000 C.ar      1 <1>         0.810000 
      5 C          12.225000    3.812000   13.271000 C.ar      1 <1>        -0.725500 
      6 C          10.878000    3.558000   13.534000 C.ar      1 <1>         0.736500 
      7 N          10.173000    4.243000   14.508000 N.pl3     1 <1>        -0.760900 
      8 H          10.637000    4.450000   15.387000 H         1 <1>         0.337800 
      9 H           9.197000    3.977000   14.604000 H         1 <1>         0.325000 
     10 C          13.046000    4.754000   13.951000 C.ar      1 <1>         0.170700 
     11 H          12.602000    5.314000   14.770000 H         1 <1>         0.065000 
     12 C          14.385000    4.946000   13.611000 C.ar      1 <1>        -0.145900 
     13 C          14.817000    4.114000   12.578000 C.ar      1 <1>         0.314700 
     14 H          15.841000    4.157000   12.213000 H         1 <1>         0.082900 
     15 N          14.056000    3.205000   11.904000 N.ar      1 <1>        -0.555700 
     16 N          15.205000    5.856000   14.261000 N.pl3     1 <1>        -0.219000 
     17 C          16.357000    6.485000   13.581000 C.3       1 <1>        -0.001800 
     18 H          17.142000    5.773000   13.303000 H         1 <1>         0.051300 
     19 H          16.835000    7.156000   14.304000 H         1 <1>         0.083000 
     20 C          15.938000    7.232000   12.326000 C.ar      1 <1>        -0.100000 
     21 C          14.584000    7.585000   12.148000 C.ar      1 <1>        -0.153200 
     22 H          13.859000    7.341000   12.924000 H         1 <1>         0.129200 
     23 C          14.147000    8.247000   10.999000 C.ar      1 <1>         0.230300 
     24 C          15.071000    8.553000   10.004000 C.ar      1 <1>        -0.185100 
     25 H          14.782000    9.060000    9.087000 H         1 <1>         0.129900 
     26 C          16.418000    8.205000   10.160000 C.ar      1 <1>        -0.225100 
     27 H          17.097000    8.464000    9.351000 H         1 <1>         0.136700 
     28 C          16.860000    7.542000   11.310000 C.ar      1 <1>         0.221700 
     29 O          18.156000    7.160000   11.529000 O.3       1 <1>        -0.242400 
     30 C          19.122000    7.492000   10.534000 C.3       1 <1>         0.002600 
     31 H          20.095000    7.133000   10.883000 H         1 <1>         0.065200 
     32 H          19.197000    8.576000   10.399000 H         1 <1>         0.039000 
     33 H          18.901000    6.986000    9.588000 H         1 <1>         0.049300 
     34 O          12.810000    8.530000   10.968000 O.3       1 <1>        -0.292100 
     35 C          12.320000    9.192000    9.803000 C.3       1 <1>         0.063300 
     36 H          11.246000    9.355000    9.938000 H         1 <1>         0.055400 
     37 H          12.454000    8.570000    8.912000 H         1 <1>         0.031500 
     38 H          12.792000   10.172000    9.678000 H         1 <1>         0.024600 
     39 C          15.223000    5.914000   15.727000 C.3       1 <1>        -0.052500 
     40 H          15.780000    6.786000   16.087000 H         1 <1>         0.077300 
     41 H          15.706000    5.022000   16.141000 H         1 <1>         0.039500 
     42 H          14.208000    5.999000   16.129000 H         1 <1>         0.052200 
     43 N          10.079000    1.115000   11.132000 N.pl3     1 <1>        -0.803000 
     44 H          10.535000    0.579000   10.408000 H         1 <1>         0.376900 
     45 H           9.105000    0.960000   11.345000 H         1 <1>         0.364800 
@<TRIPOS>BOND
     1    1    2 ar   
     2    2    3 ar   
     3    3    4 ar   
     4    4    5 ar   
     5    5    6 ar   
     6    6    1 ar   
     7    6    7 1    
     8    7    8 1    
     9    7    9 1    
    10    5   10 ar   
    11   10   11 1    
    12   10   12 ar   
    13   12   13 ar   
    14   13   14 1    
    15   13   15 ar   
    16   15    4 ar   
    17   12   16 1    
    18   16   17 1    
    19   17   18 1    
    20   17   19 1    
    21   17   20 1    
    22   20   21 ar   
    23   21   22 1    
    24   21   23 ar   
    25   23   24 ar   
    26   24   25 1    
    27   24   26 ar   
    28   26   27 1    
    29   26   28 ar   
    30   28   20 ar   
    31   28   29 1    
    32   29   30 1    
    33   30   31 1    
    34   30   32 1    
    35   30   33 1    
    36   23   34 1    
    37   34   35 1    
    38   35   36 1    
    39   35   37 1    
    40   35   38 1    
    41   16   39 1    
    42   39   40 1    
    43   39   41 1    
    44   39   42 1    
    45    2   43 1    
    46   43   44 1    
    47   43   45 1    
@<TRIPOS>SUBSTRUCTURE
     1 ****        1 TEMP              0 ****  ****    0 ROOT 
@<TRIPOS>SET
UNITY_3DHIT     STATIC     ATOMS    <user>   **** Atoms matching 3D or FLEX Search
0
