#	Name:			25-25
#	Creating user name:	jeff
#	Creation time:		Thu Dec  4 18:13:39 2003

#	Modifying user name:	jeff
#	Modification time:	Thu Dec  4 18:13:39 2003

@<TRIPOS>MOLECULE
25-25
   44    47     1     0     1
SMALL
USER_CHARGES
****
From 3DB ct
@<TRIPOS>ATOM
      1 N          10.199000    2.746000   12.845000 N.ar      1 <1>        -0.678700 
      2 C          10.809000    2.076000   11.870000 C.ar      1 <1>         0.764100 
      3 N          12.093000    2.207000   11.553000 N.ar      1 <1>        -0.675300 
      4 C          12.819000    3.071000   12.246000 C.ar      1 <1>         0.726100 
      5 C          12.289000    3.827000   13.286000 C.ar      1 <1>        -0.630800 
      6 C          10.940000    3.600000   13.561000 C.ar      1 <1>         0.738300 
      7 N          10.258000    4.292000   14.546000 N.pl3     1 <1>        -0.760400 
      8 H          10.732000    4.479000   15.424000 H         1 <1>         0.336900 
      9 H           9.278000    4.045000   14.644000 H         1 <1>         0.323500 
     10 C          13.132000    4.745000   13.968000 C.ar      1 <1>        -0.035300 
     11 H          12.710000    5.343000   14.772000 H         1 <1>         0.099400 
     12 C          14.467000    4.889000   13.616000 C.ar      1 <1>         0.171400 
     13 C          14.884000    4.072000   12.571000 C.ar      1 <1>         0.252600 
     14 H          15.918000    4.105000   12.228000 H         1 <1>         0.080500 
     15 N          14.100000    3.189000   11.894000 N.ar      1 <1>        -0.524800 
     16 N          15.346000    5.742000   14.242000 N.pl3     1 <1>        -0.732800 
     17 H          15.290000    5.850000   15.253000 H         1 <1>         0.364800 
     18 C          16.434000    6.444000   13.577000 C.3       1 <1>         0.218700 
     19 H          17.222000    5.747000   13.265000 H         1 <1>         0.051400 
     20 H          16.917000    7.131000   14.280000 H         1 <1>         0.037000 
     21 C          15.916000    7.182000   12.351000 C.ar      1 <1>        -0.224000 
     22 C          14.544000    7.518000   12.268000 C.ar      1 <1>         0.262800 
     23 C          14.065000    8.206000   11.154000 C.ar      1 <1>        -0.237100 
     24 H          13.020000    8.490000   11.054000 H         1 <1>         0.145600 
     25 C          14.927000    8.559000   10.116000 C.ar      1 <1>        -0.141100 
     26 H          14.517000    9.097000    9.261000 H         1 <1>         0.130900 
     27 C          16.284000    8.228000   10.162000 C.ar      1 <1>         0.093700 
     28 C          16.802000    7.527000   11.279000 C.ar      1 <1>         0.066900 
     29 C          18.182000    7.209000   11.255000 C.ar      1 <1>        -0.161900 
     30 H          18.643000    6.656000   12.072000 H         1 <1>         0.115700 
     31 C          19.009000    7.574000   10.188000 C.ar      1 <1>        -0.068800 
     32 H          20.065000    7.311000   10.205000 H         1 <1>         0.103800 
     33 C          18.480000    8.267000    9.109000 C.ar      1 <1>        -0.091000 
     34 H          19.119000    8.553000    8.275000 H         1 <1>         0.104900 
     35 C          17.126000    8.590000    9.096000 C.ar      1 <1>        -0.173400 
     36 H          16.728000    9.131000    8.237000 H         1 <1>         0.119900 
     37 O          13.756000    7.135000   13.325000 O.3       1 <1>        -0.272800 
     38 C          12.367000    7.451000   13.265000 C.3       1 <1>        -0.020100 
     39 H          11.895000    7.047000   14.166000 H         1 <1>         0.064200 
     40 H          11.891000    6.978000   12.399000 H         1 <1>         0.063900 
     41 H          12.210000    8.535000   13.264000 H         1 <1>         0.048300 
     42 N          10.064000    1.195000   11.148000 N.pl3     1 <1>        -0.793700 
     43 H          10.492000    0.668000   10.401000 H         1 <1>         0.372000 
     44 H           9.086000    1.074000   11.364000 H         1 <1>         0.364800 
@<TRIPOS>BOND
     1    1    2 ar   
     2    2    3 ar   
     3    3    4 ar   
     4    4    5 ar   
     5    5    6 ar   
     6    6    1 ar   
     7    6    7 1    
     8    7    8 1    
     9    7    9 1    
    10    5   10 ar   
    11   10   11 1    
    12   10   12 ar   
    13   12   13 ar   
    14   13   14 1    
    15   13   15 ar   
    16   15    4 ar   
    17   12   16 1    
    18   16   17 1    
    19   16   18 1    
    20   18   19 1    
    21   18   20 1    
    22   18   21 1    
    23   21   22 ar   
    24   22   23 ar   
    25   23   24 1    
    26   23   25 ar   
    27   25   26 1    
    28   25   27 ar   
    29   27   28 ar   
    30   28   21 ar   
    31   28   29 ar   
    32   29   30 1    
    33   29   31 ar   
    34   31   32 1    
    35   31   33 ar   
    36   33   34 1    
    37   33   35 ar   
    38   35   36 1    
    39   35   27 ar   
    40   22   37 1    
    41   37   38 1    
    42   38   39 1    
    43   38   40 1    
    44   38   41 1    
    45    2   42 1    
    46   42   43 1    
    47   42   44 1    
@<TRIPOS>SUBSTRUCTURE
     1 ****        1 TEMP              0 ****  ****    0 ROOT 
@<TRIPOS>SET
UNITY_3DHIT     STATIC     ATOMS    <user>   **** Atoms matching 3D or FLEX Search
0
