#	Name:			25-26
#	Creating user name:	jeff
#	Creation time:		Thu Dec  4 18:13:39 2003

#	Modifying user name:	jeff
#	Modification time:	Thu Dec  4 18:13:39 2003

@<TRIPOS>MOLECULE
25-26
   45    48     1     0     1
SMALL
USER_CHARGES
****
From 3DB ct
@<TRIPOS>ATOM
      1 N          10.202000    2.741000   12.849000 N.ar      1 <1>        -0.666500 
      2 C          10.817000    2.064000   11.882000 C.ar      1 <1>         0.756400 
      3 N          12.098000    2.204000   11.557000 N.ar      1 <1>        -0.678100 
      4 C          12.819000    3.084000   12.237000 C.ar      1 <1>         0.747400 
      5 C          12.285000    3.844000   13.273000 C.ar      1 <1>        -0.631700 
      6 C          10.938000    3.609000   13.553000 C.ar      1 <1>         0.715100 
      7 N          10.253000    4.306000   14.532000 N.pl3     1 <1>        -0.747700 
      8 H          10.726000    4.498000   15.409000 H         1 <1>         0.334800 
      9 H           9.273000    4.054000   14.632000 H         1 <1>         0.321300 
     10 C          13.122000    4.771000   13.946000 C.ar      1 <1>         0.027000 
     11 H          12.698000    5.371000   14.748000 H         1 <1>         0.084400 
     12 C          14.457000    4.920000   13.590000 C.ar      1 <1>         0.007400 
     13 C          14.876000    4.104000   12.546000 C.ar      1 <1>         0.315900 
     14 H          15.907000    4.144000   12.200000 H         1 <1>         0.069200 
     15 N          14.096000    3.211000   11.878000 N.ar      1 <1>        -0.544500 
     16 N          15.336000    5.768000   14.223000 N.pl3     1 <1>        -0.577900 
     17 H          15.264000    5.888000   15.233000 H         1 <1>         0.332300 
     18 C          16.443000    6.441000   13.567000 C.3       1 <1>         0.074900 
     19 H          17.212000    5.722000   13.255000 H         1 <1>         0.059000 
     20 H          16.917000    7.150000   14.255000 H         1 <1>         0.056200 
     21 C          15.945000    7.164000   12.335000 C.ar      1 <1>        -0.044900 
     22 C          14.591000    7.518000   12.223000 C.ar      1 <1>        -0.053000 
     23 H          13.896000    7.280000   13.027000 H         1 <1>         0.116500 
     24 C          14.122000    8.181000   11.088000 C.ar      1 <1>        -0.244500 
     25 H          13.071000    8.452000   11.013000 H         1 <1>         0.146800 
     26 C          15.002000    8.483000   10.050000 C.ar      1 <1>         0.339800 
     27 C          16.359000    8.174000   10.164000 C.ar      1 <1>        -0.252200 
     28 H          17.057000    8.444000    9.374000 H         1 <1>         0.141800 
     29 C          16.828000    7.513000   11.302000 C.ar      1 <1>        -0.105200 
     30 H          17.887000    7.272000   11.378000 H         1 <1>         0.133000 
     31 O          14.493000    9.155000    8.963000 O.3       1 <1>        -0.365900 
     32 C          14.717000    8.611000    7.718000 C.ar      1 <1>         0.320100 
     33 C          14.684000    7.238000    7.454000 C.ar      1 <1>        -0.255500 
     34 H          14.494000    6.519000    8.248000 H         1 <1>         0.135700 
     35 C          14.892000    6.774000    6.154000 C.ar      1 <1>        -0.037900 
     36 H          14.874000    5.705000    5.950000 H         1 <1>         0.105500 
     37 C          15.117000    7.678000    5.116000 C.ar      1 <1>        -0.158400 
     38 H          15.282000    7.313000    4.103000 H         1 <1>         0.110600 
     39 C          15.121000    9.049000    5.373000 C.ar      1 <1>        -0.055200 
     40 H          15.283000    9.754000    4.561000 H         1 <1>         0.104000 
     41 C          14.916000    9.516000    6.673000 C.ar      1 <1>        -0.219700 
     42 H          14.917000   10.587000    6.868000 H         1 <1>         0.137000 
     43 N          10.083000    1.163000   11.174000 N.pl3     1 <1>        -0.789700 
     44 H          10.520000    0.628000   10.439000 H         1 <1>         0.372700 
     45 H           9.106000    1.031000   11.394000 H         1 <1>         0.363500 
@<TRIPOS>BOND
     1    1    2 ar   
     2    2    3 ar   
     3    3    4 ar   
     4    4    5 ar   
     5    5    6 ar   
     6    6    1 ar   
     7    6    7 1    
     8    7    8 1    
     9    7    9 1    
    10    5   10 ar   
    11   10   11 1    
    12   10   12 ar   
    13   12   13 ar   
    14   13   14 1    
    15   13   15 ar   
    16   15    4 ar   
    17   12   16 1    
    18   16   17 1    
    19   16   18 1    
    20   18   19 1    
    21   18   20 1    
    22   18   21 1    
    23   21   22 ar   
    24   22   23 1    
    25   22   24 ar   
    26   24   25 1    
    27   24   26 ar   
    28   26   27 ar   
    29   27   28 1    
    30   27   29 ar   
    31   29   30 1    
    32   29   21 ar   
    33   26   31 1    
    34   31   32 1    
    35   32   33 ar   
    36   33   34 1    
    37   33   35 ar   
    38   35   36 1    
    39   35   37 ar   
    40   37   38 1    
    41   37   39 ar   
    42   39   40 1    
    43   39   41 ar   
    44   41   42 1    
    45   41   32 ar   
    46    2   43 1    
    47   43   44 1    
    48   43   45 1    
@<TRIPOS>SUBSTRUCTURE
     1 ****        1 TEMP              0 ****  ****    0 ROOT 
@<TRIPOS>SET
UNITY_3DHIT     STATIC     ATOMS    <user>   **** Atoms matching 3D or FLEX Search
0
