#	Name:			25-24
#	Creating user name:	jeff
#	Creation time:		Thu Dec  4 18:13:39 2003

#	Modifying user name:	jeff
#	Modification time:	Thu Dec  4 18:13:39 2003

@<TRIPOS>MOLECULE
25-24
   44    47     1     0     1
SMALL
USER_CHARGES
****
From 3DB ct
@<TRIPOS>ATOM
      1 N          10.200000    2.733000   12.841000 N.ar      1 <1>        -0.673800 
      2 C          10.820000    2.066000   11.871000 C.ar      1 <1>         0.766000 
      3 N          12.104000    2.210000   11.556000 N.ar      1 <1>        -0.686000 
      4 C          12.818000    3.085000   12.248000 C.ar      1 <1>         0.762700 
      5 C          12.277000    3.838000   13.285000 C.ar      1 <1>        -0.664700 
      6 C          10.930000    3.598000   13.556000 C.ar      1 <1>         0.731000 
      7 N          10.238000    4.286000   14.536000 N.pl3     1 <1>        -0.753400 
      8 H          10.707000    4.483000   15.414000 H         1 <1>         0.335800 
      9 H           9.259000    4.029000   14.632000 H         1 <1>         0.322300 
     10 C          13.108000    4.768000   13.965000 C.ar      1 <1>         0.048200 
     11 H          12.679000    5.364000   14.765000 H         1 <1>         0.081300 
     12 C          14.443000    4.925000   13.615000 C.ar      1 <1>         0.043500 
     13 C          14.871000    4.111000   12.572000 C.ar      1 <1>         0.283600 
     14 H          15.903000    4.159000   12.227000 H         1 <1>         0.083500 
     15 N          14.098000    3.216000   11.898000 N.ar      1 <1>        -0.540900 
     16 N          15.307000    5.800000   14.231000 N.pl3     1 <1>        -0.676900 
     17 H          15.165000    6.021000   15.215000 H         1 <1>         0.352600 
     18 C          16.441000    6.434000   13.580000 C.3       1 <1>         0.205500 
     19 H          17.217000    5.703000   13.323000 H         1 <1>         0.045100 
     20 H          16.910000    7.150000   14.267000 H         1 <1>         0.028100 
     21 C          15.985000    7.158000   12.325000 C.ar      1 <1>        -0.081000 
     22 C          14.623000    7.487000   12.222000 C.ar      1 <1>        -0.057200 
     23 H          13.933000    7.221000   13.023000 H         1 <1>         0.119600 
     24 C          14.126000    8.156000   11.107000 C.ar      1 <1>        -0.248000 
     25 H          13.064000    8.384000   11.091000 H         1 <1>         0.161700 
     26 C          14.980000    8.508000   10.061000 C.ar      1 <1>         0.143300 
     27 C          16.359000    8.177000   10.125000 C.ar      1 <1>         0.056400 
     28 C          16.869000    7.491000   11.262000 C.ar      1 <1>        -0.004700 
     29 C          18.247000    7.166000   11.280000 C.ar      1 <1>        -0.126500 
     30 H          18.683000    6.627000   12.120000 H         1 <1>         0.090900 
     31 C          19.103000    7.508000   10.232000 C.ar      1 <1>        -0.079200 
     32 H          20.157000    7.241000   10.280000 H         1 <1>         0.106300 
     33 C          18.605000    8.183000    9.130000 C.ar      1 <1>        -0.121700 
     34 H          19.264000    8.453000    8.307000 H         1 <1>         0.111400 
     35 C          17.251000    8.511000    9.079000 C.ar      1 <1>        -0.114000 
     36 H          16.890000    9.039000    8.196000 H         1 <1>         0.119000 
     37 O          14.565000    9.172000    8.930000 O.3       1 <1>        -0.299200 
     38 C          14.132000    8.385000    7.822000 C.3       1 <1>         0.115200 
     39 H          13.829000    9.071000    7.025000 H         1 <1>         0.037000 
     40 H          13.260000    7.778000    8.087000 H         1 <1>         0.010800 
     41 H          14.948000    7.766000    7.436000 H         1 <1>         0.022800 
     42 N          10.088000    1.175000   11.149000 N.pl3     1 <1>        -0.794100 
     43 H          10.524000    0.650000   10.405000 H         1 <1>         0.373500 
     44 H           9.110000    1.042000   11.363000 H         1 <1>         0.364500 
@<TRIPOS>BOND
     1    1    2 ar   
     2    2    3 ar   
     3    3    4 ar   
     4    4    5 ar   
     5    5    6 ar   
     6    6    1 ar   
     7    6    7 1    
     8    7    8 1    
     9    7    9 1    
    10    5   10 ar   
    11   10   11 1    
    12   10   12 ar   
    13   12   13 ar   
    14   13   14 1    
    15   13   15 ar   
    16   15    4 ar   
    17   12   16 1    
    18   16   17 1    
    19   16   18 1    
    20   18   19 1    
    21   18   20 1    
    22   18   21 1    
    23   21   22 ar   
    24   22   23 1    
    25   22   24 ar   
    26   24   25 1    
    27   24   26 ar   
    28   26   27 ar   
    29   27   28 ar   
    30   28   21 ar   
    31   28   29 ar   
    32   29   30 1    
    33   29   31 ar   
    34   31   32 1    
    35   31   33 ar   
    36   33   34 1    
    37   33   35 ar   
    38   35   36 1    
    39   35   27 ar   
    40   26   37 1    
    41   37   38 1    
    42   38   39 1    
    43   38   40 1    
    44   38   41 1    
    45    2   42 1    
    46   42   43 1    
    47   42   44 1    
@<TRIPOS>SUBSTRUCTURE
     1 ****        1 TEMP              0 ****  ****    0 ROOT 
@<TRIPOS>SET
UNITY_3DHIT     STATIC     ATOMS    <user>   **** Atoms matching 3D or FLEX Search
0
