#	Name:			26-10
#	Creating user name:	jeff
#	Creation time:		Thu Dec  4 18:13:39 2003

#	Modifying user name:	jeff
#	Modification time:	Thu Dec  4 18:13:39 2003

@<TRIPOS>MOLECULE
26-10
   51    54     1     0     1
SMALL
USER_CHARGES
****
From 3DB ct
@<TRIPOS>ATOM
      1 N          10.122000    2.626000   12.798000 N.ar      1 <1>        -0.714400 
      2 C          10.800000    1.966000   11.872000 C.ar      1 <1>         0.815400 
      3 N          12.082000    2.167000   11.605000 N.ar      1 <1>        -0.703900 
      4 C          12.733000    3.080000   12.305000 C.ar      1 <1>         0.828500 
      5 C          12.150000    3.850000   13.319000 C.ar      1 <1>        -0.867300 
      6 C          10.781000    3.553000   13.510000 C.ar      1 <1>         0.809700 
      7 N           9.984000    4.189000   14.450000 N.pl3     1 <1>        -0.744500 
      8 H          10.246000    4.020000   15.418000 H         1 <1>         0.318100 
      9 H           9.844000    5.184000   14.290000 H         1 <1>         0.321300 
     10 C          12.993000    4.809000   14.007000 C.ar      1 <1>         0.526200 
     11 C          14.346000    4.928000   13.632000 C.ar      1 <1>        -0.480400 
     12 C          14.784000    4.109000   12.604000 C.ar      1 <1>         0.398300 
     13 H          15.814000    4.152000   12.252000 H         1 <1>         0.085100 
     14 N          14.010000    3.208000   11.960000 N.ar      1 <1>        -0.593100 
     15 C          15.337000    5.887000   14.257000 C.3       1 <1>         0.304800 
     16 H          15.835000    5.396000   15.102000 H         1 <1>         0.015000 
     17 H          14.787000    6.744000   14.662000 H         1 <1>         0.023400 
     18 N          16.323000    6.293000   13.273000 N.pl3     1 <1>        -0.679900 
     19 H          17.270000    5.948000   13.416000 H         1 <1>         0.335500 
     20 C          16.092000    7.096000   12.164000 C.ar      1 <1>         0.326000 
     21 C          17.183000    7.284000   11.287000 C.ar      1 <1>        -0.274800 
     22 H          18.136000    6.815000   11.535000 H         1 <1>         0.125600 
     23 C          17.103000    8.052000   10.111000 C.ar      1 <1>         0.033300 
     24 C          15.875000    8.652000    9.819000 C.ar      1 <1>        -0.146900 
     25 H          15.752000    9.248000    8.915000 H         1 <1>         0.112700 
     26 C          14.774000    8.489000   10.665000 C.ar      1 <1>        -0.160200 
     27 H          13.851000    8.982000   10.373000 H         1 <1>         0.138400 
     28 C          14.867000    7.718000   11.833000 C.ar      1 <1>         0.034800 
     29 O          13.812000    7.537000   12.692000 O.3       1 <1>        -0.230100 
     30 C          12.555000    8.108000   12.339000 C.3       1 <1>        -0.046800 
     31 H          11.848000    7.876000   13.141000 H         1 <1>         0.056300 
     32 H          12.168000    7.665000   11.415000 H         1 <1>         0.068800 
     33 H          12.624000    9.198000   12.262000 H         1 <1>         0.053100 
     34 C          18.266000    8.212000    9.217000 C.ar      1 <1>         0.035400 
     35 C          19.035000    7.104000    8.820000 C.ar      1 <1>        -0.109500 
     36 H          18.777000    6.103000    9.165000 H         1 <1>         0.111000 
     37 C          20.133000    7.253000    7.967000 C.ar      1 <1>        -0.125200 
     38 H          20.711000    6.379000    7.671000 H         1 <1>         0.109100 
     39 C          20.482000    8.514000    7.494000 C.ar      1 <1>        -0.088500 
     40 H          21.336000    8.631000    6.829000 H         1 <1>         0.100400 
     41 C          19.737000    9.627000    7.874000 C.ar      1 <1>        -0.116400 
     42 H          20.008000   10.616000    7.508000 H         1 <1>         0.104600 
     43 C          18.639000    9.476000    8.727000 C.ar      1 <1>        -0.104300 
     44 H          18.079000   10.366000    9.015000 H         1 <1>         0.102500 
     45 C          12.438000    5.675000   15.112000 C.3       1 <1>        -0.257000 
     46 H          12.069000    5.052000   15.932000 H         1 <1>         0.075000 
     47 H          11.640000    6.316000   14.726000 H         1 <1>         0.079800 
     48 H          13.176000    6.346000   15.555000 H         1 <1>         0.057400 
     49 N          10.138000    1.020000   11.151000 N.pl3     1 <1>        -0.819900 
     50 H          10.626000    0.493000   10.442000 H         1 <1>         0.381200 
     51 H           9.162000    0.843000   11.340000 H         1 <1>         0.375900 
@<TRIPOS>BOND
     1    1    2 ar   
     2    2    3 ar   
     3    3    4 ar   
     4    4    5 ar   
     5    5    6 ar   
     6    6    1 ar   
     7    6    7 1    
     8    7    8 1    
     9    7    9 1    
    10    5   10 ar   
    11   10   11 ar   
    12   11   12 ar   
    13   12   13 1    
    14   12   14 ar   
    15   14    4 ar   
    16   11   15 1    
    17   15   16 1    
    18   15   17 1    
    19   15   18 1    
    20   18   19 1    
    21   18   20 1    
    22   20   21 ar   
    23   21   22 1    
    24   21   23 ar   
    25   23   24 ar   
    26   24   25 1    
    27   24   26 ar   
    28   26   27 1    
    29   26   28 ar   
    30   28   20 ar   
    31   28   29 1    
    32   29   30 1    
    33   30   31 1    
    34   30   32 1    
    35   30   33 1    
    36   23   34 1    
    37   34   35 ar   
    38   35   36 1    
    39   35   37 ar   
    40   37   38 1    
    41   37   39 ar   
    42   39   40 1    
    43   39   41 ar   
    44   41   42 1    
    45   41   43 ar   
    46   43   44 1    
    47   43   34 ar   
    48   10   45 1    
    49   45   46 1    
    50   45   47 1    
    51   45   48 1    
    52    2   49 1    
    53   49   50 1    
    54   49   51 1    
@<TRIPOS>SUBSTRUCTURE
     1 ****        1 TEMP              0 ****  ****    0 ROOT 
@<TRIPOS>SET
UNITY_3DHIT     STATIC     ATOMS    <user>   **** Atoms matching 3D or FLEX Search
0
