#	Name:			26-5
#	Creating user name:	jeff
#	Creation time:		Thu Dec  4 18:13:39 2003

#	Modifying user name:	jeff
#	Modification time:	Thu Dec  4 18:13:39 2003

@<TRIPOS>MOLECULE
26-5
   43    46     1     0     1
SMALL
USER_CHARGES
****
From 3DB ct
@<TRIPOS>ATOM
      1 C          10.699000    2.119000   11.823000 C.ar      1 <1>         0.812900 
      2 N          11.982000    2.188000   11.366000 N.ar      1 <1>        -0.702400 
      3 C          12.927000    2.933000   12.019000 C.ar      1 <1>         0.849100 
      4 C          12.573000    3.693000   13.194000 C.ar      1 <1>        -0.888400 
      5 C          11.223000    3.606000   13.645000 C.ar      1 <1>         0.834200 
      6 N          10.334000    2.828000   12.936000 N.ar      1 <1>        -0.720400 
      7 N          10.814000    4.277000   14.743000 N.pl3     1 <1>        -0.750300 
      8 H          11.396000    4.788000   15.200000 H         1 <1>         0.322500 
      9 H           9.959000    4.214000   15.017000 H         1 <1>         0.319800 
     10 C          13.552000    4.439000   13.855000 C.ar      1 <1>         0.511500 
     11 C          14.841000    4.468000   13.379000 C.ar      1 <1>        -0.389700 
     12 C          15.168000    3.713000   12.196000 C.ar      1 <1>         0.381200 
     13 H          16.055000    3.723000   11.857000 H         1 <1>         0.094600 
     14 N          14.211000    2.980000   11.553000 N.ar      1 <1>        -0.594900 
     15 C          15.988000    5.264000   14.113000 C.3       1 <1>        -0.087000 
     16 H          15.607000    5.964000   14.630000 H         1 <1>         0.086700 
     17 H          16.444000    4.669000   14.697000 H         1 <1>         0.109200 
     18 N          17.002000    5.992000   13.066000 N.pl3     1 <1>        -0.044000 
     19 C          16.477000    6.947000   12.215000 C.ar      1 <1>        -0.069500 
     20 C          17.299000    7.447000   11.098000 C.ar      1 <1>         0.083600 
     21 C          16.644000    8.199000   10.057000 C.ar      1 <1>        -0.276100 
     22 H          17.132000    8.472000    9.289000 H         1 <1>         0.148100 
     23 C          15.268000    8.550000   10.143000 C.ar      1 <1>         0.322400 
     24 C          14.493000    8.138000   11.262000 C.ar      1 <1>        -0.298400 
     25 H          13.586000    8.411000   11.338000 H         1 <1>         0.146900 
     26 C          15.078000    7.322000   12.258000 C.ar      1 <1>        -0.015000 
     27 H          14.550000    7.003000   12.981000 H         1 <1>         0.097800 
     28 O          14.711000    9.346000    9.173000 O.3       1 <1>        -0.301100 
     29 C          15.652000    9.680000    8.161000 C.3       1 <1>         0.038100 
     30 H          16.018000    8.771000    7.657000 H         1 <1>         0.031900 
     31 H          15.167000   10.323000    7.411000 H         1 <1>         0.060800 
     32 H          16.506000   10.227000    8.589000 H         1 <1>         0.029900 
     33 C          18.457000    6.633000   11.330000 C.ar      1 <1>        -0.284700 
     34 H          19.394000    6.580000   10.759000 H         1 <1>         0.142700 
     35 C          18.226000    5.803000   12.452000 C.ar      1 <1>        -0.120900 
     36 H          18.920000    5.056000   12.863000 H         1 <1>         0.201400 
     37 C          13.240000    5.150000   15.172000 C.3       1 <1>        -0.253000 
     38 H          12.831000    4.449000   15.919000 H         1 <1>         0.078800 
     39 H          14.113000    5.554000   15.692000 H         1 <1>         0.066400 
     40 H          12.562000    6.006000   15.026000 H         1 <1>         0.078200 
     41 N           9.803000    1.347000   11.173000 N.pl3     1 <1>        -0.806400 
     42 H          10.055000    0.882000   10.445000 H         1 <1>         0.378600 
     43 H           8.955000    1.296000   11.469000 H         1 <1>         0.374700 
@<TRIPOS>BOND
     1    1    2 ar   
     2    2    3 ar   
     3    3    4 ar   
     4    4    5 ar   
     5    5    6 ar   
     6    6    1 ar   
     7    5    7 1    
     8    7    8 1    
     9    7    9 1    
    10    4   10 ar   
    11   10   11 ar   
    12   11   12 ar   
    13   12   13 1    
    14   12   14 ar   
    15   14    3 ar   
    16   11   15 1    
    17   15   16 1    
    18   15   17 1    
    19   15   18 1    
    20   18   19 ar   
    21   19   20 ar   
    22   20   21 ar   
    23   21   22 1    
    24   21   23 ar   
    25   23   24 ar   
    26   24   25 1    
    27   24   26 ar   
    28   26   27 1    
    29   26   19 ar   
    30   23   28 1    
    31   28   29 1    
    32   29   30 1    
    33   29   31 1    
    34   29   32 1    
    35   20   33 ar   
    36   33   34 1    
    37   33   35 ar   
    38   35   36 1    
    39   35   18 ar   
    40   10   37 1    
    41   37   38 1    
    42   37   39 1    
    43   37   40 1    
    44    1   41 1    
    45   41   42 1    
    46   41   43 1    
@<TRIPOS>SUBSTRUCTURE
     1 ****        1 TEMP              0 ****  ****    0 ROOT 
@<TRIPOS>SET
UNITY_3DHIT     STATIC     ATOMS    <user>   **** Atoms matching 3D or FLEX Search
0
