#	Name:			26-7
#	Creating user name:	jeff
#	Creation time:		Thu Dec  4 18:13:39 2003

#	Modifying user name:	jeff
#	Modification time:	Thu Dec  4 18:13:39 2003

@<TRIPOS>MOLECULE
26-7
   53    56     1     0     1
SMALL
USER_CHARGES
****
From 3DB ct
@<TRIPOS>ATOM
      1 N          10.123000    2.603000   12.813000 N.ar      1 <1>        -0.708300 
      2 C          10.799000    1.951000   11.880000 C.ar      1 <1>         0.803700 
      3 N          12.075000    2.168000   11.601000 N.ar      1 <1>        -0.699500 
      4 C          12.722000    3.090000   12.294000 C.ar      1 <1>         0.825700 
      5 C          12.137000    3.862000   13.305000 C.ar      1 <1>        -0.839600 
      6 C          10.777000    3.540000   13.517000 C.ar      1 <1>         0.805900 
      7 N           9.986000    4.160000   14.473000 N.pl3     1 <1>        -0.747300 
      8 H          10.285000    4.018000   15.434000 H         1 <1>         0.319300 
      9 H           9.802000    5.145000   14.301000 H         1 <1>         0.323100 
     10 C          12.973000    4.840000   13.976000 C.ar      1 <1>         0.474400 
     11 C          14.331000    4.946000   13.614000 C.ar      1 <1>        -0.435500 
     12 C          14.769000    4.126000   12.588000 C.ar      1 <1>         0.407600 
     13 H          15.800000    4.168000   12.238000 H         1 <1>         0.079600 
     14 N          13.996000    3.225000   11.942000 N.ar      1 <1>        -0.595500 
     15 C          15.329000    5.892000   14.247000 C.3       1 <1>         0.124500 
     16 H          15.814000    5.377000   15.085000 H         1 <1>         0.066000 
     17 H          14.799000    6.754000   14.668000 H         1 <1>         0.047700 
     18 N          16.321000    6.298000   13.269000 N.pl3     1 <1>        -0.464000 
     19 H          17.251000    5.898000   13.380000 H         1 <1>         0.286300 
     20 C          16.100000    7.123000   12.176000 C.ar      1 <1>         0.068400 
     21 C          14.808000    7.658000   12.040000 C.ar      1 <1>        -0.150400 
     22 H          14.054000    7.426000   12.792000 H         1 <1>         0.143100 
     23 C          14.438000    8.467000   10.954000 C.ar      1 <1>         0.080400 
     24 C          15.378000    8.812000    9.979000 C.ar      1 <1>         0.022100 
     25 C          16.676000    8.282000   10.101000 C.ar      1 <1>        -0.227900 
     26 H          17.433000    8.565000    9.377000 H         1 <1>         0.140600 
     27 C          17.040000    7.441000   11.172000 C.ar      1 <1>         0.176000 
     28 O          18.309000    6.936000   11.316000 O.3       1 <1>        -0.250800 
     29 C          19.297000    7.327000   10.364000 C.3       1 <1>        -0.019800 
     30 H          20.182000    6.706000   10.532000 H         1 <1>         0.071500 
     31 H          19.590000    8.370000   10.513000 H         1 <1>         0.047700 
     32 H          18.955000    7.148000    9.339000 H         1 <1>         0.056100 
     33 N          15.077000    9.671000    8.873000 N.pl3     1 <1>         0.114500 
     34 C          13.876000   10.295000    8.585000 C.ar      1 <1>        -0.202400 
     35 H          13.022000   10.204000    9.242000 H         1 <1>         0.182700 
     36 C          13.996000   11.030000    7.426000 C.ar      1 <1>        -0.178400 
     37 H          13.213000   11.622000    6.968000 H         1 <1>         0.139400 
     38 C          15.318000   10.874000    6.973000 C.ar      1 <1>        -0.180400 
     39 H          15.762000   11.309000    6.085000 H         1 <1>         0.143100 
     40 C          15.960000   10.052000    7.873000 C.ar      1 <1>        -0.235600 
     41 H          16.976000    9.681000    7.846000 H         1 <1>         0.172400 
     42 O          13.134000    8.885000   10.919000 O.3       1 <1>        -0.274600 
     43 C          12.330000    7.939000   10.203000 C.3       1 <1>         0.058200 
     44 H          11.327000    8.366000   10.100000 H         1 <1>         0.051000 
     45 H          12.243000    6.999000   10.757000 H         1 <1>         0.020800 
     46 H          12.726000    7.756000    9.198000 H         1 <1>         0.039700 
     47 C          12.409000    5.735000   15.052000 C.3       1 <1>        -0.218600 
     48 H          12.109000    5.141000   15.920000 H         1 <1>         0.073600 
     49 H          11.562000    6.306000   14.663000 H         1 <1>         0.068400 
     50 H          13.119000    6.481000   15.415000 H         1 <1>         0.049400 
     51 N          10.144000    0.999000   11.163000 N.pl3     1 <1>        -0.804800 
     52 H          10.631000    0.490000   10.440000 H         1 <1>         0.378600 
     53 H           9.170000    0.812000   11.352000 H         1 <1>         0.372300 
@<TRIPOS>BOND
     1    1    2 ar   
     2    2    3 ar   
     3    3    4 ar   
     4    4    5 ar   
     5    5    6 ar   
     6    6    1 ar   
     7    6    7 1    
     8    7    8 1    
     9    7    9 1    
    10    5   10 ar   
    11   10   11 ar   
    12   11   12 ar   
    13   12   13 1    
    14   12   14 ar   
    15   14    4 ar   
    16   11   15 1    
    17   15   16 1    
    18   15   17 1    
    19   15   18 1    
    20   18   19 1    
    21   18   20 1    
    22   20   21 ar   
    23   21   22 1    
    24   21   23 ar   
    25   23   24 ar   
    26   24   25 ar   
    27   25   26 1    
    28   25   27 ar   
    29   27   20 ar   
    30   27   28 1    
    31   28   29 1    
    32   29   30 1    
    33   29   31 1    
    34   29   32 1    
    35   24   33 1    
    36   33   34 ar   
    37   34   35 1    
    38   34   36 ar   
    39   36   37 1    
    40   36   38 ar   
    41   38   39 1    
    42   38   40 ar   
    43   40   41 1    
    44   40   33 ar   
    45   23   42 1    
    46   42   43 1    
    47   43   44 1    
    48   43   45 1    
    49   43   46 1    
    50   10   47 1    
    51   47   48 1    
    52   47   49 1    
    53   47   50 1    
    54    2   51 1    
    55   51   52 1    
    56   51   53 1    
@<TRIPOS>SUBSTRUCTURE
     1 ****        1 TEMP              0 ****  ****    0 ROOT 
@<TRIPOS>SET
UNITY_3DHIT     STATIC     ATOMS    <user>   **** Atoms matching 3D or FLEX Search
0
