#	Name:			26-8
#	Creating user name:	jeff
#	Creation time:		Thu Dec  4 18:13:39 2003

#	Modifying user name:	jeff
#	Modification time:	Thu Dec  4 18:13:40 2003

@<TRIPOS>MOLECULE
26-8
   53    56     1     0     1
SMALL
USER_CHARGES
****
From 3DB ct
@<TRIPOS>ATOM
      1 N          10.138000    2.645000   12.805000 N.ar      1 <1>        -0.715400 
      2 C          10.807000    1.985000   11.871000 C.ar      1 <1>         0.809900 
      3 N          12.088000    2.177000   11.601000 N.ar      1 <1>        -0.700500 
      4 C          12.750000    3.081000   12.303000 C.ar      1 <1>         0.827000 
      5 C          12.176000    3.855000   13.319000 C.ar      1 <1>        -0.852100 
      6 C          10.808000    3.564000   13.518000 C.ar      1 <1>         0.818600 
      7 N          10.022000    4.197000   14.470000 N.pl3     1 <1>        -0.752600 
      8 H           9.871000    5.190000   14.310000 H         1 <1>         0.323200 
      9 H          10.300000    4.031000   15.434000 H         1 <1>         0.320800 
     10 C          13.028000    4.808000   14.004000 C.ar      1 <1>         0.491600 
     11 C          14.385000    4.904000   13.637000 C.ar      1 <1>        -0.446600 
     12 C          14.813000    4.082000   12.608000 C.ar      1 <1>         0.427300 
     13 H          15.844000    4.113000   12.259000 H         1 <1>         0.062300 
     14 N          14.028000    3.195000   11.957000 N.ar      1 <1>        -0.592800 
     15 C          15.387000    5.844000   14.265000 C.3       1 <1>         0.067500 
     16 H          15.927000    5.329000   15.070000 H         1 <1>         0.077300 
     17 H          14.854000    6.679000   14.735000 H         1 <1>         0.053800 
     18 N          16.330000    6.307000   13.260000 N.pl3     1 <1>        -0.463100 
     19 H          17.310000    6.264000   13.530000 H         1 <1>         0.285000 
     20 C          16.007000    7.072000   12.148000 C.ar      1 <1>         0.234800 
     21 C          14.706000    7.608000   12.005000 C.ar      1 <1>        -0.197800 
     22 H          13.961000    7.372000   12.759000 H         1 <1>         0.134800 
     23 C          14.356000    8.463000   10.954000 C.ar      1 <1>         0.107800 
     24 C          15.335000    8.805000   10.022000 C.ar      1 <1>         0.142900 
     25 C          16.610000    8.246000   10.085000 C.ar      1 <1>        -0.157900 
     26 H          17.306000    8.475000    9.282000 H         1 <1>         0.137300 
     27 C          16.947000    7.356000   11.123000 C.ar      1 <1>        -0.158400 
     28 N          18.241000    6.745000   11.061000 N.pl3     1 <1>         0.153300 
     29 C          19.375000    7.293000   10.481000 C.ar      1 <1>        -0.240500 
     30 H          19.363000    8.294000   10.070000 H         1 <1>         0.177900 
     31 C          20.422000    6.404000   10.589000 C.ar      1 <1>        -0.166700 
     32 H          21.433000    6.572000   10.236000 H         1 <1>         0.140200 
     33 C          19.925000    5.251000   11.227000 C.ar      1 <1>        -0.191500 
     34 H          20.469000    4.342000   11.454000 H         1 <1>         0.146200 
     35 C          18.591000    5.476000   11.489000 C.ar      1 <1>        -0.225200 
     36 H          17.852000    4.809000   11.911000 H         1 <1>         0.179600 
     37 O          15.036000    9.624000    8.961000 O.3       1 <1>        -0.220400 
     38 C          16.125000    9.625000    8.030000 C.3       1 <1>        -0.059300 
     39 H          15.862000   10.302000    7.212000 H         1 <1>         0.081100 
     40 H          16.283000    8.626000    7.608000 H         1 <1>         0.057800 
     41 H          17.045000    9.993000    8.495000 H         1 <1>         0.058400 
     42 O          13.119000    9.020000   10.762000 O.3       1 <1>        -0.276100 
     43 C          12.946000    9.847000    9.614000 C.3       1 <1>         0.093600 
     44 H          11.934000   10.261000    9.653000 H         1 <1>         0.034500 
     45 H          13.030000    9.261000    8.693000 H         1 <1>         0.030200 
     46 H          13.650000   10.685000    9.620000 H         1 <1>         0.022100 
     47 C          12.480000    5.690000   15.099000 C.3       1 <1>        -0.220500 
     48 H          13.216000    6.382000   15.514000 H         1 <1>         0.052400 
     49 H          12.129000    5.081000   15.937000 H         1 <1>         0.072300 
     50 H          11.670000    6.315000   14.711000 H         1 <1>         0.071300 
     51 N          10.134000    1.050000   11.147000 N.pl3     1 <1>        -0.809000 
     52 H          10.614000    0.529000   10.428000 H         1 <1>         0.379900 
     53 H           9.158000    0.878000   11.336000 H         1 <1>         0.373400 
@<TRIPOS>BOND
     1    1    2 ar   
     2    2    3 ar   
     3    3    4 ar   
     4    4    5 ar   
     5    5    6 ar   
     6    6    1 ar   
     7    6    7 1    
     8    7    8 1    
     9    7    9 1    
    10    5   10 ar   
    11   10   11 ar   
    12   11   12 ar   
    13   12   13 1    
    14   12   14 ar   
    15   14    4 ar   
    16   11   15 1    
    17   15   16 1    
    18   15   17 1    
    19   15   18 1    
    20   18   19 1    
    21   18   20 1    
    22   20   21 ar   
    23   21   22 1    
    24   21   23 ar   
    25   23   24 ar   
    26   24   25 ar   
    27   25   26 1    
    28   25   27 ar   
    29   27   20 ar   
    30   27   28 1    
    31   28   29 ar   
    32   29   30 1    
    33   29   31 ar   
    34   31   32 1    
    35   31   33 ar   
    36   33   34 1    
    37   33   35 ar   
    38   35   36 1    
    39   35   28 ar   
    40   24   37 1    
    41   37   38 1    
    42   38   39 1    
    43   38   40 1    
    44   38   41 1    
    45   23   42 1    
    46   42   43 1    
    47   43   44 1    
    48   43   45 1    
    49   43   46 1    
    50   10   47 1    
    51   47   48 1    
    52   47   49 1    
    53   47   50 1    
    54    2   51 1    
    55   51   52 1    
    56   51   53 1    
@<TRIPOS>SUBSTRUCTURE
     1 ****        1 TEMP              0 ****  ****    0 ROOT 
@<TRIPOS>SET
UNITY_3DHIT     STATIC     ATOMS    <user>   **** Atoms matching 3D or FLEX Search
0
