#	Name:			26-9
#	Creating user name:	jeff
#	Creation time:		Thu Dec  4 18:13:40 2003

#	Modifying user name:	jeff
#	Modification time:	Thu Dec  4 18:13:40 2003

@<TRIPOS>MOLECULE
26-9
   57    60     1     0     1
SMALL
USER_CHARGES
****
From 3DB ct
@<TRIPOS>ATOM
      1 N          10.115000    2.619000   12.821000 N.ar      1 <1>        -0.712900 
      2 C          10.778000    1.945000   11.894000 C.ar      1 <1>         0.813200 
      3 N          12.055000    2.141000   11.605000 N.ar      1 <1>        -0.699500 
      4 C          12.718000    3.063000   12.283000 C.ar      1 <1>         0.804900 
      5 C          12.154000    3.848000   13.293000 C.ar      1 <1>        -0.811000 
      6 C          10.787000    3.557000   13.508000 C.ar      1 <1>         0.809500 
      7 N          10.004000    4.211000   14.448000 N.pl3     1 <1>        -0.753000 
      8 H          10.264000    4.042000   15.417000 H         1 <1>         0.321000 
      9 H           9.877000    5.207000   14.283000 H         1 <1>         0.326700 
     10 C          13.012000    4.814000   13.954000 C.ar      1 <1>         0.421000 
     11 C          14.355000    4.955000   13.539000 C.ar      1 <1>        -0.322600 
     12 C          14.775000    4.097000   12.536000 C.ar      1 <1>         0.332000 
     13 H          15.802000    4.108000   12.175000 H         1 <1>         0.095800 
     14 N          13.990000    3.181000   11.921000 N.ar      1 <1>        -0.566400 
     15 C          15.312000    5.941000   14.181000 C.3       1 <1>         0.041900 
     16 H          15.687000    5.489000   15.108000 H         1 <1>         0.066400 
     17 H          14.767000    6.858000   14.432000 H         1 <1>         0.051500 
     18 N          16.424000    6.315000   13.305000 N.pl3     1 <1>        -0.454900 
     19 H          17.033000    5.533000   13.068000 H         1 <1>         0.284400 
     20 C          16.098000    7.166000   12.235000 C.ar      1 <1>         0.123600 
     21 C          17.065000    7.475000   11.246000 C.ar      1 <1>        -0.105500 
     22 C          16.682000    8.188000   10.079000 C.ar      1 <1>         0.180600 
     23 C          15.368000    8.717000    9.990000 C.ar      1 <1>        -0.413700 
     24 C          14.417000    8.482000   11.015000 C.ar      1 <1>         0.151100 
     25 C          14.769000    7.640000   12.103000 C.ar      1 <1>        -0.054900 
     26 C          13.742000    7.338000   13.178000 C.3       1 <1>        -0.145700 
     27 H          13.646000    8.196000   13.851000 H         1 <1>         0.047400 
     28 H          13.993000    6.465000   13.783000 H         1 <1>         0.056600 
     29 H          12.769000    7.112000   12.729000 H         1 <1>         0.059300 
     30 C          13.047000    9.130000   10.997000 C.3       1 <1>        -0.139500 
     31 H          12.321000    8.467000   10.517000 H         1 <1>         0.047400 
     32 H          13.059000   10.096000   10.485000 H         1 <1>         0.046800 
     33 H          12.700000    9.363000   12.008000 H         1 <1>         0.047600 
     34 N          15.000000    9.498000    8.853000 N.pl3     1 <1>         0.432700 
     35 C          15.864000   10.169000    8.009000 C.ar      1 <1>        -0.344800 
     36 H          16.931000   10.161000    8.194000 H         1 <1>         0.200700 
     37 C          15.132000   10.802000    7.028000 C.ar      1 <1>        -0.145800 
     38 H          15.538000   11.409000    6.227000 H         1 <1>         0.138600 
     39 C          13.771000   10.514000    7.270000 C.ar      1 <1>        -0.223700 
     40 H          12.920000   10.847000    6.686000 H         1 <1>         0.154800 
     41 C          13.716000    9.718000    8.393000 C.ar      1 <1>        -0.296900 
     42 H          12.867000    9.263000    8.888000 H         1 <1>         0.199400 
     43 C          17.672000    8.320000    8.938000 C.3       1 <1>        -0.184100 
     44 H          17.174000    8.385000    7.967000 H         1 <1>         0.060300 
     45 H          18.305000    7.430000    8.856000 H         1 <1>         0.059000 
     46 H          18.308000    9.197000    9.086000 H         1 <1>         0.064500 
     47 C          18.488000    6.972000   11.390000 C.3       1 <1>        -0.137400 
     48 H          18.585000    5.985000   10.927000 H         1 <1>         0.058500 
     49 H          18.801000    6.906000   12.436000 H         1 <1>         0.043500 
     50 H          19.203000    7.660000   10.928000 H         1 <1>         0.050400 
     51 C          12.484000    5.663000   15.087000 C.3       1 <1>        -0.227600 
     52 H          12.094000    5.027000   15.886000 H         1 <1>         0.076300 
     53 H          11.709000    6.343000   14.721000 H         1 <1>         0.068100 
     54 H          13.248000    6.284000   15.561000 H         1 <1>         0.061500 
     55 N          10.105000    0.992000   11.194000 N.pl3     1 <1>        -0.809900 
     56 H          10.582000    0.462000   10.480000 H         1 <1>         0.378600 
     57 H           9.130000    0.820000   11.393000 H         1 <1>         0.374500 
@<TRIPOS>BOND
     1    1    2 ar   
     2    2    3 ar   
     3    3    4 ar   
     4    4    5 ar   
     5    5    6 ar   
     6    6    1 ar   
     7    6    7 1    
     8    7    8 1    
     9    7    9 1    
    10    5   10 ar   
    11   10   11 ar   
    12   11   12 ar   
    13   12   13 1    
    14   12   14 ar   
    15   14    4 ar   
    16   11   15 1    
    17   15   16 1    
    18   15   17 1    
    19   15   18 1    
    20   18   19 1    
    21   18   20 1    
    22   20   21 ar   
    23   21   22 ar   
    24   22   23 ar   
    25   23   24 ar   
    26   24   25 ar   
    27   25   20 ar   
    28   25   26 1    
    29   26   27 1    
    30   26   28 1    
    31   26   29 1    
    32   24   30 1    
    33   30   31 1    
    34   30   32 1    
    35   30   33 1    
    36   23   34 1    
    37   34   35 ar   
    38   35   36 1    
    39   35   37 ar   
    40   37   38 1    
    41   37   39 ar   
    42   39   40 1    
    43   39   41 ar   
    44   41   42 1    
    45   41   34 ar   
    46   22   43 1    
    47   43   44 1    
    48   43   45 1    
    49   43   46 1    
    50   21   47 1    
    51   47   48 1    
    52   47   49 1    
    53   47   50 1    
    54   10   51 1    
    55   51   52 1    
    56   51   53 1    
    57   51   54 1    
    58    2   55 1    
    59   55   56 1    
    60   55   57 1    
@<TRIPOS>SUBSTRUCTURE
     1 ****        1 TEMP              0 ****  ****    0 ROOT 
@<TRIPOS>SET
UNITY_3DHIT     STATIC     ATOMS    <user>   **** Atoms matching 3D or FLEX Search
0
