#	Name:			27-16
#	Creating user name:	jeff
#	Creation time:		Thu Dec  4 18:13:40 2003

#	Modifying user name:	jeff
#	Modification time:	Thu Dec  4 18:13:40 2003

@<TRIPOS>MOLECULE
27-16
   40    42     1     0     1
SMALL
USER_CHARGES
****
From 3DB ct
@<TRIPOS>ATOM
      1 N          10.117000    2.649000   12.789000 N.ar      1 <1>        -0.718700 
      2 C          10.797000    1.960000   11.885000 C.ar      1 <1>         0.821300 
      3 N          12.077000    2.157000   11.608000 N.ar      1 <1>        -0.708500 
      4 C          12.735000    3.070000   12.304000 C.ar      1 <1>         0.841500 
      5 C          12.160000    3.838000   13.322000 C.ar      1 <1>        -0.884100 
      6 C          10.778000    3.596000   13.470000 C.ar      1 <1>         0.825100 
      7 N           9.970000    4.301000   14.343000 N.pl3     1 <1>        -0.751400 
      8 H           9.001000    3.998000   14.350000 H         1 <1>         0.320700 
      9 H          10.075000    5.309000   14.368000 H         1 <1>         0.322000 
     10 C          13.018000    4.744000   14.060000 C.ar      1 <1>         0.510200 
     11 C          14.355000    4.902000   13.650000 C.ar      1 <1>        -0.411600 
     12 C          14.780000    4.107000   12.596000 C.ar      1 <1>         0.388300 
     13 H          15.804000    4.175000   12.228000 H         1 <1>         0.081400 
     14 N          14.009000    3.204000   11.951000 N.ar      1 <1>        -0.587100 
     15 C          15.354000    5.876000   14.242000 C.3       1 <1>        -0.036700 
     16 H          15.866000    5.484000   15.124000 H         1 <1>         0.103500 
     17 H          14.751000    6.713000   14.613000 H         1 <1>         0.082600 
     18 N          16.357000    6.303000   13.250000 N.pl3     1 <1>        -0.290700 
     19 C          16.039000    7.120000   12.173000 C.ar      1 <1>         0.368600 
     20 C          16.989000    7.431000   11.180000 C.ar      1 <1>        -0.349900 
     21 H          17.997000    7.019000   11.224000 H         1 <1>         0.128600 
     22 C          16.684000    8.254000   10.087000 C.ar      1 <1>         0.237800 
     23 H          17.450000    8.461000    9.344000 H         1 <1>         0.049200 
     24 C          15.410000    8.790000    9.962000 C.ar      1 <1>        -0.513900 
     25 C          14.447000    8.511000   10.921000 C.ar      1 <1>         0.246900 
     26 H          13.446000    8.930000   10.842000 H         1 <1>         0.046100 
     27 C          14.765000    7.689000   12.011000 C.ar      1 <1>        -0.360100 
     28 H          13.980000    7.535000   12.748000 H         1 <1>         0.128700 
     29 Cl         15.028000    9.805000    8.627000 Cl        1 <1>         0.073000 
     30 C          17.755000    5.931000   13.484000 C.3       1 <1>        -0.076100 
     31 H          18.419000    6.794000   13.361000 H         1 <1>         0.052100 
     32 H          18.063000    5.137000   12.795000 H         1 <1>         0.071700 
     33 H          17.912000    5.564000   14.503000 H         1 <1>         0.079300 
     34 C          12.488000    5.514000   15.245000 C.3       1 <1>        -0.220300 
     35 H          11.843000    4.884000   15.865000 H         1 <1>         0.073700 
     36 H          11.945000    6.403000   14.909000 H         1 <1>         0.065700 
     37 H          13.277000    5.835000   15.929000 H         1 <1>         0.048700 
     38 N          10.134000    0.995000   11.192000 N.pl3     1 <1>        -0.815600 
     39 H          10.618000    0.452000   10.492000 H         1 <1>         0.382000 
     40 H           9.158000    0.824000   11.387000 H         1 <1>         0.375900 
@<TRIPOS>BOND
     1    1    2 ar   
     2    2    3 ar   
     3    3    4 ar   
     4    4    5 ar   
     5    5    6 ar   
     6    6    1 ar   
     7    6    7 1    
     8    7    8 1    
     9    7    9 1    
    10    5   10 ar   
    11   10   11 ar   
    12   11   12 ar   
    13   12   13 1    
    14   12   14 ar   
    15   14    4 ar   
    16   11   15 1    
    17   15   16 1    
    18   15   17 1    
    19   15   18 1    
    20   18   19 1    
    21   19   20 ar   
    22   20   21 1    
    23   20   22 ar   
    24   22   23 1    
    25   22   24 ar   
    26   24   25 ar   
    27   25   26 1    
    28   25   27 ar   
    29   27   28 1    
    30   27   19 ar   
    31   24   29 1    
    32   18   30 1    
    33   30   31 1    
    34   30   32 1    
    35   30   33 1    
    36   10   34 1    
    37   34   35 1    
    38   34   36 1    
    39   34   37 1    
    40    2   38 1    
    41   38   39 1    
    42   38   40 1    
@<TRIPOS>SUBSTRUCTURE
     1 ****        1 TEMP              0 ****  ****    0 ROOT 
@<TRIPOS>SET
UNITY_3DHIT     STATIC     ATOMS    <user>   **** Atoms matching 3D or FLEX Search
0
