#	Name:			27-15
#	Creating user name:	jeff
#	Creation time:		Thu Dec  4 18:13:40 2003

#	Modifying user name:	jeff
#	Modification time:	Thu Dec  4 18:13:40 2003

@<TRIPOS>MOLECULE
27-15
   40    42     1     0     1
SMALL
USER_CHARGES
****
From 3DB ct
@<TRIPOS>ATOM
      1 N          10.120000    2.646000   12.790000 N.ar      1 <1>        -0.710400 
      2 C          10.794000    1.977000   11.868000 C.ar      1 <1>         0.808100 
      3 N          12.079000    2.161000   11.608000 N.ar      1 <1>        -0.700300 
      4 C          12.739000    3.063000   12.313000 C.ar      1 <1>         0.842900 
      5 C          12.164000    3.838000   13.328000 C.ar      1 <1>        -0.874800 
      6 C          10.788000    3.565000   13.505000 C.ar      1 <1>         0.806600 
      7 N           9.994000    4.215000   14.439000 N.pl3     1 <1>        -0.743600 
      8 H          10.215000    4.005000   15.409000 H         1 <1>         0.319200 
      9 H           9.907000    5.219000   14.303000 H         1 <1>         0.318700 
     10 C          13.019000    4.780000   14.024000 C.ar      1 <1>         0.540000 
     11 C          14.365000    4.911000   13.628000 C.ar      1 <1>        -0.526500 
     12 C          14.796000    4.079000   12.608000 C.ar      1 <1>         0.470100 
     13 H          15.825000    4.115000   12.250000 H         1 <1>         0.044200 
     14 N          14.018000    3.176000   11.972000 N.ar      1 <1>        -0.607900 
     15 C          15.361000    5.887000   14.225000 C.3       1 <1>         0.103700 
     16 H          15.849000    5.435000   15.097000 H         1 <1>         0.095200 
     17 H          14.803000    6.751000   14.609000 H         1 <1>         0.019700 
     18 N          16.374000    6.277000   13.236000 N.pl3     1 <1>        -0.402200 
     19 C          15.992000    7.115000   12.180000 C.ar      1 <1>         0.764100 
     20 C          14.672000    7.603000   12.194000 C.ar      1 <1>        -0.496200 
     21 H          14.006000    7.327000   13.011000 H         1 <1>         0.171800 
     22 C          14.192000    8.450000   11.192000 C.ar      1 <1>         0.084200 
     23 H          13.168000    8.818000   11.236000 H         1 <1>         0.087200 
     24 C          15.022000    8.823000   10.141000 C.ar      1 <1>        -0.279100 
     25 H          14.652000    9.482000    9.358000 H         1 <1>         0.129900 
     26 C          16.329000    8.340000   10.089000 C.ar      1 <1>         0.229100 
     27 H          16.966000    8.625000    9.254000 H         1 <1>         0.052800 
     28 C          16.812000    7.490000   11.093000 C.ar      1 <1>        -0.637200 
     29 Cl         18.425000    6.891000   10.895000 Cl        1 <1>         0.096200 
     30 C          17.747000    6.482000   13.696000 C.3       1 <1>        -0.150400 
     31 H          18.452000    6.487000   12.856000 H         1 <1>         0.088800 
     32 H          18.060000    5.678000   14.368000 H         1 <1>         0.065300 
     33 H          17.840000    7.431000   14.236000 H         1 <1>         0.082900 
     34 C          12.480000    5.623000   15.153000 C.3       1 <1>        -0.241000 
     35 H          12.019000    4.990000   15.916000 H         1 <1>         0.073800 
     36 H          11.760000    6.353000   14.772000 H         1 <1>         0.070900 
     37 H          13.252000    6.182000   15.684000 H         1 <1>         0.060900 
     38 N          10.124000    1.043000   11.140000 N.pl3     1 <1>        -0.811600 
     39 H          10.609000    0.515000   10.430000 H         1 <1>         0.380500 
     40 H           9.143000    0.881000   11.318000 H         1 <1>         0.374200 
@<TRIPOS>BOND
     1    1    2 ar   
     2    2    3 ar   
     3    3    4 ar   
     4    4    5 ar   
     5    5    6 ar   
     6    6    1 ar   
     7    6    7 1    
     8    7    8 1    
     9    7    9 1    
    10    5   10 ar   
    11   10   11 ar   
    12   11   12 ar   
    13   12   13 1    
    14   12   14 ar   
    15   14    4 ar   
    16   11   15 1    
    17   15   16 1    
    18   15   17 1    
    19   15   18 1    
    20   18   19 1    
    21   19   20 ar   
    22   20   21 1    
    23   20   22 ar   
    24   22   23 1    
    25   22   24 ar   
    26   24   25 1    
    27   24   26 ar   
    28   26   27 1    
    29   26   28 ar   
    30   28   19 ar   
    31   28   29 1    
    32   18   30 1    
    33   30   31 1    
    34   30   32 1    
    35   30   33 1    
    36   10   34 1    
    37   34   35 1    
    38   34   36 1    
    39   34   37 1    
    40    2   38 1    
    41   38   39 1    
    42   38   40 1    
@<TRIPOS>SUBSTRUCTURE
     1 ****        1 TEMP              0 ****  ****    0 ROOT 
@<TRIPOS>SET
UNITY_3DHIT     STATIC     ATOMS    <user>   **** Atoms matching 3D or FLEX Search
0
