#	Name:			27-10
#	Creating user name:	jeff
#	Creation time:		Thu Dec  4 18:13:40 2003

#	Modifying user name:	jeff
#	Modification time:	Thu Dec  4 18:13:40 2003

@<TRIPOS>MOLECULE
27-10
   37    39     1     0     1
SMALL
USER_CHARGES
****
From 3DB ct
@<TRIPOS>ATOM
      1 N          10.125000    2.640000   12.803000 N.ar      1 <1>        -0.712700 
      2 C          10.793000    1.978000   11.871000 C.ar      1 <1>         0.809600 
      3 N          12.076000    2.166000   11.602000 N.ar      1 <1>        -0.703800 
      4 C          12.739000    3.069000   12.303000 C.ar      1 <1>         0.840000 
      5 C          12.166000    3.845000   13.319000 C.ar      1 <1>        -0.861400 
      6 C          10.797000    3.558000   13.517000 C.ar      1 <1>         0.814900 
      7 N          10.011000    4.194000   14.467000 N.pl3     1 <1>        -0.752100 
      8 H           9.869000    5.188000   14.307000 H         1 <1>         0.321900 
      9 H          10.285000    4.025000   15.431000 H         1 <1>         0.321700 
     10 C          13.020000    4.797000   14.003000 C.ar      1 <1>         0.487500 
     11 C          14.376000    4.895000   13.631000 C.ar      1 <1>        -0.459200 
     12 C          14.802000    4.070000   12.603000 C.ar      1 <1>         0.406400 
     13 H          15.833000    4.102000   12.251000 H         1 <1>         0.083600 
     14 N          14.017000    3.182000   11.957000 N.ar      1 <1>        -0.593100 
     15 C          15.378000    5.841000   14.252000 C.3       1 <1>         0.204300 
     16 H          15.921000    5.329000   15.056000 H         1 <1>         0.054300 
     17 H          14.849000    6.678000   14.723000 H         1 <1>         0.045900 
     18 N          16.317000    6.303000   13.245000 N.pl3     1 <1>        -0.719500 
     19 H          17.285000    5.999000   13.340000 H         1 <1>         0.367900 
     20 C          15.988000    7.122000   12.184000 C.ar      1 <1>         0.315900 
     21 C          14.687000    7.642000   12.111000 C.ar      1 <1>        -0.147800 
     22 H          13.958000    7.397000   12.884000 H         1 <1>         0.103000 
     23 C          14.289000    8.476000   11.061000 C.ar      1 <1>        -0.166400 
     24 H          13.273000    8.864000   11.030000 H         1 <1>         0.127600 
     25 C          15.194000    8.809000   10.059000 C.ar      1 <1>         0.090600 
     26 H          14.884000    9.458000    9.243000 H         1 <1>         0.056500 
     27 C          16.489000    8.304000   10.117000 C.ar      1 <1>        -0.364600 
     28 C          16.884000    7.469000   11.167000 C.ar      1 <1>        -0.032100 
     29 H          17.904000    7.094000   11.176000 H         1 <1>         0.066400 
     30 Cl         17.618000    8.712000    8.880000 Cl        1 <1>         0.076300 
     31 C          12.474000    5.678000   15.101000 C.3       1 <1>        -0.207300 
     32 H          13.212000    6.367000   15.517000 H         1 <1>         0.040100 
     33 H          12.122000    5.067000   15.937000 H         1 <1>         0.073100 
     34 H          11.665000    6.305000   14.716000 H         1 <1>         0.066000 
     35 N          10.120000    1.045000   11.145000 N.pl3     1 <1>        -0.807700 
     36 H          10.600000    0.524000   10.426000 H         1 <1>         0.380400 
     37 H           9.141000    0.879000   11.330000 H         1 <1>         0.373800 
@<TRIPOS>BOND
     1    1    2 ar   
     2    2    3 ar   
     3    3    4 ar   
     4    4    5 ar   
     5    5    6 ar   
     6    6    1 ar   
     7    6    7 1    
     8    7    8 1    
     9    7    9 1    
    10    5   10 ar   
    11   10   11 ar   
    12   11   12 ar   
    13   12   13 1    
    14   12   14 ar   
    15   14    4 ar   
    16   11   15 1    
    17   15   16 1    
    18   15   17 1    
    19   15   18 1    
    20   18   19 1    
    21   18   20 1    
    22   20   21 ar   
    23   21   22 1    
    24   21   23 ar   
    25   23   24 1    
    26   23   25 ar   
    27   25   26 1    
    28   25   27 ar   
    29   27   28 ar   
    30   28   29 1    
    31   28   20 ar   
    32   27   30 1    
    33   10   31 1    
    34   31   32 1    
    35   31   33 1    
    36   31   34 1    
    37    2   35 1    
    38   35   36 1    
    39   35   37 1    
@<TRIPOS>SUBSTRUCTURE
     1 ****        1 TEMP              0 ****  ****    0 ROOT 
@<TRIPOS>SET
UNITY_3DHIT     STATIC     ATOMS    <user>   **** Atoms matching 3D or FLEX Search
0
