#	Name:			27-14
#	Creating user name:	jeff
#	Creation time:		Thu Dec  4 18:13:40 2003

#	Modifying user name:	jeff
#	Modification time:	Thu Dec  4 18:13:40 2003

@<TRIPOS>MOLECULE
27-14
   44    46     1     0     1
SMALL
USER_CHARGES
****
From 3DB ct
@<TRIPOS>ATOM
      1 N          10.133000    2.613000   12.839000 N.ar      1 <1>        -0.713400 
      2 C          10.784000    1.968000   11.883000 C.ar      1 <1>         0.808400 
      3 N          12.060000    2.168000   11.589000 N.ar      1 <1>        -0.703200 
      4 C          12.728000    3.077000   12.278000 C.ar      1 <1>         0.845000 
      5 C          12.165000    3.856000   13.296000 C.ar      1 <1>        -0.887300 
      6 C          10.812000    3.533000   13.543000 C.ar      1 <1>         0.822100 
      7 N          10.047000    4.140000   14.528000 N.pl3     1 <1>        -0.748400 
      8 H          10.411000    4.055000   15.474000 H         1 <1>         0.318200 
      9 H           9.782000    5.101000   14.332000 H         1 <1>         0.320800 
     10 C          13.018000    4.838000   13.941000 C.ar      1 <1>         0.529000 
     11 C          14.387000    4.883000   13.612000 C.ar      1 <1>        -0.441900 
     12 C          14.798000    4.065000   12.571000 C.ar      1 <1>         0.419900 
     13 H          15.829000    4.081000   12.220000 H         1 <1>         0.075600 
     14 N          13.999000    3.194000   11.914000 N.ar      1 <1>        -0.600200 
     15 C          15.404000    5.807000   14.263000 C.3       1 <1>        -0.079100 
     16 H          15.982000    5.294000   15.037000 H         1 <1>         0.114400 
     17 H          14.822000    6.594000   14.752000 H         1 <1>         0.077000 
     18 N          16.382000    6.332000   13.292000 N.pl3     1 <1>        -0.198400 
     19 C          16.023000    7.128000   12.213000 C.ar      1 <1>         0.113200 
     20 C          16.943000    7.444000   11.200000 C.ar      1 <1>        -0.171700 
     21 H          17.960000    7.055000   11.230000 H         1 <1>         0.115200 
     22 C          16.598000    8.246000   10.103000 C.ar      1 <1>        -0.198200 
     23 H          17.349000    8.457000    9.342000 H         1 <1>         0.121900 
     24 C          15.315000    8.772000    9.983000 C.ar      1 <1>         0.282000 
     25 C          14.383000    8.480000   10.972000 C.ar      1 <1>        -0.254800 
     26 H          13.368000    8.867000   10.938000 H         1 <1>         0.145600 
     27 C          14.737000    7.670000   12.065000 C.ar      1 <1>        -0.099600 
     28 H          13.969000    7.510000   12.819000 H         1 <1>         0.104300 
     29 O          15.105000    9.544000    8.876000 O.3       1 <1>        -0.306300 
     30 C          16.189000    9.652000    7.955000 C.3       1 <1>         0.056800 
     31 H          15.862000   10.291000    7.129000 H         1 <1>         0.056500 
     32 H          16.450000    8.675000    7.537000 H         1 <1>         0.027600 
     33 H          17.057000   10.130000    8.421000 H         1 <1>         0.024800 
     34 C          17.803000    6.204000   13.638000 C.3       1 <1>        -0.049500 
     35 H          18.297000    7.182000   13.639000 H         1 <1>         0.040800 
     36 H          18.317000    5.539000   12.936000 H         1 <1>         0.056400 
     37 H          17.934000    5.784000   14.642000 H         1 <1>         0.064800 
     38 C          12.454000    5.798000   14.960000 C.3       1 <1>        -0.231500 
     39 H          12.317000    5.296000   15.922000 H         1 <1>         0.073400 
     40 H          11.511000    6.225000   14.613000 H         1 <1>         0.070500 
     41 H          13.092000    6.671000   15.115000 H         1 <1>         0.056400 
     42 N          10.102000    1.038000   11.164000 N.pl3     1 <1>        -0.805400 
     43 H          10.573000    0.524000   10.434000 H         1 <1>         0.377800 
     44 H           9.132000    0.856000   11.375000 H         1 <1>         0.370900 
@<TRIPOS>BOND
     1    1    2 ar   
     2    2    3 ar   
     3    3    4 ar   
     4    4    5 ar   
     5    5    6 ar   
     6    6    1 ar   
     7    6    7 1    
     8    7    8 1    
     9    7    9 1    
    10    5   10 ar   
    11   10   11 ar   
    12   11   12 ar   
    13   12   13 1    
    14   12   14 ar   
    15   14    4 ar   
    16   11   15 1    
    17   15   16 1    
    18   15   17 1    
    19   15   18 1    
    20   18   19 1    
    21   19   20 ar   
    22   20   21 1    
    23   20   22 ar   
    24   22   23 1    
    25   22   24 ar   
    26   24   25 ar   
    27   25   26 1    
    28   25   27 ar   
    29   27   28 1    
    30   27   19 ar   
    31   24   29 1    
    32   29   30 1    
    33   30   31 1    
    34   30   32 1    
    35   30   33 1    
    36   18   34 1    
    37   34   35 1    
    38   34   36 1    
    39   34   37 1    
    40   10   38 1    
    41   38   39 1    
    42   38   40 1    
    43   38   41 1    
    44    2   42 1    
    45   42   43 1    
    46   42   44 1    
@<TRIPOS>SUBSTRUCTURE
     1 ****        1 TEMP              0 ****  ****    0 ROOT 
@<TRIPOS>SET
UNITY_3DHIT     STATIC     ATOMS    <user>   **** Atoms matching 3D or FLEX Search
0
