#	Name:			27-13
#	Creating user name:	jeff
#	Creation time:		Thu Dec  4 18:13:40 2003

#	Modifying user name:	jeff
#	Modification time:	Thu Dec  4 18:13:40 2003

@<TRIPOS>MOLECULE
27-13
   44    46     1     0     1
SMALL
USER_CHARGES
****
From 3DB ct
@<TRIPOS>ATOM
      1 N          10.116000    2.668000   12.770000 N.ar      1 <1>        -0.717600 
      2 C          10.792000    1.996000   11.852000 C.ar      1 <1>         0.817600 
      3 N          12.082000    2.163000   11.611000 N.ar      1 <1>        -0.705500 
      4 C          12.745000    3.050000   12.331000 C.ar      1 <1>         0.838200 
      5 C          12.170000    3.824000   13.346000 C.ar      1 <1>        -0.879300 
      6 C          10.787000    3.572000   13.500000 C.ar      1 <1>         0.825700 
      7 N           9.989000    4.226000   14.427000 N.pl3     1 <1>        -0.753900 
      8 H           9.937000    5.236000   14.314000 H         1 <1>         0.322200 
      9 H          10.174000    3.985000   15.397000 H         1 <1>         0.320900 
     10 C          13.033000    4.748000   14.062000 C.ar      1 <1>         0.506700 
     11 C          14.379000    4.881000   13.668000 C.ar      1 <1>        -0.412800 
     12 C          14.808000    4.044000   12.649000 C.ar      1 <1>         0.402800 
     13 H          15.839000    4.074000   12.296000 H         1 <1>         0.077700 
     14 N          14.029000    3.148000   12.004000 N.ar      1 <1>        -0.592100 
     15 C          15.378000    5.872000   14.237000 C.3       1 <1>        -0.052600 
     16 H          15.915000    5.402000   15.072000 H         1 <1>         0.102000 
     17 H          14.858000    6.709000   14.712000 H         1 <1>         0.082100 
     18 N          16.367000    6.289000   13.225000 N.pl3     1 <1>        -0.205000 
     19 C          16.025000    7.111000   12.159000 C.ar      1 <1>         0.233400 
     20 C          14.739000    7.660000   12.035000 C.ar      1 <1>        -0.310100 
     21 H          13.978000    7.474000   12.791000 H         1 <1>         0.118100 
     22 C          14.392000    8.485000   10.961000 C.ar      1 <1>         0.055100 
     23 H          13.389000    8.902000   10.898000 H         1 <1>         0.095300 
     24 C          15.331000    8.775000    9.977000 C.ar      1 <1>        -0.343600 
     25 H          15.056000    9.419000    9.144000 H         1 <1>         0.144400 
     26 C          16.614000    8.239000   10.058000 C.ar      1 <1>         0.362800 
     27 C          16.947000    7.409000   11.137000 C.ar      1 <1>        -0.329500 
     28 H          17.932000    6.955000   11.181000 H         1 <1>         0.121000 
     29 O          17.444000    8.588000    9.027000 O.3       1 <1>        -0.303800 
     30 C          18.771000    8.065000    9.062000 C.3       1 <1>         0.053500 
     31 H          19.313000    8.476000    8.205000 H         1 <1>         0.059000 
     32 H          18.765000    6.975000    8.963000 H         1 <1>         0.030100 
     33 H          19.296000    8.379000    9.971000 H         1 <1>         0.027300 
     34 C          17.654000    5.592000   13.214000 C.3       1 <1>        -0.100100 
     35 H          18.458000    6.247000   12.860000 H         1 <1>         0.055100 
     36 H          17.612000    4.701000   12.578000 H         1 <1>         0.067200 
     37 H          17.933000    5.273000   14.225000 H         1 <1>         0.079200 
     38 C          12.491000    5.564000   15.210000 C.3       1 <1>        -0.236100 
     39 H          13.271000    6.047000   15.797000 H         1 <1>         0.055700 
     40 H          11.976000    4.920000   15.927000 H         1 <1>         0.077000 
     41 H          11.819000    6.343000   14.841000 H         1 <1>         0.071200 
     42 N          10.118000    1.077000   11.108000 N.pl3     1 <1>        -0.815400 
     43 H          10.607000    0.547000   10.402000 H         1 <1>         0.380600 
     44 H           9.134000    0.923000   11.274000 H         1 <1>         0.375400 
@<TRIPOS>BOND
     1    1    2 ar   
     2    2    3 ar   
     3    3    4 ar   
     4    4    5 ar   
     5    5    6 ar   
     6    6    1 ar   
     7    6    7 1    
     8    7    8 1    
     9    7    9 1    
    10    5   10 ar   
    11   10   11 ar   
    12   11   12 ar   
    13   12   13 1    
    14   12   14 ar   
    15   14    4 ar   
    16   11   15 1    
    17   15   16 1    
    18   15   17 1    
    19   15   18 1    
    20   18   19 1    
    21   19   20 ar   
    22   20   21 1    
    23   20   22 ar   
    24   22   23 1    
    25   22   24 ar   
    26   24   25 1    
    27   24   26 ar   
    28   26   27 ar   
    29   27   28 1    
    30   27   19 ar   
    31   26   29 1    
    32   29   30 1    
    33   30   31 1    
    34   30   32 1    
    35   30   33 1    
    36   18   34 1    
    37   34   35 1    
    38   34   36 1    
    39   34   37 1    
    40   10   38 1    
    41   38   39 1    
    42   38   40 1    
    43   38   41 1    
    44    2   42 1    
    45   42   43 1    
    46   42   44 1    
@<TRIPOS>SUBSTRUCTURE
     1 ****        1 TEMP              0 ****  ****    0 ROOT 
@<TRIPOS>SET
UNITY_3DHIT     STATIC     ATOMS    <user>   **** Atoms matching 3D or FLEX Search
0
