#	Name:			27-11
#	Creating user name:	jeff
#	Creation time:		Thu Dec  4 18:13:40 2003

#	Modifying user name:	jeff
#	Modification time:	Thu Dec  4 18:13:40 2003

@<TRIPOS>MOLECULE
27-11
   37    39     1     0     1
SMALL
USER_CHARGES
****
From 3DB ct
@<TRIPOS>ATOM
      1 N          10.112000    2.667000   12.772000 N.ar      1 <1>        -0.710300 
      2 C          10.788000    1.986000   11.860000 C.ar      1 <1>         0.804900 
      3 N          12.078000    2.153000   11.614000 N.ar      1 <1>        -0.701300 
      4 C          12.742000    3.047000   12.327000 C.ar      1 <1>         0.834800 
      5 C          12.168000    3.824000   13.340000 C.ar      1 <1>        -0.849200 
      6 C          10.784000    3.579000   13.493000 C.ar      1 <1>         0.811900 
      7 N           9.985000    4.249000   14.407000 N.pl3     1 <1>        -0.751100 
      8 H          10.144000    3.999000   15.380000 H         1 <1>         0.321100 
      9 H           9.959000    5.259000   14.296000 H         1 <1>         0.322300 
     10 C          13.034000    4.747000   14.055000 C.ar      1 <1>         0.471300 
     11 C          14.369000    4.906000   13.633000 C.ar      1 <1>        -0.436600 
     12 C          14.802000    4.052000   12.630000 C.ar      1 <1>         0.391300 
     13 H          15.836000    4.075000   12.286000 H         1 <1>         0.086500 
     14 N          14.024000    3.145000   11.997000 N.ar      1 <1>        -0.589900 
     15 C          15.364000    5.875000   14.240000 C.3       1 <1>         0.203600 
     16 H          15.873000    5.351000   15.058000 H         1 <1>         0.052100 
     17 H          14.872000    6.761000   14.646000 H         1 <1>         0.047000 
     18 N          16.318000    6.341000   13.241000 N.pl3     1 <1>        -0.725200 
     19 H          17.206000    5.842000   13.194000 H         1 <1>         0.359700 
     20 C          15.982000    7.128000   12.156000 C.ar      1 <1>         0.501600 
     21 C          16.970000    7.420000   11.204000 C.ar      1 <1>        -0.415900 
     22 H          17.971000    7.003000   11.311000 H         1 <1>         0.140200 
     23 C          16.706000    8.243000   10.102000 C.ar      1 <1>         0.251800 
     24 H          17.495000    8.443000    9.382000 H         1 <1>         0.050000 
     25 C          15.442000    8.799000    9.946000 C.ar      1 <1>        -0.512000 
     26 C          14.448000    8.540000   10.883000 C.ar      1 <1>         0.226000 
     27 H          13.457000    8.973000   10.774000 H         1 <1>         0.051600 
     28 C          14.722000    7.715000   11.983000 C.ar      1 <1>        -0.357900 
     29 H          13.918000    7.541000   12.694000 H         1 <1>         0.132300 
     30 Cl         15.109000    9.813000    8.597000 Cl        1 <1>         0.070300 
     31 C          12.511000    5.536000   15.230000 C.3       1 <1>        -0.214800 
     32 H          11.943000    4.893000   15.906000 H         1 <1>         0.075900 
     33 H          11.894000    6.370000   14.885000 H         1 <1>         0.068300 
     34 H          13.305000    5.936000   15.864000 H         1 <1>         0.041500 
     35 N          10.113000    1.059000   11.127000 N.pl3     1 <1>        -0.803600 
     36 H          10.599000    0.524000   10.421000 H         1 <1>         0.379000 
     37 H           9.128000    0.913000   11.290000 H         1 <1>         0.372600 
@<TRIPOS>BOND
     1    1    2 ar   
     2    2    3 ar   
     3    3    4 ar   
     4    4    5 ar   
     5    5    6 ar   
     6    6    1 ar   
     7    6    7 1    
     8    7    8 1    
     9    7    9 1    
    10    5   10 ar   
    11   10   11 ar   
    12   11   12 ar   
    13   12   13 1    
    14   12   14 ar   
    15   14    4 ar   
    16   11   15 1    
    17   15   16 1    
    18   15   17 1    
    19   15   18 1    
    20   18   19 1    
    21   18   20 1    
    22   20   21 ar   
    23   21   22 1    
    24   21   23 ar   
    25   23   24 1    
    26   23   25 ar   
    27   25   26 ar   
    28   26   27 1    
    29   26   28 ar   
    30   28   29 1    
    31   28   20 ar   
    32   25   30 1    
    33   10   31 1    
    34   31   32 1    
    35   31   33 1    
    36   31   34 1    
    37    2   35 1    
    38   35   36 1    
    39   35   37 1    
@<TRIPOS>SUBSTRUCTURE
     1 ****        1 TEMP              0 ****  ****    0 ROOT 
@<TRIPOS>SET
UNITY_3DHIT     STATIC     ATOMS    <user>   **** Atoms matching 3D or FLEX Search
0
