#	Name:			27-6
#	Creating user name:	jeff
#	Creation time:		Thu Dec  4 18:13:40 2003

#	Modifying user name:	jeff
#	Modification time:	Thu Dec  4 18:13:40 2003

@<TRIPOS>MOLECULE
27-6
   41    43     1     0     1
SMALL
USER_CHARGES
****
From 3DB ct
@<TRIPOS>ATOM
      1 N          10.123000    2.623000   12.800000 N.ar      1 <1>        -0.712100 
      2 C          10.800000    1.967000   11.870000 C.ar      1 <1>         0.805300 
      3 N          12.081000    2.168000   11.604000 N.ar      1 <1>        -0.701400 
      4 C          12.732000    3.080000   12.306000 C.ar      1 <1>         0.835300 
      5 C          12.149000    3.851000   13.318000 C.ar      1 <1>        -0.854300 
      6 C          10.782000    3.548000   13.515000 C.ar      1 <1>         0.812300 
      7 N           9.988000    4.174000   14.465000 N.pl3     1 <1>        -0.749800 
      8 H          10.265000    4.008000   15.430000 H         1 <1>         0.319800 
      9 H           9.833000    5.166000   14.306000 H         1 <1>         0.321600 
     10 C          12.990000    4.815000   14.002000 C.ar      1 <1>         0.471000 
     11 C          14.346000    4.926000   13.634000 C.ar      1 <1>        -0.435800 
     12 C          14.785000    4.103000   12.610000 C.ar      1 <1>         0.400700 
     13 H          15.816000    4.143000   12.261000 H         1 <1>         0.087600 
     14 N          14.010000    3.205000   11.963000 N.ar      1 <1>        -0.595900 
     15 C          15.338000    5.883000   14.259000 C.3       1 <1>         0.172600 
     16 H          15.838000    5.388000   15.101000 H         1 <1>         0.055200 
     17 H          14.792000    6.740000   14.670000 H         1 <1>         0.047500 
     18 N          16.322000    6.290000   13.273000 N.pl3     1 <1>        -0.556100 
     19 H          17.270000    5.947000   13.414000 H         1 <1>         0.310200 
     20 C          16.090000    7.098000   12.169000 C.ar      1 <1>         0.131100 
     21 C          14.787000    7.618000   12.035000 C.ar      1 <1>        -0.137000 
     22 H          14.025000    7.374000   12.775000 H         1 <1>         0.107100 
     23 C          14.427000    8.450000   10.973000 C.ar      1 <1>        -0.124300 
     24 H          13.411000    8.833000   10.902000 H         1 <1>         0.113800 
     25 C          15.369000    8.784000   10.013000 C.ar      1 <1>        -0.142600 
     26 H          15.097000    9.433000    9.182000 H         1 <1>         0.114800 
     27 C          16.669000    8.287000   10.115000 C.ar      1 <1>        -0.171900 
     28 H          17.371000    8.576000    9.338000 H         1 <1>         0.120800 
     29 C          17.041000    7.449000   11.180000 C.ar      1 <1>         0.153600 
     30 O          18.308000    6.935000   11.314000 O.3       1 <1>        -0.266200 
     31 C          19.296000    7.326000   10.363000 C.3       1 <1>        -0.001700 
     32 H          20.232000    6.828000   10.634000 H         1 <1>         0.065800 
     33 H          19.471000    8.406000   10.400000 H         1 <1>         0.040300 
     34 H          19.024000    6.997000    9.355000 H         1 <1>         0.047000 
     35 C          12.430000    5.693000   15.094000 C.3       1 <1>        -0.204500 
     36 H          12.088000    5.082000   15.934000 H         1 <1>         0.071000 
     37 H          11.613000    6.307000   14.706000 H         1 <1>         0.064900 
     38 H          13.158000    6.396000   15.506000 H         1 <1>         0.040900 
     39 N          10.137000    1.028000   11.142000 N.pl3     1 <1>        -0.807800 
     40 H          10.624000    0.510000   10.425000 H         1 <1>         0.378300 
     41 H           9.159000    0.854000   11.323000 H         1 <1>         0.372800 
@<TRIPOS>BOND
     1    1    2 ar   
     2    2    3 ar   
     3    3    4 ar   
     4    4    5 ar   
     5    5    6 ar   
     6    6    1 ar   
     7    6    7 1    
     8    7    8 1    
     9    7    9 1    
    10    5   10 ar   
    11   10   11 ar   
    12   11   12 ar   
    13   12   13 1    
    14   12   14 ar   
    15   14    4 ar   
    16   11   15 1    
    17   15   16 1    
    18   15   17 1    
    19   15   18 1    
    20   18   19 1    
    21   18   20 1    
    22   20   21 ar   
    23   21   22 1    
    24   21   23 ar   
    25   23   24 1    
    26   23   25 ar   
    27   25   26 1    
    28   25   27 ar   
    29   27   28 1    
    30   27   29 ar   
    31   29   20 ar   
    32   29   30 1    
    33   30   31 1    
    34   31   32 1    
    35   31   33 1    
    36   31   34 1    
    37   10   35 1    
    38   35   36 1    
    39   35   37 1    
    40   35   38 1    
    41    2   39 1    
    42   39   40 1    
    43   39   41 1    
@<TRIPOS>SUBSTRUCTURE
     1 ****        1 TEMP              0 ****  ****    0 ROOT 
@<TRIPOS>SET
UNITY_3DHIT     STATIC     ATOMS    <user>   **** Atoms matching 3D or FLEX Search
0
