#	Name:			27-7
#	Creating user name:	jeff
#	Creation time:		Thu Dec  4 18:13:40 2003

#	Modifying user name:	jeff
#	Modification time:	Thu Dec  4 18:13:40 2003

@<TRIPOS>MOLECULE
27-7
   41    43     1     0     1
SMALL
USER_CHARGES
****
From 3DB ct
@<TRIPOS>ATOM
      1 N          10.117000    2.691000   12.769000 N.ar      1 <1>        -0.711200 
      2 C          10.784000    2.003000   11.856000 C.ar      1 <1>         0.802800 
      3 N          12.077000    2.153000   11.613000 N.ar      1 <1>        -0.698400 
      4 C          12.752000    3.034000   12.331000 C.ar      1 <1>         0.825900 
      5 C          12.188000    3.816000   13.346000 C.ar      1 <1>        -0.841900 
      6 C          10.800000    3.590000   13.495000 C.ar      1 <1>         0.816100 
      7 N          10.008000    4.268000   14.410000 N.pl3     1 <1>        -0.756800 
      8 H           9.998000    5.279000   14.305000 H         1 <1>         0.325700 
      9 H          10.160000    4.011000   15.382000 H         1 <1>         0.319800 
     10 C          13.065000    4.722000   14.067000 C.ar      1 <1>         0.443000 
     11 C          14.403000    4.865000   13.647000 C.ar      1 <1>        -0.380000 
     12 C          14.825000    4.010000   12.640000 C.ar      1 <1>         0.390800 
     13 H          15.860000    4.021000   12.298000 H         1 <1>         0.084100 
     14 N          14.037000    3.116000   12.004000 N.ar      1 <1>        -0.590400 
     15 C          15.410000    5.820000   14.255000 C.3       1 <1>         0.103500 
     16 H          15.948000    5.273000   15.039000 H         1 <1>         0.066200 
     17 H          14.925000    6.688000   14.707000 H         1 <1>         0.088500 
     18 N          16.329000    6.327000   13.243000 N.pl3     1 <1>        -0.681500 
     19 H          17.231000    5.856000   13.175000 H         1 <1>         0.346800 
     20 C          15.953000    7.121000   12.174000 C.ar      1 <1>         0.503000 
     21 C          16.918000    7.445000   11.210000 C.ar      1 <1>        -0.388300 
     22 H          17.930000    7.049000   11.295000 H         1 <1>         0.133300 
     23 C          16.615000    8.271000   10.127000 C.ar      1 <1>         0.025400 
     24 H          17.379000    8.504000    9.388000 H         1 <1>         0.108400 
     25 C          15.334000    8.800000    9.998000 C.ar      1 <1>        -0.345300 
     26 H          15.102000    9.445000    9.153000 H         1 <1>         0.128500 
     27 C          14.357000    8.511000   10.950000 C.ar      1 <1>         0.404600 
     28 C          14.673000    7.680000   12.033000 C.ar      1 <1>        -0.463200 
     29 H          13.917000    7.455000   12.777000 H         1 <1>         0.158000 
     30 O          13.142000    9.097000   10.714000 O.3       1 <1>        -0.300300 
     31 C          13.018000    9.869000    9.521000 C.3       1 <1>         0.041600 
     32 H          11.998000   10.265000    9.486000 H         1 <1>         0.058800 
     33 H          13.165000    9.246000    8.633000 H         1 <1>         0.035300 
     34 H          13.706000   10.721000    9.531000 H         1 <1>         0.031500 
     35 C          12.553000    5.513000   15.246000 C.3       1 <1>        -0.214100 
     36 H          13.352000    5.892000   15.886000 H         1 <1>         0.041300 
     37 H          11.969000    4.877000   15.915000 H         1 <1>         0.079600 
     38 H          11.953000    6.362000   14.905000 H         1 <1>         0.064200 
     39 N          10.098000    1.090000   11.117000 N.pl3     1 <1>        -0.805500 
     40 H          10.578000    0.550000   10.412000 H         1 <1>         0.378000 
     41 H           9.111000    0.956000   11.280000 H         1 <1>         0.372200 
@<TRIPOS>BOND
     1    1    2 ar   
     2    2    3 ar   
     3    3    4 ar   
     4    4    5 ar   
     5    5    6 ar   
     6    6    1 ar   
     7    6    7 1    
     8    7    8 1    
     9    7    9 1    
    10    5   10 ar   
    11   10   11 ar   
    12   11   12 ar   
    13   12   13 1    
    14   12   14 ar   
    15   14    4 ar   
    16   11   15 1    
    17   15   16 1    
    18   15   17 1    
    19   15   18 1    
    20   18   19 1    
    21   18   20 1    
    22   20   21 ar   
    23   21   22 1    
    24   21   23 ar   
    25   23   24 1    
    26   23   25 ar   
    27   25   26 1    
    28   25   27 ar   
    29   27   28 ar   
    30   28   29 1    
    31   28   20 ar   
    32   27   30 1    
    33   30   31 1    
    34   31   32 1    
    35   31   33 1    
    36   31   34 1    
    37   10   35 1    
    38   35   36 1    
    39   35   37 1    
    40   35   38 1    
    41    2   39 1    
    42   39   40 1    
    43   39   41 1    
@<TRIPOS>SUBSTRUCTURE
     1 ****        1 TEMP              0 ****  ****    0 ROOT 
@<TRIPOS>SET
UNITY_3DHIT     STATIC     ATOMS    <user>   **** Atoms matching 3D or FLEX Search
0
