#	Name:			27-9
#	Creating user name:	jeff
#	Creation time:		Thu Dec  4 18:13:40 2003

#	Modifying user name:	jeff
#	Modification time:	Thu Dec  4 18:13:40 2003

@<TRIPOS>MOLECULE
27-9
   37    39     1     0     1
SMALL
USER_CHARGES
****
From 3DB ct
@<TRIPOS>ATOM
      1 N          10.132000    2.623000   12.816000 N.ar      1 <1>        -0.706100 
      2 C          10.801000    1.965000   11.881000 C.ar      1 <1>         0.800100 
      3 N          12.079000    2.167000   11.602000 N.ar      1 <1>        -0.699600 
      4 C          12.736000    3.082000   12.294000 C.ar      1 <1>         0.830300 
      5 C          12.161000    3.858000   13.308000 C.ar      1 <1>        -0.827500 
      6 C          10.797000    3.551000   13.521000 C.ar      1 <1>         0.799500 
      7 N          10.011000    4.180000   14.475000 N.pl3     1 <1>        -0.747700 
      8 H          10.308000    4.036000   15.437000 H         1 <1>         0.320500 
      9 H           9.835000    5.166000   14.302000 H         1 <1>         0.321000 
     10 C          13.006000    4.828000   13.978000 C.ar      1 <1>         0.449500 
     11 C          14.362000    4.927000   13.608000 C.ar      1 <1>        -0.474500 
     12 C          14.791000    4.104000   12.580000 C.ar      1 <1>         0.399100 
     13 H          15.819000    4.145000   12.223000 H         1 <1>         0.086400 
     14 N          14.010000    3.206000   11.940000 N.ar      1 <1>        -0.589300 
     15 C          15.364000    5.877000   14.222000 C.3       1 <1>         0.377600 
     16 H          15.810000    5.402000   15.102000 H         1 <1>         0.029300 
     17 H          14.857000    6.771000   14.604000 H         1 <1>         0.006300 
     18 N          16.373000    6.229000   13.230000 N.pl3     1 <1>        -0.903600 
     19 H          16.965000    5.450000   12.941000 H         1 <1>         0.384700 
     20 C          16.016000    7.112000   12.207000 C.ar      1 <1>         0.748800 
     21 C          14.694000    7.588000   12.184000 C.ar      1 <1>        -0.392800 
     22 H          13.974000    7.235000   12.921000 H         1 <1>         0.143800 
     23 C          14.273000    8.527000   11.237000 C.ar      1 <1>         0.040200 
     24 H          13.243000    8.880000   11.243000 H         1 <1>         0.098000 
     25 C          15.171000    9.015000   10.293000 C.ar      1 <1>        -0.277000 
     26 H          14.846000    9.745000    9.555000 H         1 <1>         0.126900 
     27 C          16.488000    8.559000   10.293000 C.ar      1 <1>         0.209400 
     28 H          17.181000    8.935000    9.543000 H         1 <1>         0.060300 
     29 C          16.910000    7.618000   11.241000 C.ar      1 <1>        -0.602600 
     30 Cl         18.541000    7.046000   11.111000 Cl        1 <1>         0.067500 
     31 C          12.451000    5.720000   15.062000 C.3       1 <1>        -0.198700 
     32 H          12.150000    5.122000   15.928000 H         1 <1>         0.073800 
     33 H          11.606000    6.300000   14.681000 H         1 <1>         0.064400 
     34 H          13.166000    6.459000   15.428000 H         1 <1>         0.033700 
     35 N          10.132000    1.023000   11.162000 N.pl3     1 <1>        -0.802100 
     36 H          10.612000    0.504000   10.442000 H         1 <1>         0.378700 
     37 H           9.156000    0.850000   11.353000 H         1 <1>         0.371700 
@<TRIPOS>BOND
     1    1    2 ar   
     2    2    3 ar   
     3    3    4 ar   
     4    4    5 ar   
     5    5    6 ar   
     6    6    1 ar   
     7    6    7 1    
     8    7    8 1    
     9    7    9 1    
    10    5   10 ar   
    11   10   11 ar   
    12   11   12 ar   
    13   12   13 1    
    14   12   14 ar   
    15   14    4 ar   
    16   11   15 1    
    17   15   16 1    
    18   15   17 1    
    19   15   18 1    
    20   18   19 1    
    21   18   20 1    
    22   20   21 ar   
    23   21   22 1    
    24   21   23 ar   
    25   23   24 1    
    26   23   25 ar   
    27   25   26 1    
    28   25   27 ar   
    29   27   28 1    
    30   27   29 ar   
    31   29   20 ar   
    32   29   30 1    
    33   10   31 1    
    34   31   32 1    
    35   31   33 1    
    36   31   34 1    
    37    2   35 1    
    38   35   36 1    
    39   35   37 1    
@<TRIPOS>SUBSTRUCTURE
     1 ****        1 TEMP              0 ****  ****    0 ROOT 
@<TRIPOS>SET
UNITY_3DHIT     STATIC     ATOMS    <user>   **** Atoms matching 3D or FLEX Search
0
