#	Name:			28-12
#	Creating user name:	jeff
#	Creation time:		Thu Dec  4 18:13:41 2003

#	Modifying user name:	jeff
#	Modification time:	Thu Dec  4 18:13:41 2003

@<TRIPOS>MOLECULE
28-12
   51    53     1     0     1
SMALL
USER_CHARGES
****
From 3DB ct
@<TRIPOS>ATOM
      1 N          11.863000    2.075000   11.330000 N.ar      1 <1>        -0.746300 
      2 C          10.616000    2.100000   11.840000 C.ar      1 <1>         0.839200 
      3 N           9.675000    1.390000   11.191000 N.pl3     1 <1>        -0.833400 
      4 H           9.917000    0.877000   10.369000 H         1 <1>         0.378100 
      5 H           8.737000    1.384000   11.537000 H         1 <1>         0.376800 
      6 N          10.232000    2.767000   12.938000 N.ar      1 <1>        -0.741400 
      7 C          11.190000    3.478000   13.573000 C.ar      1 <1>         0.833500 
      8 N          10.844000    4.164000   14.702000 N.pl3     1 <1>        -0.845300 
      9 H           9.890000    4.150000   15.002000 H         1 <1>         0.347600 
     10 H          11.513000    4.730000   15.180000 H         1 <1>         0.353700 
     11 C          12.518000    3.537000   13.140000 C.ar      1 <1>        -0.883500 
     12 C          13.619000    4.337000   13.869000 C.3       1 <1>         0.408000 
     13 H          13.916000    3.787000   14.781000 H         1 <1>        -0.032600 
     14 H          13.215000    5.308000   14.200000 H         1 <1>        -0.056300 
     15 C          14.850000    4.541000   12.954000 C.3       1 <1>        -0.001600 
     16 H          14.554000    5.233000   12.142000 H         1 <1>         0.039200 
     17 C          15.190000    3.198000   12.292000 C.3       1 <1>         0.183100 
     18 H          15.440000    2.449000   13.069000 H         1 <1>         0.014600 
     19 H          16.077000    3.293000   11.645000 H         1 <1>         0.018700 
     20 N          14.068000    2.783000   11.458000 N.pl3     1 <1>        -0.666600 
     21 H          14.220000    2.050000   10.792000 H         1 <1>         0.346800 
     22 C          12.785000    2.786000   11.985000 C.ar      1 <1>         0.762400 
     23 C          16.067000    5.161000   13.685000 C.3       1 <1>        -0.219600 
     24 H          16.111000    4.764000   14.715000 H         1 <1>         0.043400 
     25 H          16.990000    4.813000   13.186000 H         1 <1>         0.051700 
     26 C          16.103000    6.707000   13.757000 C.3       1 <1>         0.089200 
     27 H          15.373000    7.059000   14.503000 H         1 <1>        -0.008700 
     28 H          17.095000    7.019000   14.131000 H         1 <1>         0.009500 
     29 C          15.839000    7.402000   12.426000 C.ar      1 <1>         0.102100 
     30 C          16.860000    7.533000   11.485000 C.ar      1 <1>        -0.328900 
     31 H          17.867000    7.145000   11.739000 H         1 <1>         0.154500 
     32 C          16.626000    8.119000   10.258000 C.ar      1 <1>         0.283100 
     33 C          15.320000    8.612000    9.896000 C.ar      1 <1>        -0.148800 
     34 C          14.329000    8.533000   10.886000 C.ar      1 <1>         0.456000 
     35 O          13.035000    8.986000   10.771000 O.3       1 <1>        -0.343200 
     36 C          12.613000    9.865000    9.736000 C.3       1 <1>         0.119400 
     37 H          11.652000   10.287000   10.063000 H         1 <1>         0.024700 
     38 H          13.325000   10.689000    9.574000 H         1 <1>         0.034300 
     39 H          12.456000    9.331000    8.787000 H         1 <1>         0.018500 
     40 C          14.598000    7.903000   12.115000 C.ar      1 <1>        -0.458600 
     41 H          13.766000    7.829000   12.848000 H         1 <1>         0.197600 
     42 O          15.098000    9.172000    8.653000 O.3       1 <1>        -0.279100 
     43 C          16.242000    9.736000    8.006000 C.3       1 <1>         0.118400 
     44 H          17.027000    8.978000    7.860000 H         1 <1>         0.008500 
     45 H          15.909000   10.109000    7.029000 H         1 <1>         0.039400 
     46 H          16.662000   10.569000    8.589000 H         1 <1>         0.012400 
     47 O          17.621000    8.242000    9.317000 O.3       1 <1>        -0.219000 
     48 C          18.922000    7.701000    9.520000 C.3       1 <1>        -0.010400 
     49 H          19.415000    8.142000   10.399000 H         1 <1>         0.041300 
     50 H          18.896000    6.606000    9.630000 H         1 <1>         0.048100 
     51 H          19.502000    7.955000    8.623000 H         1 <1>         0.069200 
@<TRIPOS>BOND
     1    1    2 ar   
     2    2    3 1    
     3    3    4 1    
     4    3    5 1    
     5    2    6 ar   
     6    6    7 ar   
     7    7    8 1    
     8    8    9 1    
     9    8   10 1    
    10    7   11 ar   
    11   11   12 1    
    12   12   13 1    
    13   12   14 1    
    14   12   15 1    
    15   15   16 1    
    16   15   17 1    
    17   17   18 1    
    18   17   19 1    
    19   17   20 1    
    20   20   21 1    
    21   20   22 1    
    22   22    1 ar   
    23   22   11 ar   
    24   15   23 1    
    25   23   24 1    
    26   23   25 1    
    27   23   26 1    
    28   26   27 1    
    29   26   28 1    
    30   26   29 1    
    31   29   30 ar   
    32   30   31 1    
    33   30   32 ar   
    34   32   33 ar   
    35   33   34 ar   
    36   34   35 1    
    37   35   36 1    
    38   36   37 1    
    39   36   38 1    
    40   36   39 1    
    41   34   40 ar   
    42   40   41 1    
    43   40   29 ar   
    44   33   42 1    
    45   42   43 1    
    46   43   44 1    
    47   43   45 1    
    48   43   46 1    
    49   32   47 1    
    50   47   48 1    
    51   48   49 1    
    52   48   50 1    
    53   48   51 1    
@<TRIPOS>SUBSTRUCTURE
     1 ****        1 TEMP              0 ****  ****    0 ROOT 
@<TRIPOS>SET
UNITY_3DHIT     STATIC     ATOMS    <user>   **** Atoms matching 3D or FLEX Search
0
