#	Name:			28-10
#	Creating user name:	jeff
#	Creation time:		Thu Dec  4 18:13:40 2003

#	Modifying user name:	jeff
#	Modification time:	Thu Dec  4 18:13:41 2003

@<TRIPOS>MOLECULE
28-10
   43    45     1     0     1
SMALL
USER_CHARGES
****
From 3DB ct
@<TRIPOS>ATOM
      1 N          10.149000    2.599000   12.889000 N.ar      1 <1>        -0.681900 
      2 C          10.774000    1.955000   11.906000 C.ar      1 <1>         0.779800 
      3 N          12.038000    2.164000   11.549000 N.ar      1 <1>        -0.698400 
      4 C          12.733000    3.068000   12.223000 C.ar      1 <1>         0.820400 
      5 C          12.184000    3.801000   13.271000 C.ar      1 <1>        -0.729300 
      6 C          10.844000    3.529000   13.553000 C.ar      1 <1>         0.750300 
      7 N          10.162000    4.154000   14.582000 N.pl3     1 <1>        -0.761300 
      8 H          10.333000    5.141000   14.747000 H         1 <1>         0.340500 
      9 H           9.192000    3.872000   14.690000 H         1 <1>         0.327200 
     10 C          13.001000    4.735000   13.952000 C.ar      1 <1>         0.215300 
     11 H          12.598000    5.309000   14.784000 H         1 <1>         0.072700 
     12 C          14.323000    4.922000   13.562000 C.ar      1 <1>        -0.272300 
     13 C          14.771000    4.147000   12.506000 C.ar      1 <1>         0.380100 
     14 H          15.794000    4.231000   12.144000 H         1 <1>         0.077200 
     15 N          14.004000    3.242000   11.848000 N.ar      1 <1>        -0.592700 
     16 C          15.226000    5.900000   14.263000 C.3       1 <1>        -0.124700 
     17 H          15.546000    5.480000   15.225000 H         1 <1>         0.053800 
     18 H          14.650000    6.801000   14.512000 H         1 <1>         0.065800 
     19 C          16.450000    6.262000   13.416000 C.3       1 <1>        -0.019500 
     20 H          17.076000    6.737000   13.950000 H         1 <1>         0.037000 
     21 H          16.856000    5.464000   13.100000 H         1 <1>         0.039900 
     22 C          16.080000    7.129000   12.235000 C.ar      1 <1>        -0.016700 
     23 C          14.783000    7.635000   12.110000 C.ar      1 <1>        -0.100700 
     24 H          14.024000    7.395000   12.855000 H         1 <1>         0.119000 
     25 C          14.441000    8.455000   11.032000 C.ar      1 <1>        -0.198800 
     26 H          13.419000    8.821000   10.984000 H         1 <1>         0.139200 
     27 C          15.393000    8.779000   10.060000 C.ar      1 <1>         0.169700 
     28 C          16.701000    8.268000   10.173000 C.ar      1 <1>         0.162400 
     29 C          17.037000    7.455000   11.262000 C.ar      1 <1>        -0.256900 
     30 H          18.043000    7.058000   11.380000 H         1 <1>         0.143600 
     31 O          17.571000    8.624000    9.171000 O.3       1 <1>        -0.212500 
     32 C          18.904000    8.124000    9.254000 C.3       1 <1>        -0.068300 
     33 H          19.439000    8.454000    8.358000 H         1 <1>         0.080400 
     34 H          18.917000    7.029000    9.265000 H         1 <1>         0.063300 
     35 H          19.422000    8.539000   10.125000 H         1 <1>         0.062000 
     36 O          15.149000    9.576000    8.969000 O.3       1 <1>        -0.299300 
     37 C          16.235000    9.805000    8.074000 C.3       1 <1>         0.116600 
     38 H          15.864000   10.425000    7.253000 H         1 <1>         0.033400 
     39 H          16.597000    8.865000    7.643000 H         1 <1>         0.018400 
     40 H          17.043000   10.354000    8.569000 H         1 <1>         0.010700 
     41 N          10.068000    1.017000   11.218000 N.pl3     1 <1>        -0.784700 
     42 H          10.508000    0.503000   10.469000 H         1 <1>         0.374800 
     43 H           9.107000    0.833000   11.468000 H         1 <1>         0.364400 
@<TRIPOS>BOND
     1    1    2 ar   
     2    2    3 ar   
     3    3    4 ar   
     4    4    5 ar   
     5    5    6 ar   
     6    6    1 ar   
     7    6    7 1    
     8    7    8 1    
     9    7    9 1    
    10    5   10 ar   
    11   10   11 1    
    12   10   12 ar   
    13   12   13 ar   
    14   13   14 1    
    15   13   15 ar   
    16   15    4 ar   
    17   12   16 1    
    18   16   17 1    
    19   16   18 1    
    20   16   19 1    
    21   19   20 1    
    22   19   21 1    
    23   19   22 1    
    24   22   23 ar   
    25   23   24 1    
    26   23   25 ar   
    27   25   26 1    
    28   25   27 ar   
    29   27   28 ar   
    30   28   29 ar   
    31   29   30 1    
    32   29   22 ar   
    33   28   31 1    
    34   31   32 1    
    35   32   33 1    
    36   32   34 1    
    37   32   35 1    
    38   27   36 1    
    39   36   37 1    
    40   37   38 1    
    41   37   39 1    
    42   37   40 1    
    43    2   41 1    
    44   41   42 1    
    45   41   43 1    
@<TRIPOS>SUBSTRUCTURE
     1 ****        1 TEMP              0 ****  ****    0 ROOT 
@<TRIPOS>SET
UNITY_3DHIT     STATIC     ATOMS    <user>   **** Atoms matching 3D or FLEX Search
0
