#	Name:			28-11
#	Creating user name:	jeff
#	Creation time:		Thu Dec  4 18:13:41 2003

#	Modifying user name:	jeff
#	Modification time:	Thu Dec  4 18:13:41 2003

@<TRIPOS>MOLECULE
28-11
   39    41     1     0     1
SMALL
USER_CHARGES
****
From 3DB ct
@<TRIPOS>ATOM
      1 N          10.154000    2.599000   12.894000 N.ar      1 <1>        -0.681900 
      2 C          10.780000    1.953000   11.913000 C.ar      1 <1>         0.781300 
      3 N          12.042000    2.164000   11.551000 N.ar      1 <1>        -0.699700 
      4 C          12.736000    3.073000   12.218000 C.ar      1 <1>         0.816500 
      5 C          12.187000    3.809000   13.265000 C.ar      1 <1>        -0.726800 
      6 C          10.848000    3.536000   13.552000 C.ar      1 <1>         0.748500 
      7 N          10.169000    4.165000   14.579000 N.pl3     1 <1>        -0.763600 
      8 H          10.337000    5.153000   14.737000 H         1 <1>         0.342700 
      9 H           9.200000    3.880000   14.694000 H         1 <1>         0.328200 
     10 C          13.002000    4.747000   13.941000 C.ar      1 <1>         0.221700 
     11 H          12.601000    5.321000   14.773000 H         1 <1>         0.068000 
     12 C          14.324000    4.934000   13.547000 C.ar      1 <1>        -0.288600 
     13 C          14.772000    4.158000   12.493000 C.ar      1 <1>         0.381900 
     14 H          15.795000    4.242000   12.130000 H         1 <1>         0.070500 
     15 N          14.005000    3.249000   11.838000 N.ar      1 <1>        -0.589300 
     16 C          15.228000    5.909000   14.250000 C.3       1 <1>        -0.059700 
     17 H          15.537000    5.490000   15.217000 H         1 <1>         0.038300 
     18 H          14.659000    6.816000   14.491000 H         1 <1>         0.050300 
     19 C          16.460000    6.255000   13.407000 C.3       1 <1>        -0.068600 
     20 H          16.951000    5.341000   13.048000 H         1 <1>         0.054400 
     21 H          17.210000    6.769000   14.023000 H         1 <1>         0.033600 
     22 C          16.103000    7.121000   12.223000 C.ar      1 <1>        -0.028700 
     23 C          17.049000    7.387000   11.226000 C.ar      1 <1>        -0.155100 
     24 H          18.057000    6.982000   11.303000 H         1 <1>         0.137400 
     25 C          16.716000    8.174000   10.117000 C.ar      1 <1>        -0.202200 
     26 H          17.487000    8.352000    9.373000 H         1 <1>         0.117400 
     27 C          15.432000    8.702000    9.992000 C.ar      1 <1>         0.330700 
     28 C          14.485000    8.436000   10.984000 C.ar      1 <1>        -0.307200 
     29 H          13.478000    8.840000   10.899000 H         1 <1>         0.146400 
     30 C          14.814000    7.649000   12.091000 C.ar      1 <1>        -0.026600 
     31 H          14.055000    7.452000   12.847000 H         1 <1>         0.111700 
     32 O          14.981000    9.482000    8.963000 O.3       1 <1>        -0.301500 
     33 C          15.915000    9.780000    7.927000 C.3       1 <1>         0.035800 
     34 H          15.401000   10.396000    7.182000 H         1 <1>         0.064600 
     35 H          16.254000    8.866000    7.428000 H         1 <1>         0.035000 
     36 H          16.759000   10.360000    8.314000 H         1 <1>         0.031000 
     37 N          10.076000    1.008000   11.231000 N.pl3     1 <1>        -0.786300 
     38 H          10.517000    0.495000   10.482000 H         1 <1>         0.375100 
     39 H           9.115000    0.824000   11.481000 H         1 <1>         0.364800 
@<TRIPOS>BOND
     1    1    2 ar   
     2    2    3 ar   
     3    3    4 ar   
     4    4    5 ar   
     5    5    6 ar   
     6    6    1 ar   
     7    6    7 1    
     8    7    8 1    
     9    7    9 1    
    10    5   10 ar   
    11   10   11 1    
    12   10   12 ar   
    13   12   13 ar   
    14   13   14 1    
    15   13   15 ar   
    16   15    4 ar   
    17   12   16 1    
    18   16   17 1    
    19   16   18 1    
    20   16   19 1    
    21   19   20 1    
    22   19   21 1    
    23   19   22 1    
    24   22   23 ar   
    25   23   24 1    
    26   23   25 ar   
    27   25   26 1    
    28   25   27 ar   
    29   27   28 ar   
    30   28   29 1    
    31   28   30 ar   
    32   30   31 1    
    33   30   22 ar   
    34   27   32 1    
    35   32   33 1    
    36   33   34 1    
    37   33   35 1    
    38   33   36 1    
    39    2   37 1    
    40   37   38 1    
    41   37   39 1    
@<TRIPOS>SUBSTRUCTURE
     1 ****        1 TEMP              0 ****  ****    0 ROOT 
@<TRIPOS>SET
UNITY_3DHIT     STATIC     ATOMS    <user>   **** Atoms matching 3D or FLEX Search
0
