#	Name:			28-3
#	Creating user name:	jeff
#	Creation time:		Thu Dec  4 18:13:41 2003

#	Modifying user name:	jeff
#	Modification time:	Thu Dec  4 18:13:41 2003

@<TRIPOS>MOLECULE
28-3
   49    51     1     0     1
SMALL
USER_CHARGES
****
From 3DB ct
@<TRIPOS>ATOM
      1 N          10.158000    2.643000   12.893000 N.ar      1 <1>        -0.701200 
      2 C          10.761000    1.995000   11.900000 C.ar      1 <1>         0.816100 
      3 N          12.033000    2.163000   11.550000 N.ar      1 <1>        -0.714300 
      4 C          12.755000    3.040000   12.232000 C.ar      1 <1>         0.833900 
      5 C          12.233000    3.771000   13.296000 C.ar      1 <1>        -0.776700 
      6 C          10.895000    3.510000   13.599000 C.ar      1 <1>         0.776000 
      7 N          10.218000    4.180000   14.602000 N.pl3     1 <1>        -0.760800 
      8 H          10.709000    4.388000   15.465000 H         1 <1>         0.333700 
      9 H           9.247000    3.907000   14.725000 H         1 <1>         0.330800 
     10 C          13.075000    4.692000   13.968000 C.ar      1 <1>         0.252400 
     11 H          12.690000    5.275000   14.802000 H         1 <1>         0.082900 
     12 C          14.399000    4.860000   13.564000 C.ar      1 <1>        -0.243900 
     13 C          14.816000    4.077000   12.502000 C.ar      1 <1>         0.373700 
     14 H          15.838000    4.134000   12.129000 H         1 <1>         0.069600 
     15 N          14.024000    3.191000   11.844000 N.ar      1 <1>        -0.584500 
     16 C          15.357000    5.794000   14.264000 C.3       1 <1>        -0.224200 
     17 H          15.895000    5.254000   15.054000 H         1 <1>         0.114300 
     18 H          14.767000    6.548000   14.791000 H         1 <1>         0.124100 
     19 N          16.352000    6.355000   13.333000 N.pl3     1 <1>        -0.084400 
     20 C          16.011000    7.131000   12.230000 C.ar      1 <1>         0.213800 
     21 C          16.946000    7.425000   11.221000 C.ar      1 <1>        -0.381800 
     22 H          17.960000    7.035000   11.269000 H         1 <1>         0.138400 
     23 C          16.608000    8.201000   10.108000 C.ar      1 <1>         0.314000 
     24 C          15.336000    8.758000    9.997000 C.ar      1 <1>        -0.212700 
     25 C          14.370000    8.480000   10.967000 C.ar      1 <1>         0.453100 
     26 C          14.721000    7.681000   12.069000 C.ar      1 <1>        -0.432200 
     27 H          13.981000    7.515000   12.845000 H         1 <1>         0.140200 
     28 O          13.134000    9.040000   10.759000 O.3       1 <1>        -0.308200 
     29 C          12.966000    9.848000    9.598000 C.3       1 <1>         0.059400 
     30 H          11.948000   10.248000    9.616000 H         1 <1>         0.042800 
     31 H          13.072000    9.250000    8.687000 H         1 <1>         0.044100 
     32 H          13.659000   10.695000    9.602000 H         1 <1>         0.046100 
     33 O          15.016000    9.526000    8.903000 O.3       1 <1>        -0.236100 
     34 C          16.149000    9.630000    8.033000 C.3       1 <1>         0.016900 
     35 H          15.853000   10.238000    7.172000 H         1 <1>         0.037700 
     36 H          16.458000    8.647000    7.662000 H         1 <1>         0.049700 
     37 H          16.986000   10.132000    8.531000 H         1 <1>         0.042200 
     38 O          17.580000    8.455000    9.174000 O.3       1 <1>        -0.219900 
     39 C          18.773000    7.734000    9.502000 C.3       1 <1>        -0.031200 
     40 H          19.533000    7.995000    8.759000 H         1 <1>         0.073500 
     41 H          18.609000    6.653000    9.454000 H         1 <1>         0.049700 
     42 H          19.151000    8.021000   10.490000 H         1 <1>         0.052500 
     43 C          17.730000    5.878000   13.505000 C.3       1 <1>        -0.115200 
     44 H          18.451000    6.691000   13.363000 H         1 <1>         0.054800 
     45 H          17.951000    5.067000   12.803000 H         1 <1>         0.064800 
     46 H          17.890000    5.492000   14.519000 H         1 <1>         0.081500 
     47 N          10.028000    1.095000   11.190000 N.pl3     1 <1>        -0.809500 
     48 H          10.459000    0.578000   10.438000 H         1 <1>         0.382000 
     49 H           9.063000    0.927000   11.436000 H         1 <1>         0.371900 
@<TRIPOS>BOND
     1    1    2 ar   
     2    2    3 ar   
     3    3    4 ar   
     4    4    5 ar   
     5    5    6 ar   
     6    6    1 ar   
     7    6    7 1    
     8    7    8 1    
     9    7    9 1    
    10    5   10 ar   
    11   10   11 1    
    12   10   12 ar   
    13   12   13 ar   
    14   13   14 1    
    15   13   15 ar   
    16   15    4 ar   
    17   12   16 1    
    18   16   17 1    
    19   16   18 1    
    20   16   19 1    
    21   19   20 1    
    22   20   21 ar   
    23   21   22 1    
    24   21   23 ar   
    25   23   24 ar   
    26   24   25 ar   
    27   25   26 ar   
    28   26   27 1    
    29   26   20 ar   
    30   25   28 1    
    31   28   29 1    
    32   29   30 1    
    33   29   31 1    
    34   29   32 1    
    35   24   33 1    
    36   33   34 1    
    37   34   35 1    
    38   34   36 1    
    39   34   37 1    
    40   23   38 1    
    41   38   39 1    
    42   39   40 1    
    43   39   41 1    
    44   39   42 1    
    45   19   43 1    
    46   43   44 1    
    47   43   45 1    
    48   43   46 1    
    49    2   47 1    
    50   47   48 1    
    51   47   49 1    
@<TRIPOS>SUBSTRUCTURE
     1 ****        1 TEMP              0 ****  ****    0 ROOT 
@<TRIPOS>SET
UNITY_3DHIT     STATIC     ATOMS    <user>   **** Atoms matching 3D or FLEX Search
0
