#	Name:			28-4
#	Creating user name:	jeff
#	Creation time:		Thu Dec  4 18:13:41 2003

#	Modifying user name:	jeff
#	Modification time:	Thu Dec  4 18:13:41 2003

@<TRIPOS>MOLECULE
28-4
   52    54     1     0     1
SMALL
USER_CHARGES
****
From 3DB ct
@<TRIPOS>ATOM
      1 N          10.160000    2.642000   12.895000 N.ar      1 <1>        -0.699400 
      2 C          10.764000    1.996000   11.900000 C.ar      1 <1>         0.809000 
      3 N          12.037000    2.159000   11.553000 N.ar      1 <1>        -0.706500 
      4 C          12.760000    3.036000   12.234000 C.ar      1 <1>         0.823500 
      5 C          12.233000    3.772000   13.292000 C.ar      1 <1>        -0.767000 
      6 C          10.897000    3.509000   13.599000 C.ar      1 <1>         0.773300 
      7 N          10.224000    4.178000   14.606000 N.pl3     1 <1>        -0.755800 
      8 H          10.718000    4.380000   15.468000 H         1 <1>         0.332100 
      9 H           9.253000    3.904000   14.729000 H         1 <1>         0.328400 
     10 C          13.068000    4.705000   13.954000 C.ar      1 <1>         0.229700 
     11 H          12.681000    5.301000   14.778000 H         1 <1>         0.085000 
     12 C          14.390000    4.876000   13.548000 C.ar      1 <1>        -0.217500 
     13 C          14.818000    4.082000   12.499000 C.ar      1 <1>         0.392000 
     14 H          15.841000    4.142000   12.130000 H         1 <1>         0.069500 
     15 N          14.031000    3.186000   11.850000 N.ar      1 <1>        -0.592400 
     16 C          15.325000    5.840000   14.235000 C.3       1 <1>        -0.235200 
     17 H          15.800000    5.372000   15.107000 H         1 <1>         0.128200 
     18 H          14.692000    6.654000   14.610000 H         1 <1>         0.120000 
     19 N          16.368000    6.347000   13.324000 N.pl3     1 <1>        -0.225300 
     20 C          16.013000    7.131000   12.225000 C.ar      1 <1>         0.243200 
     21 C          16.951000    7.416000   11.221000 C.ar      1 <1>        -0.397100 
     22 H          17.957000    7.004000   11.274000 H         1 <1>         0.168100 
     23 C          16.612000    8.194000   10.113000 C.ar      1 <1>         0.344700 
     24 C          15.339000    8.754000   10.008000 C.ar      1 <1>        -0.253900 
     25 C          14.368000    8.470000   10.976000 C.ar      1 <1>         0.421200 
     26 C          14.717000    7.668000   12.073000 C.ar      1 <1>        -0.387900 
     27 H          13.984000    7.478000   12.851000 H         1 <1>         0.147000 
     28 O          13.133000    9.031000   10.769000 O.3       1 <1>        -0.324300 
     29 C          12.967000    9.841000    9.608000 C.3       1 <1>         0.109800 
     30 H          11.946000   10.233000    9.619000 H         1 <1>         0.027200 
     31 H          13.086000    9.248000    8.695000 H         1 <1>         0.031800 
     32 H          13.653000   10.695000    9.621000 H         1 <1>         0.032600 
     33 O          15.015000    9.528000    8.919000 O.3       1 <1>        -0.189300 
     34 C          16.142000    9.626000    8.041000 C.3       1 <1>        -0.037500 
     35 H          15.867000   10.296000    7.221000 H         1 <1>         0.048000 
     36 H          16.394000    8.650000    7.612000 H         1 <1>         0.069600 
     37 H          17.011000   10.053000    8.554000 H         1 <1>         0.058000 
     38 O          17.578000    8.447000    9.171000 O.3       1 <1>        -0.233500 
     39 C          18.777000    7.736000    9.500000 C.3       1 <1>        -0.053300 
     40 H          19.530000    7.989000    8.748000 H         1 <1>         0.081400 
     41 H          18.616000    6.652000    9.469000 H         1 <1>         0.056200 
     42 H          19.160000    8.037000   10.481000 H         1 <1>         0.053800 
     43 C          17.746000    6.462000   13.841000 C.3       1 <1>         0.114600 
     44 H          17.780000    6.319000   14.926000 H         1 <1>         0.025400 
     45 H          18.135000    7.471000   13.672000 H         1 <1>         0.026400 
     46 C          18.680000    5.467000   13.163000 C.3       1 <1>        -0.097600 
     47 H          19.700000    5.593000   13.538000 H         1 <1>         0.028200 
     48 H          18.696000    5.615000   12.078000 H         1 <1>         0.024200 
     49 H          18.375000    4.434000   13.357000 H         1 <1>         0.026000 
     50 N          10.024000    1.105000   11.185000 N.pl3     1 <1>        -0.805700 
     51 H          10.445000    0.602000   10.418000 H         1 <1>         0.379700 
     52 H           9.050000    0.967000   11.414000 H         1 <1>         0.371400 
@<TRIPOS>BOND
     1    1    2 ar   
     2    2    3 ar   
     3    3    4 ar   
     4    4    5 ar   
     5    5    6 ar   
     6    6    1 ar   
     7    6    7 1    
     8    7    8 1    
     9    7    9 1    
    10    5   10 ar   
    11   10   11 1    
    12   10   12 ar   
    13   12   13 ar   
    14   13   14 1    
    15   13   15 ar   
    16   15    4 ar   
    17   12   16 1    
    18   16   17 1    
    19   16   18 1    
    20   16   19 1    
    21   19   20 1    
    22   20   21 ar   
    23   21   22 1    
    24   21   23 ar   
    25   23   24 ar   
    26   24   25 ar   
    27   25   26 ar   
    28   26   27 1    
    29   26   20 ar   
    30   25   28 1    
    31   28   29 1    
    32   29   30 1    
    33   29   31 1    
    34   29   32 1    
    35   24   33 1    
    36   33   34 1    
    37   34   35 1    
    38   34   36 1    
    39   34   37 1    
    40   23   38 1    
    41   38   39 1    
    42   39   40 1    
    43   39   41 1    
    44   39   42 1    
    45   19   43 1    
    46   43   44 1    
    47   43   45 1    
    48   43   46 1    
    49   46   47 1    
    50   46   48 1    
    51   46   49 1    
    52    2   50 1    
    53   50   51 1    
    54   50   52 1    
@<TRIPOS>SUBSTRUCTURE
     1 ****        1 TEMP              0 ****  ****    0 ROOT 
@<TRIPOS>SET
UNITY_3DHIT     STATIC     ATOMS    <user>   **** Atoms matching 3D or FLEX Search
0
