#	Name:			28-5
#	Creating user name:	jeff
#	Creation time:		Thu Dec  4 18:13:41 2003

#	Modifying user name:	jeff
#	Modification time:	Thu Dec  4 18:13:41 2003

@<TRIPOS>MOLECULE
28-5
   48    50     1     0     1
SMALL
USER_CHARGES
****
From 3DB ct
@<TRIPOS>ATOM
      1 N          10.163000    2.636000   12.907000 N.ar      1 <1>        -0.705500 
      2 C          10.762000    1.983000   11.915000 C.ar      1 <1>         0.812600 
      3 N          12.024000    2.168000   11.538000 N.ar      1 <1>        -0.712500 
      4 C          12.749000    3.051000   12.208000 C.ar      1 <1>         0.845300 
      5 C          12.232000    3.785000   13.272000 C.ar      1 <1>        -0.803900 
      6 C          10.888000    3.548000   13.566000 C.ar      1 <1>         0.804700 
      7 N          10.233000    4.191000   14.602000 N.pl3     1 <1>        -0.779900 
      8 H          10.425000    5.175000   14.758000 H         1 <1>         0.343300 
      9 H           9.257000    3.932000   14.719000 H         1 <1>         0.332500 
     10 C          13.083000    4.686000   13.958000 C.ar      1 <1>         0.252000 
     11 H          12.701000    5.256000   14.803000 H         1 <1>         0.084900 
     12 C          14.411000    4.838000   13.564000 C.ar      1 <1>        -0.150200 
     13 C          14.817000    4.081000   12.479000 C.ar      1 <1>         0.315500 
     14 H          15.833000    4.149000   12.093000 H         1 <1>         0.095400 
     15 N          14.018000    3.205000   11.817000 N.ar      1 <1>        -0.576500 
     16 C          15.341000    5.799000   14.265000 C.3       1 <1>        -0.406800 
     17 H          15.864000    5.271000   15.075000 H         1 <1>         0.151900 
     18 H          14.742000    6.565000   14.758000 H         1 <1>         0.173300 
     19 N          16.367000    6.345000   13.366000 N.am      1 <1>        -0.121000 
     20 C          16.010000    7.156000   12.230000 C.ar      1 <1>         0.200100 
     21 C          16.949000    7.443000   11.226000 C.ar      1 <1>        -0.366500 
     22 H          17.957000    7.038000   11.265000 H         1 <1>         0.193000 
     23 C          16.610000    8.204000   10.101000 C.ar      1 <1>         0.294600 
     24 C          15.332000    8.755000    9.995000 C.ar      1 <1>        -0.153800 
     25 C          14.364000    8.473000   10.967000 C.ar      1 <1>         0.399200 
     26 C          14.711000    7.676000   12.070000 C.ar      1 <1>        -0.382800 
     27 H          13.966000    7.509000   12.838000 H         1 <1>         0.133000 
     28 O          13.128000    9.034000   10.760000 O.3       1 <1>        -0.298700 
     29 C          12.960000    9.849000    9.601000 C.3       1 <1>         0.031600 
     30 H          11.933000   10.226000    9.607000 H         1 <1>         0.049900 
     31 H          13.093000    9.261000    8.687000 H         1 <1>         0.049600 
     32 H          13.635000   10.710000    9.625000 H         1 <1>         0.054400 
     33 O          14.997000    9.546000    8.923000 O.3       1 <1>        -0.246600 
     34 C          16.109000    9.645000    8.026000 C.3       1 <1>         0.056700 
     35 H          15.829000   10.331000    7.221000 H         1 <1>         0.031600 
     36 H          16.340000    8.673000    7.577000 H         1 <1>         0.039600 
     37 H          16.993000   10.053000    8.527000 H         1 <1>         0.035300 
     38 O          17.611000    8.411000    9.187000 O.3       1 <1>        -0.227300 
     39 C          18.813000    7.710000    9.520000 C.3       1 <1>        -0.038500 
     40 H          19.650000    8.258000    9.075000 H         1 <1>         0.076000 
     41 H          18.805000    6.707000    9.084000 H         1 <1>         0.059700 
     42 H          18.981000    7.660000   10.603000 H         1 <1>         0.057500 
     43 C          17.690000    6.021000   13.680000 C.2       1 <1>         0.412300 
     44 H          17.753000    5.315000   14.527000 H         1 <1>         0.052200 
     45 O          18.724000    6.434000   13.159000 O.2       1 <1>        -0.419300 
     46 N          10.030000    1.058000   11.236000 N.pl3     1 <1>        -0.798500 
     47 H          10.456000    0.530000   10.489000 H         1 <1>         0.379600 
     48 H           9.079000    0.870000   11.518000 H         1 <1>         0.371100 
@<TRIPOS>BOND
     1    1    2 ar   
     2    2    3 ar   
     3    3    4 ar   
     4    4    5 ar   
     5    5    6 ar   
     6    6    1 ar   
     7    6    7 1    
     8    7    8 1    
     9    7    9 1    
    10    5   10 ar   
    11   10   11 1    
    12   10   12 ar   
    13   12   13 ar   
    14   13   14 1    
    15   13   15 ar   
    16   15    4 ar   
    17   12   16 1    
    18   16   17 1    
    19   16   18 1    
    20   16   19 1    
    21   19   20 1    
    22   20   21 ar   
    23   21   22 1    
    24   21   23 ar   
    25   23   24 ar   
    26   24   25 ar   
    27   25   26 ar   
    28   26   27 1    
    29   26   20 ar   
    30   25   28 1    
    31   28   29 1    
    32   29   30 1    
    33   29   31 1    
    34   29   32 1    
    35   24   33 1    
    36   33   34 1    
    37   34   35 1    
    38   34   36 1    
    39   34   37 1    
    40   23   38 1    
    41   38   39 1    
    42   39   40 1    
    43   39   41 1    
    44   39   42 1    
    45   19   43 am   
    46   43   44 1    
    47   43   45 2    
    48    2   46 1    
    49   46   47 1    
    50   46   48 1    
@<TRIPOS>SUBSTRUCTURE
     1 ****        1 TEMP              0 ****  ****    0 ROOT 
@<TRIPOS>SET
UNITY_3DHIT     STATIC     ATOMS    <user>   **** Atoms matching 3D or FLEX Search
0
