#	Name:			28-6
#	Creating user name:	jeff
#	Creation time:		Thu Dec  4 18:13:41 2003

#	Modifying user name:	jeff
#	Modification time:	Thu Dec  4 18:13:41 2003

@<TRIPOS>MOLECULE
28-6
   45    47     1     0     1
SMALL
USER_CHARGES
****
From 3DB ct
@<TRIPOS>ATOM
      1 C          12.312000    3.689000   13.111000 C.ar      1 <1>        -0.756700 
      2 C          10.957000    3.523000   13.538000 C.ar      1 <1>         0.761300 
      3 N          10.134000    2.653000   12.943000 N.ar      1 <1>        -0.692400 
      4 C          10.593000    1.875000   11.965000 C.ar      1 <1>         0.806800 
      5 N          11.869000    1.879000   11.587000 N.ar      1 <1>        -0.720000 
      6 C          12.781000    2.757000   12.212000 C.ar      1 <1>         0.836400 
      7 N          14.065000    2.646000   11.818000 N.ar      1 <1>        -0.567800 
      8 C          14.973000    3.493000   12.319000 C.ar      1 <1>         0.315400 
      9 H          15.883000    3.446000   12.049000 H         1 <1>         0.088100 
     10 C          14.536000    4.537000   13.328000 C.ar      1 <1>        -0.176500 
     11 C          13.256000    4.714000   13.595000 C.ar      1 <1>         0.217900 
     12 H          12.933000    5.466000   14.079000 H         1 <1>         0.089200 
     13 C          15.703000    5.316000   13.959000 C.2       1 <1>        -0.222200 
     14 H          16.109000    4.999000   14.758000 H         1 <1>         0.117400 
     15 C          16.241000    6.471000   13.466000 C.2       1 <1>        -0.026700 
     16 H          17.000000    6.859000   13.886000 H         1 <1>         0.082200 
     17 C          15.852000    7.350000   12.283000 C.ar      1 <1>         0.098800 
     18 C          14.557000    7.807000   12.069000 C.ar      1 <1>        -0.347600 
     19 H          13.864000    7.571000   12.675000 H         1 <1>         0.164800 
     20 C          14.276000    8.600000   10.985000 C.ar      1 <1>         0.388100 
     21 C          15.299000    8.934000   10.093000 C.ar      1 <1>        -0.117000 
     22 C          16.596000    8.490000   10.283000 C.ar      1 <1>         0.251300 
     23 C          16.854000    7.698000   11.386000 C.ar      1 <1>        -0.292600 
     24 H          17.742000    7.390000   11.522000 H         1 <1>         0.142000 
     25 O          17.605000    8.843000    9.391000 O.3       1 <1>        -0.211700 
     26 C          18.906000    8.328000    9.684000 C.3       1 <1>        -0.024100 
     27 H          19.584000    8.704000    8.907000 H         1 <1>         0.072600 
     28 H          19.257000    8.672000   10.669000 H         1 <1>         0.048100 
     29 H          18.913000    7.228000    9.670000 H         1 <1>         0.051400 
     30 O          15.029000    9.839000    9.043000 O.3       1 <1>        -0.278300 
     31 C          16.244000    9.973000    8.324000 C.3       1 <1>         0.118800 
     32 H          17.035000    9.637000    9.033000 H         1 <1>         0.015100 
     33 H          16.258000    9.324000    7.434000 H         1 <1>         0.010200 
     34 H          16.410000   11.020000    8.033000 H         1 <1>         0.038100 
     35 O          12.903000    8.720000   10.561000 O.3       1 <1>        -0.327000 
     36 C          12.609000    9.543000    9.434000 C.3       1 <1>         0.087700 
     37 H          13.428000    9.552000    8.701000 H         1 <1>         0.035600 
     38 H          11.711000    9.128000    8.953000 H         1 <1>         0.034500 
     39 H          12.396000   10.579000    9.741000 H         1 <1>         0.036600 
     40 N           9.762000    1.058000   11.342000 N.pl3     1 <1>        -0.801000 
     41 H           8.894000    1.031000   11.581000 H         1 <1>         0.369200 
     42 H          10.063000    0.528000   10.680000 H         1 <1>         0.379600 
     43 N          10.397000    4.214000   14.510000 N.pl3     1 <1>        -0.759900 
     44 H          10.873000    4.837000   14.951000 H         1 <1>         0.334600 
     45 H           9.538000    4.063000   14.732000 H         1 <1>         0.329700 
@<TRIPOS>BOND
     1    1    2 ar   
     2    2    3 ar   
     3    3    4 ar   
     4    4    5 ar   
     5    5    6 ar   
     6    6    1 ar   
     7    6    7 ar   
     8    7    8 ar   
     9    8    9 1    
    10    8   10 ar   
    11   10   11 ar   
    12   11   12 1    
    13   11    1 ar   
    14   10   13 1    
    15   13   14 1    
    16   13   15 2    
    17   15   16 1    
    18   15   17 1    
    19   17   18 ar   
    20   18   19 1    
    21   18   20 ar   
    22   20   21 ar   
    23   21   22 ar   
    24   22   23 ar   
    25   23   24 1    
    26   23   17 ar   
    27   22   25 1    
    28   25   26 1    
    29   26   27 1    
    30   26   28 1    
    31   26   29 1    
    32   21   30 1    
    33   30   31 1    
    34   31   32 1    
    35   31   33 1    
    36   31   34 1    
    37   20   35 1    
    38   35   36 1    
    39   36   37 1    
    40   36   38 1    
    41   36   39 1    
    42    4   40 1    
    43   40   41 1    
    44   40   42 1    
    45    2   43 1    
    46   43   44 1    
    47   43   45 1    
@<TRIPOS>SUBSTRUCTURE
     1 ****        1 TEMP              0 ****  ****    0 ROOT 
@<TRIPOS>SET
UNITY_3DHIT     STATIC     ATOMS    <user>   **** Atoms matching 3D or FLEX Search
0
@<TRIPOS>UNITY_BOND_ATTR
16 1
S N
