#	Name:			28-7
#	Creating user name:	jeff
#	Creation time:		Thu Dec  4 18:13:41 2003

#	Modifying user name:	jeff
#	Modification time:	Thu Dec  4 18:13:41 2003

@<TRIPOS>MOLECULE
28-7
   41    43     1     0     1
SMALL
USER_CHARGES
****
From 3DB ct
@<TRIPOS>ATOM
      1 C          12.312000    3.689000   13.111000 C.ar      1 <1>        -0.761600 
      2 C          10.957000    3.523000   13.538000 C.ar      1 <1>         0.762700 
      3 N          10.134000    2.653000   12.943000 N.ar      1 <1>        -0.691900 
      4 C          10.593000    1.875000   11.965000 C.ar      1 <1>         0.803100 
      5 N          11.869000    1.879000   11.587000 N.ar      1 <1>        -0.713200 
      6 C          12.781000    2.757000   12.212000 C.ar      1 <1>         0.836600 
      7 N          14.065000    2.646000   11.818000 N.ar      1 <1>        -0.579300 
      8 C          14.973000    3.493000   12.319000 C.ar      1 <1>         0.347900 
      9 H          15.883000    3.446000   12.049000 H         1 <1>         0.083800 
     10 C          14.536000    4.537000   13.328000 C.ar      1 <1>        -0.215600 
     11 C          13.256000    4.714000   13.595000 C.ar      1 <1>         0.228300 
     12 H          12.933000    5.466000   14.079000 H         1 <1>         0.084000 
     13 C          15.703000    5.316000   13.959000 C.2       1 <1>        -0.185700 
     14 H          16.109000    4.999000   14.758000 H         1 <1>         0.111800 
     15 C          16.241000    6.471000   13.466000 C.2       1 <1>        -0.071300 
     16 H          17.000000    6.859000   13.886000 H         1 <1>         0.092300 
     17 C          15.852000    7.350000   12.283000 C.ar      1 <1>        -0.007600 
     18 C          14.557000    7.807000   12.069000 C.ar      1 <1>        -0.111000 
     19 H          13.864000    7.571000   12.675000 H         1 <1>         0.124800 
     20 C          14.276000    8.600000   10.985000 C.ar      1 <1>        -0.172900 
     21 H          13.392000    8.918000   10.845000 H         1 <1>         0.137100 
     22 C          15.299000    8.934000   10.093000 C.ar      1 <1>         0.175300 
     23 C          16.596000    8.490000   10.283000 C.ar      1 <1>         0.099200 
     24 C          16.854000    7.698000   11.386000 C.ar      1 <1>        -0.172500 
     25 H          17.742000    7.390000   11.522000 H         1 <1>         0.129500 
     26 O          17.605000    8.843000    9.391000 O.3       1 <1>        -0.194600 
     27 C          18.906000    8.328000    9.684000 C.3       1 <1>        -0.085000 
     28 H          19.584000    8.704000    8.907000 H         1 <1>         0.084200 
     29 H          19.257000    8.672000   10.669000 H         1 <1>         0.059700 
     30 H          18.913000    7.228000    9.670000 H         1 <1>         0.072400 
     31 O          15.029000    9.839000    9.043000 O.3       1 <1>        -0.297300 
     32 C          16.244000    9.973000    8.324000 C.3       1 <1>         0.112100 
     33 H          17.035000    9.637000    9.033000 H         1 <1>         0.016700 
     34 H          16.258000    9.324000    7.434000 H         1 <1>         0.014200 
     35 H          16.410000   11.020000    8.033000 H         1 <1>         0.033800 
     36 N           9.762000    1.058000   11.342000 N.pl3     1 <1>        -0.802700 
     37 H           8.894000    1.031000   11.581000 H         1 <1>         0.370000 
     38 H          10.063000    0.528000   10.680000 H         1 <1>         0.380000 
     39 N          10.397000    4.214000   14.510000 N.pl3     1 <1>        -0.762000 
     40 H          10.873000    4.837000   14.951000 H         1 <1>         0.335900 
     41 H           9.538000    4.063000   14.732000 H         1 <1>         0.329000 
@<TRIPOS>BOND
     1    1    2 ar   
     2    2    3 ar   
     3    3    4 ar   
     4    4    5 ar   
     5    5    6 ar   
     6    6    1 ar   
     7    6    7 ar   
     8    7    8 ar   
     9    8    9 1    
    10    8   10 ar   
    11   10   11 ar   
    12   11   12 1    
    13   11    1 ar   
    14   10   13 1    
    15   13   14 1    
    16   13   15 2    
    17   15   16 1    
    18   15   17 1    
    19   17   18 ar   
    20   18   19 1    
    21   18   20 ar   
    22   20   21 1    
    23   20   22 ar   
    24   22   23 ar   
    25   23   24 ar   
    26   24   25 1    
    27   24   17 ar   
    28   23   26 1    
    29   26   27 1    
    30   27   28 1    
    31   27   29 1    
    32   27   30 1    
    33   22   31 1    
    34   31   32 1    
    35   32   33 1    
    36   32   34 1    
    37   32   35 1    
    38    4   36 1    
    39   36   37 1    
    40   36   38 1    
    41    2   39 1    
    42   39   40 1    
    43   39   41 1    
@<TRIPOS>SUBSTRUCTURE
     1 ****        1 TEMP              0 ****  ****    0 ROOT 
@<TRIPOS>SET
UNITY_3DHIT     STATIC     ATOMS    <user>   **** Atoms matching 3D or FLEX Search
0
@<TRIPOS>UNITY_BOND_ATTR
16 1
S N
