#	Name:			28-9
#	Creating user name:	jeff
#	Creation time:		Thu Dec  4 18:13:41 2003

#	Modifying user name:	jeff
#	Modification time:	Thu Dec  4 18:13:41 2003

@<TRIPOS>MOLECULE
28-9
   47    49     1     0     1
SMALL
USER_CHARGES
****
From 3DB ct
@<TRIPOS>ATOM
      1 N          10.163000    2.610000   12.905000 N.ar      1 <1>        -0.686200 
      2 C          10.777000    1.956000   11.921000 C.ar      1 <1>         0.788400 
      3 N          12.035000    2.165000   11.544000 N.ar      1 <1>        -0.705000 
      4 C          12.740000    3.072000   12.203000 C.ar      1 <1>         0.826700 
      5 C          12.201000    3.814000   13.251000 C.ar      1 <1>        -0.744200 
      6 C          10.865000    3.547000   13.551000 C.ar      1 <1>         0.756500 
      7 N          10.197000    4.179000   14.584000 N.pl3     1 <1>        -0.763100 
      8 H          10.368000    5.167000   14.741000 H         1 <1>         0.343100 
      9 H           9.229000    3.893000   14.706000 H         1 <1>         0.327800 
     10 C          13.026000    4.748000   13.921000 C.ar      1 <1>         0.233600 
     11 H          12.630000    5.328000   14.753000 H         1 <1>         0.068500 
     12 C          14.349000    4.919000   13.532000 C.ar      1 <1>        -0.263500 
     13 C          14.784000    4.143000   12.471000 C.ar      1 <1>         0.359400 
     14 H          15.806000    4.219000   12.104000 H         1 <1>         0.082700 
     15 N          14.008000    3.240000   11.819000 N.ar      1 <1>        -0.588900 
     16 C          15.260000    5.888000   14.233000 C.3       1 <1>        -0.150100 
     17 H          15.601000    5.450000   15.181000 H         1 <1>         0.053500 
     18 H          14.682000    6.779000   14.509000 H         1 <1>         0.076000 
     19 C          16.472000    6.276000   13.379000 C.3       1 <1>         0.035600 
     20 H          16.980000    5.380000   12.999000 H         1 <1>         0.025800 
     21 H          17.218000    6.800000   13.991000 H         1 <1>         0.024800 
     22 C          16.075000    7.144000   12.206000 C.ar      1 <1>         0.073600 
     23 C          17.007000    7.426000   11.199000 C.ar      1 <1>        -0.361100 
     24 H          18.022000    7.038000   11.264000 H         1 <1>         0.151300 
     25 C          16.634000    8.194000   10.101000 C.ar      1 <1>         0.323300 
     26 C          15.346000    8.735000   10.022000 C.ar      1 <1>        -0.145700 
     27 C          14.393000    8.450000   11.012000 C.ar      1 <1>         0.296300 
     28 C          14.766000    7.654000   12.101000 C.ar      1 <1>        -0.275900 
     29 H          14.055000    7.410000   12.888000 H         1 <1>         0.143200 
     30 O          13.148000    8.990000   10.813000 O.3       1 <1>        -0.295600 
     31 C          12.965000    9.810000    9.661000 C.3       1 <1>         0.069100 
     32 H          11.926000   10.155000    9.662000 H         1 <1>         0.034000 
     33 H          13.127000    9.237000    8.742000 H         1 <1>         0.042300 
     34 H          13.609000   10.695000    9.699000 H         1 <1>         0.042900 
     35 O          14.995000    9.495000    8.931000 O.3       1 <1>        -0.204700 
     36 C          16.120000    9.630000    8.056000 C.3       1 <1>        -0.025000 
     37 H          15.803000   10.229000    7.196000 H         1 <1>         0.053100 
     38 H          16.456000    8.657000    7.685000 H         1 <1>         0.060600 
     39 H          16.943000   10.154000    8.552000 H         1 <1>         0.055600 
     40 O          17.572000    8.460000    9.136000 O.3       1 <1>        -0.237100 
     41 C          18.789000    7.770000    9.444000 C.3       1 <1>        -0.050500 
     42 H          19.507000    7.992000    8.650000 H         1 <1>         0.081200 
     43 H          18.636000    6.686000    9.471000 H         1 <1>         0.058600 
     44 H          19.210000    8.121000   10.392000 H         1 <1>         0.057800 
     45 N          10.064000    1.004000   11.260000 N.pl3     1 <1>        -0.792100 
     46 H          10.492000    0.479000   10.514000 H         1 <1>         0.376900 
     47 H           9.113000    0.816000   11.539000 H         1 <1>         0.366600 
@<TRIPOS>BOND
     1    1    2 ar   
     2    2    3 ar   
     3    3    4 ar   
     4    4    5 ar   
     5    5    6 ar   
     6    6    1 ar   
     7    6    7 1    
     8    7    8 1    
     9    7    9 1    
    10    5   10 ar   
    11   10   11 1    
    12   10   12 ar   
    13   12   13 ar   
    14   13   14 1    
    15   13   15 ar   
    16   15    4 ar   
    17   12   16 1    
    18   16   17 1    
    19   16   18 1    
    20   16   19 1    
    21   19   20 1    
    22   19   21 1    
    23   19   22 1    
    24   22   23 ar   
    25   23   24 1    
    26   23   25 ar   
    27   25   26 ar   
    28   26   27 ar   
    29   27   28 ar   
    30   28   29 1    
    31   28   22 ar   
    32   27   30 1    
    33   30   31 1    
    34   31   32 1    
    35   31   33 1    
    36   31   34 1    
    37   26   35 1    
    38   35   36 1    
    39   36   37 1    
    40   36   38 1    
    41   36   39 1    
    42   25   40 1    
    43   40   41 1    
    44   41   42 1    
    45   41   43 1    
    46   41   44 1    
    47    2   45 1    
    48   45   46 1    
    49   45   47 1    
@<TRIPOS>SUBSTRUCTURE
     1 ****        1 TEMP              0 ****  ****    0 ROOT 
@<TRIPOS>SET
UNITY_3DHIT     STATIC     ATOMS    <user>   **** Atoms matching 3D or FLEX Search
0
