#	Name:			29-2-piritrexim
#	Creating user name:	jeff
#	Creation time:		Thu Dec  4 18:13:41 2003

#	Modifying user name:	jeff
#	Modification time:	Thu Dec  4 18:13:42 2003

@<TRIPOS>MOLECULE
29-2-piritrexim
   43    45     1     0     1
SMALL
USER_CHARGES
****
From 3DB ct
@<TRIPOS>ATOM
      1 N          11.960000    1.897000   11.567000 N.ar      1 <1>        -0.712200 
      2 C          10.750000    1.950000   12.083000 C.ar      1 <1>         0.819800 
      3 N           9.827000    1.040000   11.723000 N.pl3     1 <1>        -0.818900 
      4 H          10.038000    0.396000   11.130000 H         1 <1>         0.379800 
      5 H           9.000000    1.074000   12.074000 H         1 <1>         0.375100 
      6 N          10.309000    2.827000   12.972000 N.ar      1 <1>        -0.718600 
      7 C          11.097000    3.775000   13.414000 C.ar      1 <1>         0.819100 
      8 N          10.584000    4.647000   14.324000 N.pl3     1 <1>        -0.751200 
      9 H           9.732000    4.560000   14.600000 H         1 <1>         0.319700 
     10 H          11.097000    5.311000   14.650000 H         1 <1>         0.321700 
     11 C          12.450000    3.880000   12.931000 C.ar      1 <1>        -0.865400 
     12 C          13.397000    4.845000   13.285000 C.ar      1 <1>         0.482700 
     13 C          13.071000    5.956000   14.250000 C.3       1 <1>        -0.230400 
     14 H          13.834000    6.509000   14.367000 H         1 <1>         0.056000 
     15 H          12.354000    6.475000   13.906000 H         1 <1>         0.069900 
     16 H          12.819000    5.584000   15.088000 H         1 <1>         0.069600 
     17 C          14.640000    4.767000   12.714000 C.ar      1 <1>        -0.353300 
     18 C          14.907000    3.756000   11.781000 C.ar      1 <1>         0.350900 
     19 H          15.768000    3.692000   11.383000 H         1 <1>         0.084500 
     20 N          14.023000    2.845000   11.394000 N.ar      1 <1>        -0.572600 
     21 C          12.814000    2.876000   11.984000 C.ar      1 <1>         0.826000 
     22 C          15.683000    5.836000   13.019000 C.3       1 <1>        -0.035700 
     23 H          15.545000    6.172000   13.897000 H         1 <1>         0.069700 
     24 H          16.546000    5.441000   12.976000 H         1 <1>         0.046200 
     25 C          15.640000    7.003000   12.083000 C.ar      1 <1>        -0.097100 
     26 C          16.800000    7.457000   11.480000 C.ar      1 <1>         0.232100 
     27 O          17.922000    6.758000   11.870000 O.3       1 <1>        -0.225000 
     28 C          19.199000    7.086000   11.359000 C.3       1 <1>        -0.030400 
     29 H          19.850000    6.504000   11.734000 H         1 <1>         0.073000 
     30 H          19.196000    6.989000   10.414000 H         1 <1>         0.054800 
     31 H          19.410000    7.984000   11.584000 H         1 <1>         0.046800 
     32 C          16.711000    8.519000   10.594000 C.ar      1 <1>        -0.232000 
     33 H          17.491000    8.840000   10.158000 H         1 <1>         0.137300 
     34 C          15.485000    9.128000   10.332000 C.ar      1 <1>        -0.183600 
     35 H          15.434000    9.848000    9.714000 H         1 <1>         0.126000 
     36 C          14.373000    8.659000   10.984000 C.ar      1 <1>         0.256000 
     37 O          13.034000    9.120000   10.868000 O.3       1 <1>        -0.302900 
     38 C          13.076000   10.215000    9.938000 C.3       1 <1>         0.073900 
     39 H          12.201000   10.565000    9.820000 H         1 <1>         0.053100 
     40 H          13.647000   10.895000   10.275000 H         1 <1>         0.023400 
     41 H          13.409000    9.908000    9.102000 H         1 <1>         0.025800 
     42 C          14.437000    7.605000   11.859000 C.ar      1 <1>        -0.200500 
     43 H          13.659000    7.293000   12.306000 H         1 <1>         0.137000 
@<TRIPOS>BOND
     1    1    2 ar   
     2    2    3 1    
     3    3    4 1    
     4    3    5 1    
     5    2    6 ar   
     6    6    7 ar   
     7    7    8 1    
     8    8    9 1    
     9    8   10 1    
    10    7   11 ar   
    11   11   12 ar   
    12   12   13 1    
    13   13   14 1    
    14   13   15 1    
    15   13   16 1    
    16   12   17 ar   
    17   17   18 ar   
    18   18   19 1    
    19   18   20 ar   
    20   20   21 ar   
    21   21    1 ar   
    22   21   11 ar   
    23   17   22 1    
    24   22   23 1    
    25   22   24 1    
    26   22   25 1    
    27   25   26 ar   
    28   26   27 1    
    29   27   28 1    
    30   28   29 1    
    31   28   30 1    
    32   28   31 1    
    33   26   32 ar   
    34   32   33 1    
    35   32   34 ar   
    36   34   35 1    
    37   34   36 ar   
    38   36   37 1    
    39   37   38 1    
    40   38   39 1    
    41   38   40 1    
    42   38   41 1    
    43   36   42 ar   
    44   42   43 1    
    45   42   25 ar   
@<TRIPOS>SUBSTRUCTURE
     1 ****        1 TEMP              0 ****  ****    0 ROOT 
@<TRIPOS>SET
UNITY_3DHIT     STATIC     ATOMS    <user>   **** Atoms matching 3D or FLEX Search
0
