#	Name:			30-3
#	Creating user name:	jeff
#	Creation time:		Thu Dec  4 18:13:42 2003

#	Modifying user name:	jeff
#	Modification time:	Thu Dec  4 18:13:42 2003

@<TRIPOS>MOLECULE
30-3
   45    48     1     0     1
SMALL
USER_CHARGES
****
From 3DB ct
@<TRIPOS>ATOM
      1 C          10.699000    2.119000   11.823000 C.ar      1 <1>         0.832600 
      2 N          11.982000    2.188000   11.366000 N.ar      1 <1>        -0.715600 
      3 C          12.927000    2.933000   12.019000 C.ar      1 <1>         0.840300 
      4 C          12.573000    3.693000   13.194000 C.ar      1 <1>        -0.903500 
      5 C          11.223000    3.606000   13.645000 C.ar      1 <1>         0.837000 
      6 N          10.334000    2.828000   12.936000 N.ar      1 <1>        -0.727600 
      7 N          10.814000    4.277000   14.743000 N.pl3     1 <1>        -0.753800 
      8 H          11.396000    4.788000   15.200000 H         1 <1>         0.322700 
      9 H           9.959000    4.214000   15.017000 H         1 <1>         0.320600 
     10 C          13.552000    4.439000   13.855000 C.ar      1 <1>         0.535700 
     11 C          14.841000    4.468000   13.379000 C.ar      1 <1>        -0.400600 
     12 C          15.168000    3.713000   12.196000 C.ar      1 <1>         0.362900 
     13 H          16.055000    3.723000   11.857000 H         1 <1>         0.077300 
     14 N          14.211000    2.980000   11.553000 N.ar      1 <1>        -0.573300 
     15 C          15.988000    5.264000   14.113000 C.3       1 <1>        -0.033300 
     16 H          15.607000    5.964000   14.630000 H         1 <1>         0.061700 
     17 H          16.444000    4.669000   14.697000 H         1 <1>         0.076800 
     18 N          17.027000    5.921000   13.170000 N.pl3     1 <1>        -0.090800 
     19 C          16.477000    6.947000   12.215000 C.ar      1 <1>        -0.083000 
     20 C          17.299000    7.447000   11.098000 C.ar      1 <1>         0.023700 
     21 C          16.644000    8.199000   10.057000 C.ar      1 <1>        -0.248500 
     22 H          17.216000    8.505000    9.182000 H         1 <1>         0.136100 
     23 C          15.268000    8.550000   10.143000 C.ar      1 <1>         0.286500 
     24 C          14.493000    8.138000   11.262000 C.ar      1 <1>        -0.267400 
     25 H          13.586000    8.411000   11.338000 H         1 <1>         0.147300 
     26 C          15.078000    7.322000   12.258000 C.ar      1 <1>        -0.030700 
     27 H          14.550000    7.003000   12.981000 H         1 <1>         0.092900 
     28 O          14.715000    9.251000    9.198000 O.3       1 <1>        -0.300000 
     29 C          15.461000    9.680000    8.065000 C.3       1 <1>         0.026300 
     30 H          16.490000    9.326000    8.137000 H         1 <1>         0.036000 
     31 H          15.004000    9.280000    7.160000 H         1 <1>         0.036100 
     32 H          15.456000   10.769000    8.021000 H         1 <1>         0.063900 
     33 C          18.584000    6.676000   11.409000 C.3       1 <1>        -0.127000 
     34 H          19.101000    6.281000   10.521000 H         1 <1>         0.060300 
     35 H          19.308000    7.347000   11.902000 H         1 <1>         0.067800 
     36 C          18.148000    5.470000   12.363000 C.3       1 <1>         0.079300 
     37 H          18.985000    5.112000   12.986000 H         1 <1>         0.006500 
     38 H          17.893000    4.609000   11.716000 H         1 <1>         0.028200 
     39 C          13.240000    5.150000   15.172000 C.3       1 <1>        -0.254800 
     40 H          12.831000    4.449000   15.919000 H         1 <1>         0.076800 
     41 H          14.113000    5.554000   15.692000 H         1 <1>         0.064500 
     42 H          12.562000    6.006000   15.026000 H         1 <1>         0.072800 
     43 N           9.803000    1.347000   11.173000 N.pl3     1 <1>        -0.821600 
     44 H          10.055000    0.882000   10.445000 H         1 <1>         0.381700 
     45 H           8.955000    1.296000   11.469000 H         1 <1>         0.377200 
@<TRIPOS>BOND
     1    1    2 ar   
     2    2    3 ar   
     3    3    4 ar   
     4    4    5 ar   
     5    5    6 ar   
     6    6    1 ar   
     7    5    7 1    
     8    7    8 1    
     9    7    9 1    
    10    4   10 ar   
    11   10   11 ar   
    12   11   12 ar   
    13   12   13 1    
    14   12   14 ar   
    15   14    3 ar   
    16   11   15 1    
    17   15   16 1    
    18   15   17 1    
    19   15   18 1    
    20   18   19 1    
    21   19   20 ar   
    22   20   21 ar   
    23   21   22 1    
    24   21   23 ar   
    25   23   24 ar   
    26   24   25 1    
    27   24   26 ar   
    28   26   27 1    
    29   26   19 ar   
    30   23   28 1    
    31   28   29 1    
    32   29   30 1    
    33   29   31 1    
    34   29   32 1    
    35   20   33 1    
    36   33   34 1    
    37   33   35 1    
    38   33   36 1    
    39   36   37 1    
    40   36   38 1    
    41   36   18 1    
    42   10   39 1    
    43   39   40 1    
    44   39   41 1    
    45   39   42 1    
    46    1   43 1    
    47   43   44 1    
    48   43   45 1    
@<TRIPOS>SUBSTRUCTURE
     1 ****        1 TEMP              0 ****  ****    0 ROOT 
@<TRIPOS>SET
UNITY_3DHIT     STATIC     ATOMS    <user>   **** Atoms matching 3D or FLEX Search
0
