#	Name:			30-4
#	Creating user name:	jeff
#	Creation time:		Thu Dec  4 18:13:42 2003

#	Modifying user name:	jeff
#	Modification time:	Thu Dec  4 18:13:42 2003

@<TRIPOS>MOLECULE
30-4
   49    52     1     0     1
SMALL
USER_CHARGES
****
From 3DB ct
@<TRIPOS>ATOM
      1 C          10.699000    2.119000   11.823000 C.ar      1 <1>         0.828300 
      2 N          11.982000    2.188000   11.366000 N.ar      1 <1>        -0.713200 
      3 C          12.927000    2.933000   12.019000 C.ar      1 <1>         0.837300 
      4 C          12.573000    3.693000   13.194000 C.ar      1 <1>        -0.895900 
      5 C          11.223000    3.606000   13.645000 C.ar      1 <1>         0.836600 
      6 N          10.334000    2.828000   12.936000 N.ar      1 <1>        -0.727200 
      7 N          10.814000    4.277000   14.743000 N.pl3     1 <1>        -0.753000 
      8 H          11.396000    4.788000   15.200000 H         1 <1>         0.324900 
      9 H           9.959000    4.214000   15.017000 H         1 <1>         0.320100 
     10 C          13.552000    4.439000   13.855000 C.ar      1 <1>         0.529000 
     11 C          14.841000    4.468000   13.379000 C.ar      1 <1>        -0.379400 
     12 C          15.168000    3.713000   12.196000 C.ar      1 <1>         0.354300 
     13 H          16.055000    3.723000   11.857000 H         1 <1>         0.081300 
     14 N          14.211000    2.980000   11.553000 N.ar      1 <1>        -0.574900 
     15 C          15.988000    5.264000   14.113000 C.3       1 <1>        -0.071600 
     16 H          15.607000    5.964000   14.630000 H         1 <1>         0.076000 
     17 H          16.444000    4.669000   14.697000 H         1 <1>         0.086500 
     18 N          17.027000    5.921000   13.170000 N.pl3     1 <1>        -0.081100 
     19 C          16.477000    6.947000   12.215000 C.ar      1 <1>        -0.044500 
     20 C          17.299000    7.447000   11.098000 C.ar      1 <1>        -0.019400 
     21 C          16.644000    8.199000   10.057000 C.ar      1 <1>        -0.204100 
     22 H          17.216000    8.505000    9.182000 H         1 <1>         0.139200 
     23 C          15.268000    8.550000   10.143000 C.ar      1 <1>         0.137600 
     24 C          14.493000    8.138000   11.262000 C.ar      1 <1>         0.081200 
     25 C          15.078000    7.322000   12.258000 C.ar      1 <1>        -0.106800 
     26 H          14.550000    7.003000   12.981000 H         1 <1>         0.108200 
     27 O          13.252000    8.511000   11.366000 O.3       1 <1>        -0.282200 
     28 C          12.643000    9.332000   10.377000 C.3       1 <1>         0.118500 
     29 H          13.355000    9.554000    9.582000 H         1 <1>         0.016400 
     30 H          11.783000    8.811000    9.955000 H         1 <1>         0.025100 
     31 H          12.310000   10.264000   10.835000 H         1 <1>         0.024000 
     32 O          14.715000    9.251000    9.198000 O.3       1 <1>        -0.224800 
     33 C          15.461000    9.680000    8.065000 C.3       1 <1>        -0.054400 
     34 H          16.490000    9.326000    8.137000 H         1 <1>         0.057400 
     35 H          15.004000    9.280000    7.160000 H         1 <1>         0.057200 
     36 H          15.456000   10.769000    8.021000 H         1 <1>         0.077500 
     37 C          18.584000    6.676000   11.409000 C.3       1 <1>        -0.113400 
     38 H          19.101000    6.281000   10.521000 H         1 <1>         0.058900 
     39 H          19.308000    7.347000   11.902000 H         1 <1>         0.068400 
     40 C          18.148000    5.470000   12.363000 C.3       1 <1>         0.037700 
     41 H          18.985000    5.112000   12.986000 H         1 <1>         0.020000 
     42 H          17.893000    4.609000   11.716000 H         1 <1>         0.042500 
     43 C          13.240000    5.150000   15.172000 C.3       1 <1>        -0.249800 
     44 H          12.831000    4.449000   15.919000 H         1 <1>         0.073600 
     45 H          14.113000    5.554000   15.692000 H         1 <1>         0.063400 
     46 H          12.562000    6.006000   15.026000 H         1 <1>         0.075900 
     47 N           9.803000    1.347000   11.173000 N.pl3     1 <1>        -0.819400 
     48 H          10.055000    0.882000   10.445000 H         1 <1>         0.381100 
     49 H           8.955000    1.296000   11.469000 H         1 <1>         0.377000 
@<TRIPOS>BOND
     1    1    2 ar   
     2    2    3 ar   
     3    3    4 ar   
     4    4    5 ar   
     5    5    6 ar   
     6    6    1 ar   
     7    5    7 1    
     8    7    8 1    
     9    7    9 1    
    10    4   10 ar   
    11   10   11 ar   
    12   11   12 ar   
    13   12   13 1    
    14   12   14 ar   
    15   14    3 ar   
    16   11   15 1    
    17   15   16 1    
    18   15   17 1    
    19   15   18 1    
    20   18   19 1    
    21   19   20 ar   
    22   20   21 ar   
    23   21   22 1    
    24   21   23 ar   
    25   23   24 ar   
    26   24   25 ar   
    27   25   26 1    
    28   25   19 ar   
    29   24   27 1    
    30   27   28 1    
    31   28   29 1    
    32   28   30 1    
    33   28   31 1    
    34   23   32 1    
    35   32   33 1    
    36   33   34 1    
    37   33   35 1    
    38   33   36 1    
    39   20   37 1    
    40   37   38 1    
    41   37   39 1    
    42   37   40 1    
    43   40   41 1    
    44   40   42 1    
    45   40   18 1    
    46   10   43 1    
    47   43   44 1    
    48   43   45 1    
    49   43   46 1    
    50    1   47 1    
    51   47   48 1    
    52   47   49 1    
@<TRIPOS>SUBSTRUCTURE
     1 ****        1 TEMP              0 ****  ****    0 ROOT 
@<TRIPOS>SET
UNITY_3DHIT     STATIC     ATOMS    <user>   **** Atoms matching 3D or FLEX Search
0
