#	Name:			32-11
#	Creating user name:	jeff
#	Creation time:		Thu Dec  4 18:13:43 2003

#	Modifying user name:	jeff
#	Modification time:	Thu Dec  4 18:13:43 2003

@<TRIPOS>MOLECULE
32-11
   51    53     1     0     1
SMALL
USER_CHARGES
****
From 3DB ct
@<TRIPOS>ATOM
      1 C          16.036000    7.098000   12.249000 C.ar      1 <1>         0.113700 
      2 C          14.739000    7.659000   12.082000 C.ar      1 <1>        -0.374500 
      3 H          14.058000    7.479000   12.719000 H         1 <1>         0.181700 
      4 C          14.455000    8.476000   10.990000 C.ar      1 <1>         0.378900 
      5 C          15.417000    8.725000   10.019000 C.ar      1 <1>        -0.164800 
      6 C          16.672000    8.201000   10.095000 C.ar      1 <1>         0.322700 
      7 C          17.003000    7.433000   11.280000 C.ar      1 <1>        -0.347100 
      8 H          17.904000    7.155000   11.393000 H         1 <1>         0.154400 
      9 O          17.631000    8.412000    9.115000 O.3       1 <1>        -0.232900 
     10 C          18.900000    7.794000    9.341000 C.3       1 <1>        -0.009200 
     11 H          19.364000    8.163000   10.269000 H         1 <1>         0.040300 
     12 H          18.803000    6.700000    9.406000 H         1 <1>         0.045600 
     13 H          19.541000    8.051000    8.489000 H         1 <1>         0.070300 
     14 O          15.056000    9.490000    8.899000 O.3       1 <1>        -0.255900 
     15 C          16.046000    9.746000    7.902000 C.3       1 <1>         0.076400 
     16 H          16.201000    8.875000    7.247000 H         1 <1>         0.018300 
     17 H          15.677000   10.582000    7.293000 H         1 <1>         0.049100 
     18 H          17.011000   10.027000    8.349000 H         1 <1>         0.024900 
     19 O          13.154000    8.983000   10.818000 O.3       1 <1>        -0.318000 
     20 C          12.836000    9.820000    9.710000 C.3       1 <1>         0.102100 
     21 H          13.712000   10.364000    9.328000 H         1 <1>         0.035000 
     22 H          12.395000    9.232000    8.890000 H         1 <1>         0.024400 
     23 H          12.092000   10.552000   10.057000 H         1 <1>         0.025500 
     24 C          16.369000    6.388000   13.305000 C.3       1 <1>         0.018000 
     25 H          16.785000    5.580000   13.026000 H         1 <1>         0.007600 
     26 H          17.009000    6.887000   13.799000 H         1 <1>         0.029300 
     27 C          15.283000    5.941000   14.271000 C.3       1 <1>        -0.041600 
     28 H          14.782000    6.692000   14.565000 H         1 <1>         0.065400 
     29 H          15.679000    5.509000   15.019000 H         1 <1>         0.030900 
     30 N          14.439000    5.039000   13.541000 N.3       1 <1>        -0.288800 
     31 C          13.020000    4.961000   14.157000 C.3       1 <1>         0.012800 
     32 H          13.080000    4.546000   15.181000 H         1 <1>         0.064200 
     33 H          12.604000    5.815000   14.161000 H         1 <1>         0.066900 
     34 C          12.229000    3.966000   13.280000 C.ar      1 <1>        -0.509600 
     35 C          10.867000    3.619000   13.653000 C.ar      1 <1>         0.706300 
     36 N          10.139000    2.748000   12.946000 N.ar      1 <1>        -0.682500 
     37 C          10.671000    2.090000   11.888000 C.ar      1 <1>         0.774600 
     38 N          12.015000    2.214000   11.598000 N.ar      1 <1>        -0.658900 
     39 C          12.774000    3.120000   12.342000 C.ar      1 <1>         0.506300 
     40 C          14.263000    3.067000   12.043000 C.3       1 <1>        -0.199800 
     41 H          14.549000    2.024000   11.832000 H         1 <1>         0.078900 
     42 H          14.484000    3.640000   11.124000 H         1 <1>         0.089700 
     43 C          15.044000    3.651000   13.228000 C.3       1 <1>         0.043200 
     44 H          16.113000    3.728000   12.968000 H         1 <1>         0.063500 
     45 H          14.978000    2.987000   14.108000 H         1 <1>         0.046600 
     46 N           9.948000    1.314000   11.161000 N.pl3     1 <1>        -0.812200 
     47 H           9.076000    1.202000   11.352000 H         1 <1>         0.370900 
     48 H          10.315000    0.883000   10.461000 H         1 <1>         0.376500 
     49 N          10.223000    4.159000   14.724000 N.pl3     1 <1>        -0.810800 
     50 H          10.641000    4.764000   15.243000 H         1 <1>         0.350300 
     51 H           9.378000    3.910000   14.913000 H         1 <1>         0.341400 
@<TRIPOS>BOND
     1    1    2 ar   
     2    2    3 1    
     3    2    4 ar   
     4    4    5 ar   
     5    5    6 ar   
     6    6    7 ar   
     7    7    8 1    
     8    7    1 ar   
     9    6    9 1    
    10    9   10 1    
    11   10   11 1    
    12   10   12 1    
    13   10   13 1    
    14    5   14 1    
    15   14   15 1    
    16   15   16 1    
    17   15   17 1    
    18   15   18 1    
    19    4   19 1    
    20   19   20 1    
    21   20   21 1    
    22   20   22 1    
    23   20   23 1    
    24    1   24 1    
    25   24   25 1    
    26   24   26 1    
    27   24   27 1    
    28   27   28 1    
    29   27   29 1    
    30   27   30 1    
    31   30   31 1    
    32   31   32 1    
    33   31   33 1    
    34   31   34 1    
    35   34   35 ar   
    36   35   36 ar   
    37   36   37 ar   
    38   37   38 ar   
    39   38   39 ar   
    40   39   34 ar   
    41   39   40 1    
    42   40   41 1    
    43   40   42 1    
    44   40   43 1    
    45   43   44 1    
    46   43   45 1    
    47   43   30 1    
    48   37   46 1    
    49   46   47 1    
    50   46   48 1    
    51   35   49 1    
    52   49   50 1    
    53   49   51 1    
@<TRIPOS>SUBSTRUCTURE
     1 ****        1 TEMP              0 ****  ****    0 ROOT 
@<TRIPOS>SET
UNITY_3DHIT     STATIC     ATOMS    <user>   **** Atoms matching 3D or FLEX Search
0
