#	Name:			32-8
#	Creating user name:	jeff
#	Creation time:		Thu Dec  4 18:13:43 2003

#	Modifying user name:	jeff
#	Modification time:	Thu Dec  4 18:13:43 2003

@<TRIPOS>MOLECULE
32-8
   44    46     1     0     1
SMALL
USER_CHARGES
****
From 3DB ct
@<TRIPOS>ATOM
      1 C          12.401000    3.958000   12.987000 C.ar      1 <1>        -0.654800 
      2 C          11.084000    3.794000   13.583000 C.ar      1 <1>         0.767700 
      3 N          10.239000    2.837000   13.181000 N.ar      1 <1>        -0.699000 
      4 C          10.606000    1.928000   12.247000 C.ar      1 <1>         0.786400 
      5 N          11.907000    1.894000   11.784000 N.ar      1 <1>        -0.671000 
      6 C          12.788000    2.890000   12.211000 C.ar      1 <1>         0.519100 
      7 C          14.225000    2.674000   11.763000 C.3       1 <1>        -0.123000 
      8 H          14.441000    1.593000   11.764000 H         1 <1>         0.057400 
      9 H          14.350000    3.012000   10.719000 H         1 <1>         0.067000 
     10 C          15.171000    3.452000   12.686000 C.3       1 <1>         0.014500 
     11 H          16.201000    3.398000   12.295000 H         1 <1>         0.068900 
     12 H          15.191000    3.005000   13.696000 H         1 <1>         0.049400 
     13 N          14.666000    4.912000   12.741000 N.3       1 <1>        -0.301200 
     14 C          13.334000    5.067000   13.518000 C.3       1 <1>         0.256100 
     15 H          13.507000    4.886000   14.595000 H         1 <1>         0.022200 
     16 H          12.956000    5.927000   13.374000 H         1 <1>         0.012600 
     17 C          15.750000    5.908000   13.178000 C.3       1 <1>        -0.181900 
     18 H          15.567000    6.365000   14.165000 H         1 <1>         0.105100 
     19 H          16.785000    5.561000   13.314000 H         1 <1>         0.071600 
     20 C          15.640000    7.003000   12.083000 C.ar      1 <1>         0.050100 
     21 C          16.800000    7.457000   11.480000 C.ar      1 <1>         0.174000 
     22 O          17.922000    6.758000   11.870000 O.3       1 <1>        -0.232700 
     23 C          19.199000    7.084000   11.356000 C.3       1 <1>        -0.044400 
     24 H          19.849000    6.502000   11.732000 H         1 <1>         0.077400 
     25 H          19.195000    6.985000   10.411000 H         1 <1>         0.055400 
     26 H          19.410000    7.982000   11.580000 H         1 <1>         0.054300 
     27 C          16.711000    8.519000   10.594000 C.ar      1 <1>        -0.200900 
     28 H          17.491000    8.840000   10.158000 H         1 <1>         0.130600 
     29 C          15.485000    9.128000   10.332000 C.ar      1 <1>        -0.224800 
     30 H          15.434000    9.848000    9.714000 H         1 <1>         0.132300 
     31 C          14.373000    8.659000   10.984000 C.ar      1 <1>         0.298200 
     32 O          13.034000    9.120000   10.868000 O.3       1 <1>        -0.300000 
     33 C          13.021000   10.003000    9.734000 C.3       1 <1>         0.036200 
     34 H          12.143000   10.343000    9.607000 H         1 <1>         0.063900 
     35 H          13.621000   10.723000    9.886000 H         1 <1>         0.030200 
     36 H          13.290000    9.525000    8.958000 H         1 <1>         0.033800 
     37 C          14.437000    7.605000   11.859000 C.ar      1 <1>        -0.261100 
     38 H          13.659000    7.293000   12.306000 H         1 <1>         0.162600 
     39 N           9.767000    1.060000   11.804000 N.pl3     1 <1>        -0.807200 
     40 H           8.922000    1.052000   12.114000 H         1 <1>         0.368200 
     41 H          10.025000    0.462000   11.183000 H         1 <1>         0.373800 
     42 N          10.602000    4.599000   14.569000 N.pl3     1 <1>        -0.838700 
     43 H          11.106000    5.274000   14.885000 H         1 <1>         0.355500 
     44 H           9.780000    4.455000   14.906000 H         1 <1>         0.346100 
@<TRIPOS>BOND
     1    1    2 ar   
     2    2    3 ar   
     3    3    4 ar   
     4    4    5 ar   
     5    5    6 ar   
     6    6    1 ar   
     7    6    7 1    
     8    7    8 1    
     9    7    9 1    
    10    7   10 1    
    11   10   11 1    
    12   10   12 1    
    13   10   13 1    
    14   13   14 1    
    15   14   15 1    
    16   14   16 1    
    17   14    1 1    
    18   13   17 1    
    19   17   18 1    
    20   17   19 1    
    21   17   20 1    
    22   20   21 ar   
    23   21   22 1    
    24   22   23 1    
    25   23   24 1    
    26   23   25 1    
    27   23   26 1    
    28   21   27 ar   
    29   27   28 1    
    30   27   29 ar   
    31   29   30 1    
    32   29   31 ar   
    33   31   32 1    
    34   32   33 1    
    35   33   34 1    
    36   33   35 1    
    37   33   36 1    
    38   31   37 ar   
    39   37   38 1    
    40   37   20 ar   
    41    4   39 1    
    42   39   40 1    
    43   39   41 1    
    44    2   42 1    
    45   42   43 1    
    46   42   44 1    
@<TRIPOS>SUBSTRUCTURE
     1 ****        1 TEMP              0 ****  ****    0 ROOT 
@<TRIPOS>SET
UNITY_3DHIT     STATIC     ATOMS    <user>   **** Atoms matching 3D or FLEX Search
0
