#	Name:			32-9
#	Creating user name:	jeff
#	Creation time:		Thu Dec  4 18:13:43 2003

#	Modifying user name:	jeff
#	Modification time:	Thu Dec  4 18:13:43 2003

@<TRIPOS>MOLECULE
32-9
   48    50     1     0     1
SMALL
USER_CHARGES
****
From 3DB ct
@<TRIPOS>ATOM
      1 C          12.401000    3.958000   12.987000 C.ar      1 <1>        -0.653400 
      2 C          11.084000    3.794000   13.583000 C.ar      1 <1>         0.764600 
      3 N          10.239000    2.837000   13.181000 N.ar      1 <1>        -0.695600 
      4 C          10.606000    1.928000   12.247000 C.ar      1 <1>         0.784200 
      5 N          11.907000    1.894000   11.784000 N.ar      1 <1>        -0.667300 
      6 C          12.788000    2.890000   12.211000 C.ar      1 <1>         0.516600 
      7 C          14.225000    2.674000   11.763000 C.3       1 <1>        -0.135400 
      8 H          14.441000    1.593000   11.764000 H         1 <1>         0.057000 
      9 H          14.350000    3.012000   10.719000 H         1 <1>         0.071800 
     10 C          15.171000    3.452000   12.686000 C.3       1 <1>         0.082600 
     11 H          16.201000    3.398000   12.295000 H         1 <1>         0.046000 
     12 H          15.191000    3.005000   13.696000 H         1 <1>         0.029100 
     13 N          14.666000    4.912000   12.741000 N.3       1 <1>        -0.338400 
     14 C          13.334000    5.067000   13.518000 C.3       1 <1>         0.259000 
     15 H          13.507000    4.886000   14.595000 H         1 <1>         0.018300 
     16 H          12.956000    5.927000   13.374000 H         1 <1>         0.021500 
     17 C          15.750000    5.908000   13.178000 C.3       1 <1>        -0.195900 
     18 H          15.567000    6.365000   14.165000 H         1 <1>         0.101700 
     19 H          16.785000    5.561000   13.314000 H         1 <1>         0.077100 
     20 C          15.640000    7.003000   12.083000 C.ar      1 <1>         0.237300 
     21 C          16.800000    7.457000   11.480000 C.ar      1 <1>        -0.363400 
     22 H          17.632000    7.043000   11.678000 H         1 <1>         0.151000 
     23 C          16.711000    8.519000   10.594000 C.ar      1 <1>         0.333600 
     24 C          15.485000    9.128000   10.332000 C.ar      1 <1>        -0.233900 
     25 C          14.373000    8.659000   10.984000 C.ar      1 <1>         0.407200 
     26 O          13.034000    9.120000   10.868000 O.3       1 <1>        -0.314500 
     27 C          13.021000   10.003000    9.734000 C.3       1 <1>         0.070000 
     28 H          12.143000   10.343000    9.607000 H         1 <1>         0.039900 
     29 H          13.621000   10.723000    9.886000 H         1 <1>         0.042800 
     30 H          13.290000    9.525000    8.958000 H         1 <1>         0.037800 
     31 C          14.437000    7.605000   11.859000 C.ar      1 <1>        -0.403300 
     32 H          13.659000    7.293000   12.306000 H         1 <1>         0.190100 
     33 O          15.416000   10.113000    9.487000 O.3       1 <1>        -0.184300 
     34 C          16.584000   10.581000    8.823000 C.3       1 <1>        -0.052800 
     35 H          17.450000    9.994000    9.130000 H         1 <1>         0.067400 
     36 H          16.448000   10.487000    7.745000 H         1 <1>         0.057200 
     37 H          16.748000   11.628000    9.076000 H         1 <1>         0.061000 
     38 O          17.778000    8.958000    9.997000 O.3       1 <1>        -0.228800 
     39 C          19.044000    8.359000   10.243000 C.3       1 <1>        -0.044500 
     40 H          18.939000    7.537000   10.951000 H         1 <1>         0.050700 
     41 H          19.452000    7.979000    9.306000 H         1 <1>         0.078800 
     42 H          19.724000    9.105000   10.655000 H         1 <1>         0.054300 
     43 N           9.767000    1.060000   11.804000 N.pl3     1 <1>        -0.803600 
     44 H           8.922000    1.052000   12.114000 H         1 <1>         0.368100 
     45 H          10.025000    0.462000   11.183000 H         1 <1>         0.373500 
     46 N          10.602000    4.599000   14.569000 N.pl3     1 <1>        -0.833100 
     47 H          11.106000    5.274000   14.885000 H         1 <1>         0.352500 
     48 H           9.780000    4.455000   14.906000 H         1 <1>         0.345400 
@<TRIPOS>BOND
     1    1    2 ar   
     2    2    3 ar   
     3    3    4 ar   
     4    4    5 ar   
     5    5    6 ar   
     6    6    1 ar   
     7    6    7 1    
     8    7    8 1    
     9    7    9 1    
    10    7   10 1    
    11   10   11 1    
    12   10   12 1    
    13   10   13 1    
    14   13   14 1    
    15   14   15 1    
    16   14   16 1    
    17   14    1 1    
    18   13   17 1    
    19   17   18 1    
    20   17   19 1    
    21   17   20 1    
    22   20   21 ar   
    23   21   22 1    
    24   21   23 ar   
    25   23   24 ar   
    26   24   25 ar   
    27   25   26 1    
    28   26   27 1    
    29   27   28 1    
    30   27   29 1    
    31   27   30 1    
    32   25   31 ar   
    33   31   32 1    
    34   31   20 ar   
    35   24   33 1    
    36   33   34 1    
    37   34   35 1    
    38   34   36 1    
    39   34   37 1    
    40   23   38 1    
    41   38   39 1    
    42   39   40 1    
    43   39   41 1    
    44   39   42 1    
    45    4   43 1    
    46   43   44 1    
    47   43   45 1    
    48    2   46 1    
    49   46   47 1    
    50   46   48 1    
@<TRIPOS>SUBSTRUCTURE
     1 ****        1 TEMP              0 ****  ****    0 ROOT 
@<TRIPOS>SET
UNITY_3DHIT     STATIC     ATOMS    <user>   **** Atoms matching 3D or FLEX Search
0
