#	Name:			33-1
#	Creating user name:	jeff
#	Creation time:		Thu Dec  4 18:13:43 2003

#	Modifying user name:	jeff
#	Modification time:	Thu Dec  4 18:13:43 2003

@<TRIPOS>MOLECULE
33-1
   49    51     1     0     1
SMALL
USER_CHARGES
****
From 3DB ct
@<TRIPOS>ATOM
      1 N          10.484000    2.776000   13.259000 N.ar      1 <1>        -0.714700 
      2 C          10.725000    2.008000   12.185000 C.ar      1 <1>         0.805200 
      3 N          11.831000    2.024000   11.446000 N.ar      1 <1>        -0.673900 
      4 C          12.721000    2.922000   11.880000 C.ar      1 <1>         0.567200 
      5 C          12.599000    3.781000   12.961000 C.ar      1 <1>        -0.636800 
      6 C          11.405000    3.672000   13.680000 C.ar      1 <1>         0.797600 
      7 N          11.092000    4.402000   14.798000 N.pl3     1 <1>        -0.780100 
      8 H          11.717000    5.069000   15.226000 H         1 <1>         0.353600 
      9 H          10.201000    4.237000   15.250000 H         1 <1>         0.321100 
     10 C          13.809000    4.551000   13.001000 C.ar      1 <1>         0.060100 
     11 C          14.579000    4.069000   11.957000 C.ar      1 <1>        -0.098000 
     12 H          15.568000    4.316000   11.591000 H         1 <1>         0.212500 
     13 O          13.927000    3.097000   11.274000 O.3       1 <1>        -0.162000 
     14 C          14.187000    5.624000   13.972000 C.3       1 <1>         0.138000 
     15 H          14.506000    5.121000   14.894000 H         1 <1>         0.028200 
     16 H          13.298000    6.219000   14.206000 H         1 <1>         0.055400 
     17 N          15.230000    6.545000   13.535000 N.pl3     1 <1>        -0.690200 
     18 H          16.101000    6.522000   14.062000 H         1 <1>         0.330100 
     19 C          15.230000    7.206000   12.323000 C.ar      1 <1>         0.375400 
     20 C          16.454000    7.613000   11.776000 C.ar      1 <1>        -0.353400 
     21 H          17.385000    7.388000   12.295000 H         1 <1>         0.113900 
     22 C          16.519000    8.309000   10.562000 C.ar      1 <1>         0.020800 
     23 H          17.492000    8.599000   10.170000 H         1 <1>         0.118900 
     24 C          15.350000    8.619000    9.862000 C.ar      1 <1>        -0.156300 
     25 C          14.119000    8.246000   10.409000 C.ar      1 <1>        -0.039300 
     26 H          13.181000    8.503000    9.924000 H         1 <1>         0.138500 
     27 C          14.066000    7.549000   11.626000 C.ar      1 <1>        -0.281100 
     28 H          13.083000    7.284000   12.011000 H         1 <1>         0.119200 
     29 C          15.162000    9.045000    8.652000 C.2       1 <1>         0.586900 
     30 N          14.014000    8.909000    7.974000 N.am      1 <1>        -0.552800 
     31 H          13.364000    8.373000    8.292000 H         1 <1>         0.313500 
     32 C          13.718000    9.581000    6.719000 C.3       1 <1>         0.062200 
     33 H          14.308000   10.322000    6.648000 H         1 <1>         0.047600 
     34 C          12.287000   10.129000    6.681000 C.2       1 <1>         0.523100 
     35 O          12.230000   11.054000    5.796000 O.3       1 <1>        -0.678400 
     36 O          11.563000    9.513000    7.512000 O.2       1 <1>        -0.710300 
     37 C          13.902000    8.730000    5.467000 C.3       1 <1>        -0.070700 
     38 H          13.560000    7.858000    5.624000 H         1 <1>         0.038600 
     39 H          13.458000    9.130000    4.729000 H         1 <1>         0.043600 
     40 C          15.373000    8.719000    5.240000 C.3       1 <1>        -0.130000 
     41 H          15.678000    9.607000    5.097000 H         1 <1>         0.007500 
     42 H          15.806000    8.357000    6.004000 H         1 <1>        -0.003800 
     43 C          15.705000    7.907000    4.066000 C.2       1 <1>         0.603100 
     44 O          16.765000    7.118000    4.019000 O.2       1 <1>        -0.748500 
     45 O          14.939000    7.880000    2.975000 O.3       1 <1>        -0.715900 
     46 O          16.100000    9.592000    8.042000 O.2       1 <1>        -0.504900 
     47 N           9.746000    1.131000   11.824000 N.pl3     1 <1>        -0.827400 
     48 H           9.878000    0.533000   11.023000 H         1 <1>         0.376000 
     49 H           8.890000    1.092000   12.358000 H         1 <1>         0.370700 
@<TRIPOS>BOND
     1    1    2 ar   
     2    2    3 ar   
     3    3    4 ar   
     4    4    5 ar   
     5    5    6 ar   
     6    6    1 ar   
     7    6    7 1    
     8    7    8 1    
     9    7    9 1    
    10    5   10 ar   
    11   10   11 ar   
    12   11   12 1    
    13   11   13 ar   
    14   13    4 ar   
    15   10   14 1    
    16   14   15 1    
    17   14   16 1    
    18   14   17 1    
    19   17   18 1    
    20   17   19 1    
    21   19   20 ar   
    22   20   21 1    
    23   20   22 ar   
    24   22   23 1    
    25   22   24 ar   
    26   24   25 ar   
    27   25   26 1    
    28   25   27 ar   
    29   27   28 1    
    30   27   19 ar   
    31   24   29 1    
    32   29   30 am   
    33   30   31 1    
    34   30   32 1    
    35   32   33 1    
    36   32   34 1    
    37   34   35 1    
    38   34   36 2    
    39   32   37 1    
    40   37   38 1    
    41   37   39 1    
    42   37   40 1    
    43   40   41 1    
    44   40   42 1    
    45   40   43 1    
    46   43   44 2    
    47   43   45 1    
    48   29   46 2    
    49    2   47 1    
    50   47   48 1    
    51   47   49 1    
@<TRIPOS>SUBSTRUCTURE
     1 ****        1 TEMP              0 ****  ****    0 ROOT 
@<TRIPOS>SET
UNITY_3DHIT     STATIC     ATOMS    <user>   **** Atoms matching 3D or FLEX Search
0
@<TRIPOS>UNITY_ATOM_ATTR
35 1
AtomExpr -1
45 1
AtomExpr -1
