#	Name:			33-2
#	Creating user name:	jeff
#	Creation time:		Thu Dec  4 18:13:43 2003

#	Modifying user name:	jeff
#	Modification time:	Thu Dec  4 18:13:43 2003

@<TRIPOS>MOLECULE
33-2
   52    54     1     0     1
SMALL
USER_CHARGES
****
From 3DB ct
@<TRIPOS>ATOM
      1 N          10.482000    2.771000   13.256000 N.ar      1 <1>        -0.715200 
      2 C          10.734000    1.988000   12.195000 C.ar      1 <1>         0.804200 
      3 N          11.837000    2.015000   11.450000 N.ar      1 <1>        -0.670200 
      4 C          12.718000    2.925000   11.876000 C.ar      1 <1>         0.565600 
      5 C          12.593000    3.786000   12.956000 C.ar      1 <1>        -0.653900 
      6 C          11.390000    3.687000   13.662000 C.ar      1 <1>         0.800200 
      7 N          11.047000    4.461000   14.741000 N.pl3     1 <1>        -0.773000 
      8 H          11.618000    5.212000   15.098000 H         1 <1>         0.352200 
      9 H          10.141000    4.314000   15.171000 H         1 <1>         0.317400 
     10 C          13.807000    4.547000   13.005000 C.ar      1 <1>         0.121600 
     11 C          14.554000    4.110000   11.926000 C.ar      1 <1>        -0.115000 
     12 H          15.527000    4.389000   11.539000 H         1 <1>         0.223400 
     13 O          13.911000    3.127000   11.251000 O.3       1 <1>        -0.162100 
     14 C          14.194000    5.613000   13.988000 C.3       1 <1>        -0.029900 
     15 H          14.530000    5.142000   14.919000 H         1 <1>         0.073300 
     16 H          13.266000    6.138000   14.235000 H         1 <1>         0.067000 
     17 N          15.264000    6.541000   13.572000 N.pl3     1 <1>        -0.329300 
     18 C          15.273000    7.203000   12.354000 C.ar      1 <1>         0.228500 
     19 C          16.475000    7.618000   11.754000 C.ar      1 <1>        -0.250800 
     20 H          17.435000    7.399000   12.219000 H         1 <1>         0.099200 
     21 C          16.504000    8.306000   10.531000 C.ar      1 <1>        -0.039000 
     22 H          17.465000    8.600000   10.112000 H         1 <1>         0.125100 
     23 C          15.316000    8.620000    9.870000 C.ar      1 <1>        -0.098400 
     24 C          14.108000    8.214000   10.435000 C.ar      1 <1>        -0.057400 
     25 H          13.159000    8.414000    9.944000 H         1 <1>         0.141200 
     26 C          14.095000    7.520000   11.657000 C.ar      1 <1>        -0.264400 
     27 H          13.117000    7.268000   12.060000 H         1 <1>         0.117900 
     28 C          15.162000    9.045000    8.652000 C.2       1 <1>         0.567700 
     29 N          14.014000    8.909000    7.974000 N.am      1 <1>        -0.556900 
     30 H          13.364000    8.373000    8.292000 H         1 <1>         0.311300 
     31 C          13.718000    9.581000    6.719000 C.3       1 <1>         0.081000 
     32 H          14.308000   10.322000    6.648000 H         1 <1>         0.043500 
     33 C          12.287000   10.129000    6.681000 C.2       1 <1>         0.515200 
     34 O          12.230000   11.054000    5.796000 O.3       1 <1>        -0.677500 
     35 O          11.563000    9.513000    7.512000 O.2       1 <1>        -0.708500 
     36 C          13.902000    8.730000    5.467000 C.3       1 <1>        -0.069200 
     37 H          13.560000    7.858000    5.624000 H         1 <1>         0.038100 
     38 H          13.458000    9.130000    4.729000 H         1 <1>         0.042000 
     39 C          15.373000    8.719000    5.240000 C.3       1 <1>        -0.129100 
     40 H          15.678000    9.607000    5.097000 H         1 <1>         0.006100 
     41 H          15.806000    8.357000    6.004000 H         1 <1>        -0.004600 
     42 C          15.705000    7.907000    4.066000 C.2       1 <1>         0.601900 
     43 O          16.765000    7.118000    4.019000 O.2       1 <1>        -0.748200 
     44 O          14.939000    7.880000    2.975000 O.3       1 <1>        -0.715200 
     45 O          16.100000    9.592000    8.042000 O.2       1 <1>        -0.500300 
     46 C          16.349000    6.760000   14.533000 C.3       1 <1>        -0.029100 
     47 H          16.571000    7.828000   14.639000 H         1 <1>         0.051200 
     48 H          17.257000    6.231000   14.222000 H         1 <1>         0.041200 
     49 H          16.078000    6.393000   15.529000 H         1 <1>         0.042000 
     50 N           9.769000    1.090000   11.852000 N.pl3     1 <1>        -0.826500 
     51 H           9.908000    0.481000   11.059000 H         1 <1>         0.375500 
     52 H           8.917000    1.044000   12.391000 H         1 <1>         0.370400 
@<TRIPOS>BOND
     1    1    2 ar   
     2    2    3 ar   
     3    3    4 ar   
     4    4    5 ar   
     5    5    6 ar   
     6    6    1 ar   
     7    6    7 1    
     8    7    8 1    
     9    7    9 1    
    10    5   10 ar   
    11   10   11 ar   
    12   11   12 1    
    13   11   13 ar   
    14   13    4 ar   
    15   10   14 1    
    16   14   15 1    
    17   14   16 1    
    18   14   17 1    
    19   17   18 1    
    20   18   19 ar   
    21   19   20 1    
    22   19   21 ar   
    23   21   22 1    
    24   21   23 ar   
    25   23   24 ar   
    26   24   25 1    
    27   24   26 ar   
    28   26   27 1    
    29   26   18 ar   
    30   23   28 1    
    31   28   29 am   
    32   29   30 1    
    33   29   31 1    
    34   31   32 1    
    35   31   33 1    
    36   33   34 1    
    37   33   35 2    
    38   31   36 1    
    39   36   37 1    
    40   36   38 1    
    41   36   39 1    
    42   39   40 1    
    43   39   41 1    
    44   39   42 1    
    45   42   43 2    
    46   42   44 1    
    47   28   45 2    
    48   17   46 1    
    49   46   47 1    
    50   46   48 1    
    51   46   49 1    
    52    2   50 1    
    53   50   51 1    
    54   50   52 1    
@<TRIPOS>SUBSTRUCTURE
     1 ****        1 TEMP              0 ****  ****    0 ROOT 
@<TRIPOS>SET
UNITY_3DHIT     STATIC     ATOMS    <user>   **** Atoms matching 3D or FLEX Search
0
@<TRIPOS>UNITY_ATOM_ATTR
34 1
AtomExpr -1
44 1
AtomExpr -1
