#	Name:			33-3
#	Creating user name:	jeff
#	Creation time:		Thu Dec  4 18:13:43 2003

#	Modifying user name:	jeff
#	Modification time:	Thu Dec  4 18:13:43 2003

@<TRIPOS>MOLECULE
33-3
   44    46     1     0     1
SMALL
USER_CHARGES
****
From 3DB ct
@<TRIPOS>ATOM
      1 N          10.489000    2.783000   13.267000 N.ar      1 <1>        -0.726700 
      2 C          10.718000    2.033000   12.178000 C.ar      1 <1>         0.838000 
      3 N          11.825000    2.045000   11.440000 N.ar      1 <1>        -0.685300 
      4 C          12.729000    2.921000   11.891000 C.ar      1 <1>         0.594800 
      5 C          12.620000    3.763000   12.988000 C.ar      1 <1>        -0.704100 
      6 C          11.424000    3.657000   13.705000 C.ar      1 <1>         0.822100 
      7 N          11.121000    4.368000   14.837000 N.pl3     1 <1>        -0.780400 
      8 H          11.757000    5.011000   15.284000 H         1 <1>         0.336900 
      9 H          10.229000    4.199000   15.289000 H         1 <1>         0.334600 
     10 C          13.840000    4.514000   13.040000 C.ar      1 <1>         0.094800 
     11 C          14.604000    4.038000   11.990000 C.ar      1 <1>        -0.117000 
     12 H          15.597000    4.277000   11.627000 H         1 <1>         0.210100 
     13 O          13.938000    3.088000   11.289000 O.3       1 <1>        -0.161600 
     14 C          14.235000    5.569000   14.024000 C.3       1 <1>         0.118000 
     15 H          14.599000    5.051000   14.920000 H         1 <1>         0.038300 
     16 H          13.345000    6.141000   14.307000 H         1 <1>         0.085700 
     17 N          15.242000    6.522000   13.570000 N.pl3     1 <1>        -0.666900 
     18 H          16.105000    6.552000   14.109000 H         1 <1>         0.330400 
     19 C          15.219000    7.175000   12.352000 C.ar      1 <1>         0.538800 
     20 C          16.436000    7.581000   11.788000 C.ar      1 <1>        -0.548800 
     21 H          17.372000    7.368000   12.301000 H         1 <1>         0.162000 
     22 C          16.472000    8.253000   10.566000 C.ar      1 <1>         0.395300 
     23 C          15.285000    8.588000    9.913000 C.ar      1 <1>        -0.281400 
     24 C          14.053000    8.190000   10.447000 C.ar      1 <1>         0.505600 
     25 C          14.034000    7.494000   11.666000 C.ar      1 <1>        -0.583000 
     26 H          13.086000    7.189000   12.095000 H         1 <1>         0.195000 
     27 O          12.944000    8.527000    9.714000 O.3       1 <1>        -0.308900 
     28 C          13.159000    9.076000    8.416000 C.3       1 <1>         0.059400 
     29 H          12.178000    9.279000    7.975000 H         1 <1>         0.042400 
     30 H          13.674000    8.361000    7.766000 H         1 <1>         0.042100 
     31 H          13.701000   10.025000    8.475000 H         1 <1>         0.047300 
     32 O          15.336000    9.243000    8.705000 O.3       1 <1>        -0.213800 
     33 C          16.700000    9.473000    8.335000 C.3       1 <1>        -0.016500 
     34 H          16.699000   10.009000    7.382000 H         1 <1>         0.045500 
     35 H          17.236000    8.529000    8.193000 H         1 <1>         0.059100 
     36 H          17.213000   10.096000    9.075000 H         1 <1>         0.048600 
     37 O          17.683000    8.645000   10.054000 O.3       1 <1>        -0.224400 
     38 C          18.739000    8.201000   10.913000 C.3       1 <1>        -0.050000 
     39 H          19.688000    8.486000   10.450000 H         1 <1>         0.077500 
     40 H          18.728000    7.112000   11.025000 H         1 <1>         0.055400 
     41 H          18.680000    8.688000   11.893000 H         1 <1>         0.058900 
     42 N           9.726000    1.179000   11.800000 N.pl3     1 <1>        -0.834900 
     43 H           9.849000    0.593000   10.987000 H         1 <1>         0.385600 
     44 H           8.870000    1.143000   12.333000 H         1 <1>         0.381500 
@<TRIPOS>BOND
     1    1    2 ar   
     2    2    3 ar   
     3    3    4 ar   
     4    4    5 ar   
     5    5    6 ar   
     6    6    1 ar   
     7    6    7 1    
     8    7    8 1    
     9    7    9 1    
    10    5   10 ar   
    11   10   11 ar   
    12   11   12 1    
    13   11   13 ar   
    14   13    4 ar   
    15   10   14 1    
    16   14   15 1    
    17   14   16 1    
    18   14   17 1    
    19   17   18 1    
    20   17   19 1    
    21   19   20 ar   
    22   20   21 1    
    23   20   22 ar   
    24   22   23 ar   
    25   23   24 ar   
    26   24   25 ar   
    27   25   26 1    
    28   25   19 ar   
    29   24   27 1    
    30   27   28 1    
    31   28   29 1    
    32   28   30 1    
    33   28   31 1    
    34   23   32 1    
    35   32   33 1    
    36   33   34 1    
    37   33   35 1    
    38   33   36 1    
    39   22   37 1    
    40   37   38 1    
    41   38   39 1    
    42   38   40 1    
    43   38   41 1    
    44    2   42 1    
    45   42   43 1    
    46   42   44 1    
@<TRIPOS>SUBSTRUCTURE
     1 ****        1 TEMP              0 ****  ****    0 ROOT 
@<TRIPOS>SET
UNITY_3DHIT     STATIC     ATOMS    <user>   **** Atoms matching 3D or FLEX Search
0
