#	Name:			33-5
#	Creating user name:	jeff
#	Creation time:		Thu Dec  4 18:13:43 2003

#	Modifying user name:	jeff
#	Modification time:	Thu Dec  4 18:13:43 2003

@<TRIPOS>MOLECULE
33-5
   32    34     1     0     1
SMALL
USER_CHARGES
****
From 3DB ct
@<TRIPOS>ATOM
      1 N          10.487000    2.779000   13.263000 N.ar      1 <1>        -0.714400 
      2 C          10.724000    2.009000   12.189000 C.ar      1 <1>         0.820000 
      3 N          11.827000    2.022000   11.446000 N.ar      1 <1>        -0.676800 
      4 C          12.721000    2.919000   11.876000 C.ar      1 <1>         0.584200 
      5 C          12.604000    3.780000   12.956000 C.ar      1 <1>        -0.646100 
      6 C          11.411000    3.675000   13.678000 C.ar      1 <1>         0.791300 
      7 N          11.104000    4.412000   14.793000 N.pl3     1 <1>        -0.766400 
      8 H          11.732000    5.080000   15.214000 H         1 <1>         0.330000 
      9 H          10.214000    4.251000   15.250000 H         1 <1>         0.332800 
     10 C          13.815000    4.545000   12.995000 C.ar      1 <1>        -0.019500 
     11 C          14.582000    4.063000   11.949000 C.ar      1 <1>        -0.083000 
     12 H          15.571000    4.306000   11.580000 H         1 <1>         0.205400 
     13 O          13.925000    3.092000   11.267000 O.3       1 <1>        -0.159700 
     14 C          14.189000    5.615000   13.972000 C.3       1 <1>         0.274100 
     15 H          14.521000    5.108000   14.887000 H         1 <1>         0.029600 
     16 H          13.290000    6.192000   14.218000 H         1 <1>         0.048900 
     17 N          15.215000    6.558000   13.541000 N.pl3     1 <1>        -0.874600 
     18 H          16.073000    6.572000   14.089000 H         1 <1>         0.397000 
     19 C          15.220000    7.212000   12.325000 C.ar      1 <1>         0.549000 
     20 C          13.992000    7.501000   11.713000 C.ar      1 <1>        -0.373200 
     21 H          13.059000    7.231000   12.207000 H         1 <1>         0.162600 
     22 C          13.926000    8.135000   10.467000 C.ar      1 <1>         0.174600 
     23 H          12.953000    8.345000   10.029000 H         1 <1>         0.062300 
     24 C          15.098000    8.486000    9.801000 C.ar      1 <1>        -0.308900 
     25 C          16.332000    8.196000   10.386000 C.ar      1 <1>        -0.100200 
     26 C          16.387000    7.560000   11.635000 C.ar      1 <1>        -0.177800 
     27 H          17.363000    7.345000   12.062000 H         1 <1>         0.082700 
     28 Cl         17.831000    8.594000    9.618000 Cl        1 <1>         0.055000 
     29 Cl         14.956000    9.267000    8.266000 Cl        1 <1>         0.057300 
     30 N           9.743000    1.132000   11.834000 N.pl3     1 <1>        -0.819900 
     31 H           9.873000    0.529000   11.035000 H         1 <1>         0.384100 
     32 H           8.892000    1.091000   12.375000 H         1 <1>         0.379600 
@<TRIPOS>BOND
     1    1    2 ar   
     2    2    3 ar   
     3    3    4 ar   
     4    4    5 ar   
     5    5    6 ar   
     6    6    1 ar   
     7    6    7 1    
     8    7    8 1    
     9    7    9 1    
    10    5   10 ar   
    11   10   11 ar   
    12   11   12 1    
    13   11   13 ar   
    14   13    4 ar   
    15   10   14 1    
    16   14   15 1    
    17   14   16 1    
    18   14   17 1    
    19   17   18 1    
    20   17   19 1    
    21   19   20 ar   
    22   20   21 1    
    23   20   22 ar   
    24   22   23 1    
    25   22   24 ar   
    26   24   25 ar   
    27   25   26 ar   
    28   26   27 1    
    29   26   19 ar   
    30   25   28 1    
    31   24   29 1    
    32    2   30 1    
    33   30   31 1    
    34   30   32 1    
@<TRIPOS>SUBSTRUCTURE
     1 ****        1 TEMP              0 ****  ****    0 ROOT 
@<TRIPOS>SET
UNITY_3DHIT     STATIC     ATOMS    <user>   **** Atoms matching 3D or FLEX Search
0
