#	Name:			33-6
#	Creating user name:	jeff
#	Creation time:		Thu Dec  4 18:13:43 2003

#	Modifying user name:	jeff
#	Modification time:	Thu Dec  4 18:13:43 2003

@<TRIPOS>MOLECULE
33-6
   40    42     1     0     1
SMALL
USER_CHARGES
****
From 3DB ct
@<TRIPOS>ATOM
      1 N          10.466000    2.732000   13.248000 N.ar      1 <1>        -0.724700 
      2 C          10.743000    1.954000   12.190000 C.ar      1 <1>         0.822000 
      3 N          11.854000    1.998000   11.456000 N.ar      1 <1>        -0.675000 
      4 C          12.709000    2.933000   11.881000 C.ar      1 <1>         0.572700 
      5 C          12.546000    3.803000   12.946000 C.ar      1 <1>        -0.696600 
      6 C          11.346000    3.679000   13.649000 C.ar      1 <1>         0.830600 
      7 N          10.995000    4.463000   14.718000 N.pl3     1 <1>        -0.796700 
      8 H          11.545000    5.262000   15.005000 H         1 <1>         0.342400 
      9 H          10.098000    4.315000   15.166000 H         1 <1>         0.335300 
     10 C          13.731000    4.606000   12.994000 C.ar      1 <1>         0.142000 
     11 C          14.517000    4.162000   11.947000 C.ar      1 <1>        -0.127400 
     12 H          15.490000    4.455000   11.574000 H         1 <1>         0.214200 
     13 O          13.908000    3.155000   11.274000 O.3       1 <1>        -0.156600 
     14 C          14.070000    5.699000   13.955000 C.3       1 <1>         0.017800 
     15 H          14.284000    5.241000   14.930000 H         1 <1>         0.073400 
     16 H          13.180000    6.327000   14.077000 H         1 <1>         0.093800 
     17 N          15.205000    6.514000   13.551000 N.pl3     1 <1>        -0.554200 
     18 H          15.915000    6.662000   14.266000 H         1 <1>         0.309700 
     19 C          15.341000    7.205000   12.356000 C.ar      1 <1>         0.269800 
     20 C          14.151000    7.497000   11.657000 C.ar      1 <1>        -0.386700 
     21 H          13.196000    7.179000   12.074000 H         1 <1>         0.157900 
     22 C          14.143000    8.172000   10.430000 C.ar      1 <1>         0.353400 
     23 C          15.349000    8.581000    9.881000 C.ar      1 <1>        -0.315200 
     24 H          15.404000    9.113000    8.935000 H         1 <1>         0.135600 
     25 C          16.547000    8.314000   10.552000 C.ar      1 <1>        -0.102900 
     26 H          17.466000    8.643000   10.072000 H         1 <1>         0.122800 
     27 C          16.556000    7.639000   11.783000 C.ar      1 <1>         0.037300 
     28 O          17.715000    7.356000   12.462000 O.3       1 <1>        -0.247400 
     29 C          18.946000    7.737000   11.849000 C.3       1 <1>        -0.017300 
     30 H          19.740000    7.607000   12.591000 H         1 <1>         0.068100 
     31 H          18.934000    8.792000   11.553000 H         1 <1>         0.048200 
     32 H          19.175000    7.088000   10.998000 H         1 <1>         0.048100 
     33 O          12.904000    8.363000    9.884000 O.3       1 <1>        -0.300900 
     34 C          12.859000    8.985000    8.600000 C.3       1 <1>         0.052300 
     35 H          11.812000    9.017000    8.282000 H         1 <1>         0.056800 
     36 H          13.417000    8.402000    7.860000 H         1 <1>         0.031500 
     37 H          13.222000   10.017000    8.649000 H         1 <1>         0.029600 
     38 N           9.797000    1.043000   11.827000 N.pl3     1 <1>        -0.822000 
     39 H           9.955000    0.450000   11.026000 H         1 <1>         0.380500 
     40 H           8.937000    0.983000   12.351000 H         1 <1>         0.377600 
@<TRIPOS>BOND
     1    1    2 ar   
     2    2    3 ar   
     3    3    4 ar   
     4    4    5 ar   
     5    5    6 ar   
     6    6    1 ar   
     7    6    7 1    
     8    7    8 1    
     9    7    9 1    
    10    5   10 ar   
    11   10   11 ar   
    12   11   12 1    
    13   11   13 ar   
    14   13    4 ar   
    15   10   14 1    
    16   14   15 1    
    17   14   16 1    
    18   14   17 1    
    19   17   18 1    
    20   17   19 1    
    21   19   20 ar   
    22   20   21 1    
    23   20   22 ar   
    24   22   23 ar   
    25   23   24 1    
    26   23   25 ar   
    27   25   26 1    
    28   25   27 ar   
    29   27   19 ar   
    30   27   28 1    
    31   28   29 1    
    32   29   30 1    
    33   29   31 1    
    34   29   32 1    
    35   22   33 1    
    36   33   34 1    
    37   34   35 1    
    38   34   36 1    
    39   34   37 1    
    40    2   38 1    
    41   38   39 1    
    42   38   40 1    
@<TRIPOS>SUBSTRUCTURE
     1 ****        1 TEMP              0 ****  ****    0 ROOT 
@<TRIPOS>SET
UNITY_3DHIT     STATIC     ATOMS    <user>   **** Atoms matching 3D or FLEX Search
0
