#	Name:			34-2
#	Creating user name:	jeff
#	Creation time:		Thu Dec  4 18:13:43 2003

#	Modifying user name:	jeff
#	Modification time:	Thu Dec  4 18:13:43 2003

@<TRIPOS>MOLECULE
34-2
   41    43     1     0     1
SMALL
USER_CHARGES
****
From 3DB ct
@<TRIPOS>ATOM
      1 N          10.493000    2.795000   13.265000 N.ar      1 <1>        -0.724900 
      2 C          10.732000    2.003000   12.208000 C.ar      1 <1>         0.839500 
      3 N          11.841000    2.003000   11.465000 N.ar      1 <1>        -0.678100 
      4 C          12.744000    2.907000   11.873000 C.ar      1 <1>         0.469900 
      5 C          12.620000    3.787000   12.938000 C.ar      1 <1>        -0.613200 
      6 C          11.420000    3.698000   13.661000 C.ar      1 <1>         0.796100 
      7 N          11.109000    4.462000   14.758000 N.pl3     1 <1>        -0.780500 
      8 H          11.735000    5.143000   15.160000 H         1 <1>         0.336500 
      9 H          10.217000    4.311000   15.215000 H         1 <1>         0.331300 
     10 C          13.829000    4.567000   12.983000 C.ar      1 <1>         0.049400 
     11 C          14.634000    4.100000   11.954000 C.ar      1 <1>        -0.158900 
     12 H          15.627000    4.386000   11.631000 H         1 <1>         0.225100 
     13 N          13.963000    3.106000   11.288000 N.pl3     1 <1>        -0.335100 
     14 H          14.311000    2.589000   10.490000 H         1 <1>         0.318800 
     15 C          14.144000    5.657000   13.972000 C.3       1 <1>         0.163400 
     16 H          14.416000    5.166000   14.915000 H         1 <1>         0.021300 
     17 H          13.226000    6.232000   14.143000 H         1 <1>         0.062600 
     18 N          15.197000    6.594000   13.601000 N.pl3     1 <1>        -0.682200 
     19 H          15.994000    6.644000   14.231000 H         1 <1>         0.332700 
     20 C          15.277000    7.255000   12.392000 C.ar      1 <1>         0.417300 
     21 C          14.094000    7.535000   11.700000 C.ar      1 <1>        -0.316900 
     22 H          13.132000    7.247000   12.125000 H         1 <1>         0.154700 
     23 C          14.103000    8.187000   10.461000 C.ar      1 <1>        -0.057300 
     24 H          13.145000    8.374000    9.985000 H         1 <1>         0.126900 
     25 C          15.310000    8.568000    9.878000 C.ar      1 <1>         0.016400 
     26 C          16.515000    8.286000   10.548000 C.ar      1 <1>         0.255600 
     27 C          16.485000    7.632000   11.792000 C.ar      1 <1>        -0.431400 
     28 H          17.414000    7.413000   12.308000 H         1 <1>         0.145700 
     29 O          17.664000    8.687000    9.908000 O.3       1 <1>        -0.217100 
     30 C          18.906000    8.419000   10.554000 C.3       1 <1>        -0.053500 
     31 H          19.705000    8.796000    9.908000 H         1 <1>         0.075100 
     32 H          19.060000    7.343000   10.680000 H         1 <1>         0.055500 
     33 H          18.974000    8.948000   11.510000 H         1 <1>         0.060600 
     34 O          15.425000    9.210000    8.670000 O.3       1 <1>        -0.287700 
     35 C          16.741000    9.528000    8.222000 C.3       1 <1>         0.126800 
     36 H          16.651000   10.019000    7.248000 H         1 <1>         0.025500 
     37 H          17.340000    8.622000    8.084000 H         1 <1>         0.011700 
     38 H          17.230000   10.230000    8.905000 H         1 <1>         0.005900 
     39 N           9.754000    1.119000   11.864000 N.pl3     1 <1>        -0.856600 
     40 H           9.889000    0.507000   11.074000 H         1 <1>         0.385000 
     41 H           8.898000    1.091000   12.398000 H         1 <1>         0.384000 
@<TRIPOS>BOND
     1    1    2 ar   
     2    2    3 ar   
     3    3    4 ar   
     4    4    5 ar   
     5    5    6 ar   
     6    6    1 ar   
     7    6    7 1    
     8    7    8 1    
     9    7    9 1    
    10    5   10 ar   
    11   10   11 ar   
    12   11   12 1    
    13   11   13 ar   
    14   13   14 1    
    15   13    4 ar   
    16   10   15 1    
    17   15   16 1    
    18   15   17 1    
    19   15   18 1    
    20   18   19 1    
    21   18   20 1    
    22   20   21 ar   
    23   21   22 1    
    24   21   23 ar   
    25   23   24 1    
    26   23   25 ar   
    27   25   26 ar   
    28   26   27 ar   
    29   27   28 1    
    30   27   20 ar   
    31   26   29 1    
    32   29   30 1    
    33   30   31 1    
    34   30   32 1    
    35   30   33 1    
    36   25   34 1    
    37   34   35 1    
    38   35   36 1    
    39   35   37 1    
    40   35   38 1    
    41    2   39 1    
    42   39   40 1    
    43   39   41 1    
@<TRIPOS>SUBSTRUCTURE
     1 ****        1 TEMP              0 ****  ****    0 ROOT 
@<TRIPOS>SET
UNITY_3DHIT     STATIC     ATOMS    <user>   **** Atoms matching 3D or FLEX Search
0
