#	Name:			34-3
#	Creating user name:	jeff
#	Creation time:		Thu Dec  4 18:13:43 2003

#	Modifying user name:	jeff
#	Modification time:	Thu Dec  4 18:13:44 2003

@<TRIPOS>MOLECULE
34-3
   37    39     1     0     1
SMALL
USER_CHARGES
****
From 3DB ct
@<TRIPOS>ATOM
      1 N          10.498000    2.801000   13.272000 N.ar      1 <1>        -0.723800 
      2 C          10.727000    2.016000   12.208000 C.ar      1 <1>         0.839100 
      3 N          11.834000    2.011000   11.463000 N.ar      1 <1>        -0.677600 
      4 C          12.746000    2.903000   11.876000 C.ar      1 <1>         0.463700 
      5 C          12.633000    3.775000   12.948000 C.ar      1 <1>        -0.603200 
      6 C          11.433000    3.692000   13.673000 C.ar      1 <1>         0.788800 
      7 N          11.133000    4.450000   14.777000 N.pl3     1 <1>        -0.775000 
      8 H          11.767000    5.122000   15.182000 H         1 <1>         0.334900 
      9 H          10.240000    4.306000   15.233000 H         1 <1>         0.329800 
     10 C          13.850000    4.542000   12.997000 C.ar      1 <1>         0.045400 
     11 C          14.648000    4.075000   11.963000 C.ar      1 <1>        -0.171200 
     12 H          15.645000    4.354000   11.641000 H         1 <1>         0.230300 
     13 N          13.966000    3.094000   11.290000 N.pl3     1 <1>        -0.325600 
     14 H          14.307000    2.580000   10.487000 H         1 <1>         0.316900 
     15 C          14.180000    5.621000   13.994000 C.3       1 <1>         0.170100 
     16 H          14.522000    5.120000   14.909000 H         1 <1>         0.023400 
     17 H          13.253000    6.158000   14.230000 H         1 <1>         0.051200 
     18 N          15.177000    6.604000   13.587000 N.pl3     1 <1>        -0.687500 
     19 H          15.984000    6.705000   14.198000 H         1 <1>         0.336400 
     20 C          15.198000    7.239000   12.364000 C.ar      1 <1>         0.345900 
     21 C          16.431000    7.618000   11.817000 C.ar      1 <1>        -0.306300 
     22 H          17.354000    7.395000   12.352000 H         1 <1>         0.136500 
     23 C          16.521000    8.284000   10.586000 C.ar      1 <1>        -0.142000 
     24 H          17.512000    8.544000   10.223000 H         1 <1>         0.115800 
     25 C          15.367000    8.594000    9.875000 C.ar      1 <1>         0.242200 
     26 C          14.131000    8.233000   10.410000 C.ar      1 <1>        -0.231600 
     27 H          13.214000    8.469000    9.872000 H         1 <1>         0.145700 
     28 C          14.049000    7.567000   11.641000 C.ar      1 <1>        -0.180700 
     29 H          13.059000    7.313000   12.012000 H         1 <1>         0.139100 
     30 O          15.310000    9.236000    8.670000 O.3       1 <1>        -0.305100 
     31 C          16.556000    9.621000    8.090000 C.3       1 <1>         0.066300 
     32 H          16.341000   10.114000    7.137000 H         1 <1>         0.054800 
     33 H          17.179000    8.746000    7.880000 H         1 <1>         0.019000 
     34 H          17.081000   10.340000    8.727000 H         1 <1>         0.023200 
     35 N           9.740000    1.143000   11.861000 N.pl3     1 <1>        -0.857200 
     36 H           9.870000    0.532000   11.068000 H         1 <1>         0.385100 
     37 H           8.888000    1.114000   12.400000 H         1 <1>         0.383500 
@<TRIPOS>BOND
     1    1    2 ar   
     2    2    3 ar   
     3    3    4 ar   
     4    4    5 ar   
     5    5    6 ar   
     6    6    1 ar   
     7    6    7 1    
     8    7    8 1    
     9    7    9 1    
    10    5   10 ar   
    11   10   11 ar   
    12   11   12 1    
    13   11   13 ar   
    14   13   14 1    
    15   13    4 ar   
    16   10   15 1    
    17   15   16 1    
    18   15   17 1    
    19   15   18 1    
    20   18   19 1    
    21   18   20 1    
    22   20   21 ar   
    23   21   22 1    
    24   21   23 ar   
    25   23   24 1    
    26   23   25 ar   
    27   25   26 ar   
    28   26   27 1    
    29   26   28 ar   
    30   28   29 1    
    31   28   20 ar   
    32   25   30 1    
    33   30   31 1    
    34   31   32 1    
    35   31   33 1    
    36   31   34 1    
    37    2   35 1    
    38   35   36 1    
    39   35   37 1    
@<TRIPOS>SUBSTRUCTURE
     1 ****        1 TEMP              0 ****  ****    0 ROOT 
@<TRIPOS>SET
UNITY_3DHIT     STATIC     ATOMS    <user>   **** Atoms matching 3D or FLEX Search
0
