#	Name:			34-4
#	Creating user name:	jeff
#	Creation time:		Thu Dec  4 18:13:44 2003

#	Modifying user name:	jeff
#	Modification time:	Thu Dec  4 18:13:44 2003

@<TRIPOS>MOLECULE
34-4
   41    43     1     0     1
SMALL
USER_CHARGES
****
From 3DB ct
@<TRIPOS>ATOM
      1 N          10.476000    2.762000   13.250000 N.ar      1 <1>        -0.730400 
      2 C          10.724000    1.973000   12.193000 C.ar      1 <1>         0.842100 
      3 N          11.832000    1.988000   11.448000 N.ar      1 <1>        -0.680800 
      4 C          12.721000    2.906000   11.852000 C.ar      1 <1>         0.477100 
      5 C          12.587000    3.785000   12.916000 C.ar      1 <1>        -0.632500 
      6 C          11.390000    3.679000   13.643000 C.ar      1 <1>         0.807700 
      7 N          11.072000    4.438000   14.741000 N.pl3     1 <1>        -0.784700 
      8 H          11.691000    5.127000   15.141000 H         1 <1>         0.334800 
      9 H          10.183000    4.276000   15.200000 H         1 <1>         0.333100 
     10 C          13.783000    4.584000   12.957000 C.ar      1 <1>         0.063100 
     11 C          14.595000    4.125000   11.929000 C.ar      1 <1>        -0.151100 
     12 H          15.584000    4.424000   11.605000 H         1 <1>         0.223500 
     13 N          13.937000    3.121000   11.265000 N.pl3     1 <1>        -0.344600 
     14 H          14.290000    2.607000   10.468000 H         1 <1>         0.320800 
     15 C          14.083000    5.682000   13.946000 C.3       1 <1>         0.188600 
     16 H          14.327000    5.187000   14.894000 H         1 <1>         0.016500 
     17 H          13.164000    6.265000   14.076000 H         1 <1>         0.061400 
     18 N          15.155000    6.601000   13.592000 N.pl3     1 <1>        -0.634000 
     19 H          15.917000    6.664000   14.264000 H         1 <1>         0.315400 
     20 C          15.309000    7.258000   12.380000 C.ar      1 <1>         0.294400 
     21 C          14.128000    7.538000   11.662000 C.ar      1 <1>        -0.372000 
     22 H          13.166000    7.247000   12.084000 H         1 <1>         0.165100 
     23 C          14.135000    8.182000   10.420000 C.ar      1 <1>         0.331500 
     24 C          15.351000    8.556000    9.864000 C.ar      1 <1>        -0.300600 
     25 H          15.417000    9.060000    8.904000 H         1 <1>         0.132300 
     26 C          16.542000    8.284000   10.545000 C.ar      1 <1>        -0.127200 
     27 H          17.466000    8.599000   10.066000 H         1 <1>         0.126400 
     28 C          16.537000    7.637000   11.791000 C.ar      1 <1>         0.042900 
     29 O          17.686000    7.357000   12.489000 O.3       1 <1>        -0.244300 
     30 C          18.934000    7.712000   11.898000 C.3       1 <1>        -0.020000 
     31 H          19.728000    7.373000   12.571000 H         1 <1>         0.065900 
     32 H          19.026000    8.798000   11.797000 H         1 <1>         0.051000 
     33 H          19.075000    7.206000   10.938000 H         1 <1>         0.046300 
     34 O          12.901000    8.381000    9.866000 O.3       1 <1>        -0.294300 
     35 C          12.867000    8.998000    8.579000 C.3       1 <1>         0.051800 
     36 H          11.818000    9.089000    8.282000 H         1 <1>         0.056500 
     37 H          13.373000    8.376000    7.833000 H         1 <1>         0.029200 
     38 H          13.293000   10.005000    8.614000 H         1 <1>         0.030000 
     39 N           9.758000    1.074000   11.853000 N.pl3     1 <1>        -0.859600 
     40 H           9.901000    0.461000   11.064000 H         1 <1>         0.384700 
     41 H           8.905000    1.032000   12.390000 H         1 <1>         0.384200 
@<TRIPOS>BOND
     1    1    2 ar   
     2    2    3 ar   
     3    3    4 ar   
     4    4    5 ar   
     5    5    6 ar   
     6    6    1 ar   
     7    6    7 1    
     8    7    8 1    
     9    7    9 1    
    10    5   10 ar   
    11   10   11 ar   
    12   11   12 1    
    13   11   13 ar   
    14   13   14 1    
    15   13    4 ar   
    16   10   15 1    
    17   15   16 1    
    18   15   17 1    
    19   15   18 1    
    20   18   19 1    
    21   18   20 1    
    22   20   21 ar   
    23   21   22 1    
    24   21   23 ar   
    25   23   24 ar   
    26   24   25 1    
    27   24   26 ar   
    28   26   27 1    
    29   26   28 ar   
    30   28   20 ar   
    31   28   29 1    
    32   29   30 1    
    33   30   31 1    
    34   30   32 1    
    35   30   33 1    
    36   23   34 1    
    37   34   35 1    
    38   35   36 1    
    39   35   37 1    
    40   35   38 1    
    41    2   39 1    
    42   39   40 1    
    43   39   41 1    
@<TRIPOS>SUBSTRUCTURE
     1 ****        1 TEMP              0 ****  ****    0 ROOT 
@<TRIPOS>SET
UNITY_3DHIT     STATIC     ATOMS    <user>   **** Atoms matching 3D or FLEX Search
0
