#	Name:			34-5
#	Creating user name:	jeff
#	Creation time:		Thu Dec  4 18:13:44 2003

#	Modifying user name:	jeff
#	Modification time:	Thu Dec  4 18:13:44 2003

@<TRIPOS>MOLECULE
34-5
   47    49     1     0     1
SMALL
USER_CHARGES
****
From 3DB ct
@<TRIPOS>ATOM
      1 N          10.464000    2.747000   13.243000 N.ar      1 <1>        -0.726000 
      2 C          10.722000    1.975000   12.177000 C.ar      1 <1>         0.838800 
      3 N          11.841000    1.996000   11.450000 N.ar      1 <1>        -0.678600 
      4 C          12.725000    2.909000   11.875000 C.ar      1 <1>         0.468900 
      5 C          12.576000    3.781000   12.945000 C.ar      1 <1>        -0.612800 
      6 C          11.375000    3.657000   13.662000 C.ar      1 <1>         0.794700 
      7 N          11.043000    4.383000   14.778000 N.pl3     1 <1>        -0.779800 
      8 H          11.668000    5.036000   15.226000 H         1 <1>         0.336500 
      9 H          10.153000    4.197000   15.226000 H         1 <1>         0.332200 
     10 C          13.765000    4.592000   12.991000 C.ar      1 <1>         0.060400 
     11 C          14.594000    4.129000   11.978000 C.ar      1 <1>        -0.157300 
     12 H          15.586000    4.437000   11.669000 H         1 <1>         0.227300 
     13 N          13.949000    3.125000   11.306000 N.pl3     1 <1>        -0.338000 
     14 H          14.312000    2.614000   10.510000 H         1 <1>         0.318700 
     15 C          14.069000    5.713000   13.951000 C.3       1 <1>         0.148500 
     16 H          14.280000    5.248000   14.922000 H         1 <1>         0.026200 
     17 H          13.173000    6.335000   14.041000 H         1 <1>         0.062900 
     18 N          15.174000    6.584000   13.570000 N.pl3     1 <1>        -0.640800 
     19 H          15.961000    6.593000   14.216000 H         1 <1>         0.327600 
     20 C          15.322000    7.245000   12.360000 C.ar      1 <1>         0.378000 
     21 C          14.139000    7.525000   11.645000 C.ar      1 <1>        -0.375400 
     22 H          13.179000    7.224000   12.065000 H         1 <1>         0.174200 
     23 C          14.142000    8.186000   10.413000 C.ar      1 <1>         0.287600 
     24 C          15.354000    8.579000    9.864000 C.ar      1 <1>        -0.298200 
     25 H          15.416000    9.100000    8.912000 H         1 <1>         0.112200 
     26 C          16.547000    8.307000   10.541000 C.ar      1 <1>        -0.059400 
     27 H          17.468000    8.637000   10.067000 H         1 <1>         0.095800 
     28 C          16.546000    7.642000   11.777000 C.ar      1 <1>        -0.076800 
     29 O          17.696000    7.356000   12.470000 O.3       1 <1>        -0.269500 
     30 C          18.949000    7.719000   11.885000 C.3       1 <1>         0.228100 
     31 H          19.029000    8.809000   11.813000 H         1 <1>         0.014100 
     32 H          19.057000    7.260000   10.896000 H         1 <1>         0.011900 
     33 C          20.048000    7.200000   12.794000 C.3       1 <1>        -0.238600 
     34 H          21.035000    7.452000   12.396000 H         1 <1>         0.057800 
     35 H          19.977000    6.112000   12.903000 H         1 <1>         0.067600 
     36 H          19.952000    7.628000   13.798000 H         1 <1>         0.067900 
     37 O          12.906000    8.384000    9.861000 O.3       1 <1>        -0.325300 
     38 C          12.862000    9.001000    8.570000 C.3       1 <1>         0.265600 
     39 H          13.379000    8.376000    7.833000 H         1 <1>         0.001300 
     40 H          13.319000    9.997000    8.609000 H         1 <1>         0.002000 
     41 C          11.404000    9.139000    8.169000 C.3       1 <1>        -0.224800 
     42 H          11.312000    9.602000    7.183000 H         1 <1>         0.048300 
     43 H          10.860000    9.749000    8.898000 H         1 <1>         0.068500 
     44 H          10.916000    8.159000    8.146000 H         1 <1>         0.068200 
     45 N           9.756000    1.088000   11.807000 N.pl3     1 <1>        -0.859400 
     46 H           9.902000    0.498000   11.001000 H         1 <1>         0.385000 
     47 H           8.890000    1.047000   12.324000 H         1 <1>         0.383800 
@<TRIPOS>BOND
     1    1    2 ar   
     2    2    3 ar   
     3    3    4 ar   
     4    4    5 ar   
     5    5    6 ar   
     6    6    1 ar   
     7    6    7 1    
     8    7    8 1    
     9    7    9 1    
    10    5   10 ar   
    11   10   11 ar   
    12   11   12 1    
    13   11   13 ar   
    14   13   14 1    
    15   13    4 ar   
    16   10   15 1    
    17   15   16 1    
    18   15   17 1    
    19   15   18 1    
    20   18   19 1    
    21   18   20 1    
    22   20   21 ar   
    23   21   22 1    
    24   21   23 ar   
    25   23   24 ar   
    26   24   25 1    
    27   24   26 ar   
    28   26   27 1    
    29   26   28 ar   
    30   28   20 ar   
    31   28   29 1    
    32   29   30 1    
    33   30   31 1    
    34   30   32 1    
    35   30   33 1    
    36   33   34 1    
    37   33   35 1    
    38   33   36 1    
    39   23   37 1    
    40   37   38 1    
    41   38   39 1    
    42   38   40 1    
    43   38   41 1    
    44   41   42 1    
    45   41   43 1    
    46   41   44 1    
    47    2   45 1    
    48   45   46 1    
    49   45   47 1    
@<TRIPOS>SUBSTRUCTURE
     1 ****        1 TEMP              0 ****  ****    0 ROOT 
@<TRIPOS>SET
UNITY_3DHIT     STATIC     ATOMS    <user>   **** Atoms matching 3D or FLEX Search
0
