#	Name:			34-6
#	Creating user name:	jeff
#	Creation time:		Thu Dec  4 18:13:44 2003

#	Modifying user name:	jeff
#	Modification time:	Thu Dec  4 18:13:44 2003

@<TRIPOS>MOLECULE
34-6
   33    35     1     0     1
SMALL
USER_CHARGES
****
From 3DB ct
@<TRIPOS>ATOM
      1 N          10.495000    2.790000   13.267000 N.ar      1 <1>        -0.720100 
      2 C          10.717000    2.005000   12.201000 C.ar      1 <1>         0.834900 
      3 N          11.818000    2.002000   11.447000 N.ar      1 <1>        -0.675600 
      4 C          12.733000    2.893000   11.854000 C.ar      1 <1>         0.459400 
      5 C          12.628000    3.764000   12.929000 C.ar      1 <1>        -0.578200 
      6 C          11.434000    3.681000   13.662000 C.ar      1 <1>         0.779800 
      7 N          11.140000    4.439000   14.767000 N.pl3     1 <1>        -0.776800 
      8 H          11.775000    5.114000   15.166000 H         1 <1>         0.329600 
      9 H          10.250000    4.296000   15.230000 H         1 <1>         0.334100 
     10 C          13.846000    4.530000   12.972000 C.ar      1 <1>        -0.025500 
     11 C          14.636000    4.066000   11.929000 C.ar      1 <1>        -0.136400 
     12 H          15.630000    4.344000   11.600000 H         1 <1>         0.214700 
     13 N          13.949000    3.086000   11.259000 N.pl3     1 <1>        -0.325600 
     14 H          14.283000    2.574000   10.453000 H         1 <1>         0.319300 
     15 C          14.183000    5.605000   13.970000 C.3       1 <1>         0.294200 
     16 H          14.527000    5.101000   14.881000 H         1 <1>         0.012400 
     17 H          13.258000    6.143000   14.211000 H         1 <1>         0.039000 
     18 N          15.181000    6.587000   13.563000 N.pl3     1 <1>        -0.846000 
     19 H          15.984000    6.692000   14.179000 H         1 <1>         0.385900 
     20 C          15.201000    7.234000   12.345000 C.ar      1 <1>         0.519300 
     21 C          13.983000    7.518000   11.713000 C.ar      1 <1>        -0.342700 
     22 H          13.043000    7.245000   12.192000 H         1 <1>         0.153500 
     23 C          13.934000    8.154000   10.467000 C.ar      1 <1>         0.151400 
     24 H          12.968000    8.360000   10.013000 H         1 <1>         0.066300 
     25 C          15.115000    8.513000    9.822000 C.ar      1 <1>        -0.292200 
     26 C          16.341000    8.231000   10.428000 C.ar      1 <1>        -0.117400 
     27 C          16.378000    7.593000   11.678000 C.ar      1 <1>        -0.166100 
     28 H          17.348000    7.385000   12.123000 H         1 <1>         0.081800 
     29 Cl         17.851000    8.641000    9.688000 Cl        1 <1>         0.055400 
     30 Cl         14.996000    9.296000    8.286000 Cl        1 <1>         0.052600 
     31 N           9.727000    1.132000   11.861000 N.pl3     1 <1>        -0.850700 
     32 H           9.851000    0.522000   11.067000 H         1 <1>         0.386100 
     33 H           8.879000    1.103000   12.406000 H         1 <1>         0.383900 
@<TRIPOS>BOND
     1    1    2 ar   
     2    2    3 ar   
     3    3    4 ar   
     4    4    5 ar   
     5    5    6 ar   
     6    6    1 ar   
     7    6    7 1    
     8    7    8 1    
     9    7    9 1    
    10    5   10 ar   
    11   10   11 ar   
    12   11   12 1    
    13   11   13 ar   
    14   13   14 1    
    15   13    4 ar   
    16   10   15 1    
    17   15   16 1    
    18   15   17 1    
    19   15   18 1    
    20   18   19 1    
    21   18   20 1    
    22   20   21 ar   
    23   21   22 1    
    24   21   23 ar   
    25   23   24 1    
    26   23   25 ar   
    27   25   26 ar   
    28   26   27 ar   
    29   27   28 1    
    30   27   20 ar   
    31   26   29 1    
    32   25   30 1    
    33    2   31 1    
    34   31   32 1    
    35   31   33 1    
@<TRIPOS>SUBSTRUCTURE
     1 ****        1 TEMP              0 ****  ****    0 ROOT 
@<TRIPOS>SET
UNITY_3DHIT     STATIC     ATOMS    <user>   **** Atoms matching 3D or FLEX Search
0
