#	Name:			34-7
#	Creating user name:	jeff
#	Creation time:		Thu Dec  4 18:13:44 2003

#	Modifying user name:	jeff
#	Modification time:	Thu Dec  4 18:13:44 2003

@<TRIPOS>MOLECULE
34-7
   39    42     1     0     1
SMALL
USER_CHARGES
****
From 3DB ct
@<TRIPOS>ATOM
      1 N          10.486000    2.779000   13.260000 N.ar      1 <1>        -0.726000 
      2 C          10.719000    1.999000   12.193000 C.ar      1 <1>         0.841800 
      3 N          11.826000    2.003000   11.447000 N.ar      1 <1>        -0.675300 
      4 C          12.732000    2.900000   11.861000 C.ar      1 <1>         0.447600 
      5 C          12.614000    3.770000   12.936000 C.ar      1 <1>        -0.594300 
      6 C          11.417000    3.675000   13.664000 C.ar      1 <1>         0.793500 
      7 N          11.113000    4.423000   14.773000 N.pl3     1 <1>        -0.786500 
      8 H          11.746000    5.090000   15.186000 H         1 <1>         0.339100 
      9 H          10.223000    4.269000   15.232000 H         1 <1>         0.333700 
     10 C          13.824000    4.548000   12.981000 C.ar      1 <1>         0.051400 
     11 C          14.626000    4.085000   11.947000 C.ar      1 <1>        -0.176000 
     12 H          15.620000    4.372000   11.627000 H         1 <1>         0.225100 
     13 N          13.950000    3.100000   11.274000 N.pl3     1 <1>        -0.311000 
     14 H          14.293000    2.590000   10.470000 H         1 <1>         0.314400 
     15 C          14.156000    5.632000   13.972000 C.3       1 <1>         0.128300 
     16 H          14.455000    5.133000   14.902000 H         1 <1>         0.027000 
     17 H          13.243000    6.206000   14.170000 H         1 <1>         0.075300 
     18 N          15.196000    6.573000   13.570000 N.pl3     1 <1>        -0.667900 
     19 H          16.030000    6.554000   14.147000 H         1 <1>         0.342400 
     20 C          15.251000    7.224000   12.343000 C.ar      1 <1>         0.382100 
     21 C          14.075000    7.553000   11.647000 C.ar      1 <1>        -0.305600 
     22 H          13.096000    7.283000   12.037000 H         1 <1>         0.141800 
     23 C          14.109000    8.223000   10.425000 C.ar      1 <1>        -0.001900 
     24 H          13.181000    8.455000    9.906000 H         1 <1>         0.103200 
     25 C          15.327000    8.596000    9.873000 C.ar      1 <1>        -0.332400 
     26 H          15.330000    9.118000    8.916000 H         1 <1>         0.141000 
     27 C          16.526000    8.314000   10.536000 C.ar      1 <1>         0.259200 
     28 C          16.507000    7.632000   11.784000 C.ar      1 <1>        -0.199000 
     29 C          17.762000    7.401000   12.403000 C.ar      1 <1>        -0.046300 
     30 H          17.826000    6.898000   13.366000 H         1 <1>         0.074300 
     31 C          18.966000    7.805000   11.819000 C.ar      1 <1>        -0.164700 
     32 H          19.909000    7.606000   12.325000 H         1 <1>         0.110500 
     33 C          18.957000    8.459000   10.596000 C.ar      1 <1>        -0.033600 
     34 H          19.892000    8.776000   10.136000 H         1 <1>         0.092900 
     35 C          17.744000    8.713000    9.961000 C.ar      1 <1>        -0.242400 
     36 H          17.758000    9.234000    9.003000 H         1 <1>         0.127200 
     37 N           9.737000    1.122000   11.842000 N.pl3     1 <1>        -0.859000 
     38 H           9.867000    0.520000   11.043000 H         1 <1>         0.385600 
     39 H           8.882000    1.091000   12.377000 H         1 <1>         0.384700 
@<TRIPOS>BOND
     1    1    2 ar   
     2    2    3 ar   
     3    3    4 ar   
     4    4    5 ar   
     5    5    6 ar   
     6    6    1 ar   
     7    6    7 1    
     8    7    8 1    
     9    7    9 1    
    10    5   10 ar   
    11   10   11 ar   
    12   11   12 1    
    13   11   13 ar   
    14   13   14 1    
    15   13    4 ar   
    16   10   15 1    
    17   15   16 1    
    18   15   17 1    
    19   15   18 1    
    20   18   19 1    
    21   18   20 1    
    22   20   21 ar   
    23   21   22 1    
    24   21   23 ar   
    25   23   24 1    
    26   23   25 ar   
    27   25   26 1    
    28   25   27 ar   
    29   27   28 ar   
    30   28   20 ar   
    31   28   29 ar   
    32   29   30 1    
    33   29   31 ar   
    34   31   32 1    
    35   31   33 ar   
    36   33   34 1    
    37   33   35 ar   
    38   35   36 1    
    39   35   27 ar   
    40    2   37 1    
    41   37   38 1    
    42   37   39 1    
@<TRIPOS>SUBSTRUCTURE
     1 ****        1 TEMP              0 ****  ****    0 ROOT 
@<TRIPOS>SET
UNITY_3DHIT     STATIC     ATOMS    <user>   **** Atoms matching 3D or FLEX Search
0
