#	Name:			34-9
#	Creating user name:	jeff
#	Creation time:		Thu Dec  4 18:13:44 2003

#	Modifying user name:	jeff
#	Modification time:	Thu Dec  4 18:13:44 2003

@<TRIPOS>MOLECULE
34-9
   50    52     1     0     1
SMALL
USER_CHARGES
****
From 3DB ct
@<TRIPOS>ATOM
      1 N          10.491000    2.786000   13.264000 N.ar      1 <1>        -0.729100 
      2 C          10.717000    2.005000   12.196000 C.ar      1 <1>         0.816800 
      3 N          11.822000    2.004000   11.448000 N.ar      1 <1>        -0.668500 
      4 C          12.734000    2.897000   11.860000 C.ar      1 <1>         0.457500 
      5 C          12.623000    3.766000   12.936000 C.ar      1 <1>        -0.612200 
      6 C          11.427000    3.677000   13.666000 C.ar      1 <1>         0.810500 
      7 N          11.129000    4.425000   14.777000 N.pl3     1 <1>        -0.805300 
      8 H          11.767000    5.087000   15.192000 H         1 <1>         0.351000 
      9 H          10.238000    4.276000   15.236000 H         1 <1>         0.324800 
     10 C          13.838000    4.537000   12.979000 C.ar      1 <1>         0.073800 
     11 C          14.635000    4.070000   11.943000 C.ar      1 <1>        -0.154300 
     12 H          15.631000    4.351000   11.622000 H         1 <1>         0.235600 
     13 N          13.952000    3.090000   11.270000 N.pl3     1 <1>        -0.327200 
     14 H          14.290000    2.577000   10.466000 H         1 <1>         0.318000 
     15 C          14.178000    5.618000   13.969000 C.3       1 <1>         0.158900 
     16 H          14.499000    5.120000   14.893000 H         1 <1>         0.021400 
     17 H          13.263000    6.181000   14.188000 H         1 <1>         0.050400 
     18 N          15.197000    6.575000   13.556000 N.pl3     1 <1>        -0.723700 
     19 H          16.033000    6.614000   14.136000 H         1 <1>         0.332400 
     20 C          15.211000    7.229000   12.341000 C.ar      1 <1>         0.395700 
     21 C          16.443000    7.621000   11.798000 C.ar      1 <1>        -0.358000 
     22 H          17.368000    7.401000   12.332000 H         1 <1>         0.114400 
     23 C          16.526000    8.296000   10.574000 C.ar      1 <1>         0.019200 
     24 H          17.505000    8.593000   10.207000 H         1 <1>         0.119500 
     25 C          15.361000    8.602000    9.865000 C.ar      1 <1>        -0.148100 
     26 C          14.123000    8.245000   10.406000 C.ar      1 <1>        -0.050300 
     27 H          13.201000    8.483000    9.879000 H         1 <1>         0.134400 
     28 C          14.054000    7.565000   11.630000 C.ar      1 <1>        -0.274600 
     29 H          13.068000    7.304000   12.008000 H         1 <1>         0.116400 
     30 C          15.162000    9.045000    8.652000 C.2       1 <1>         0.577100 
     31 N          14.014000    8.909000    7.974000 N.am      1 <1>        -0.548500 
     32 H          13.364000    8.373000    8.292000 H         1 <1>         0.314900 
     33 C          13.718000    9.581000    6.719000 C.3       1 <1>         0.042500 
     34 H          14.308000   10.322000    6.648000 H         1 <1>         0.051200 
     35 C          12.287000   10.129000    6.681000 C.2       1 <1>         0.519300 
     36 O          12.230000   11.054000    5.796000 O.3       1 <1>        -0.677800 
     37 O          11.563000    9.513000    7.512000 O.2       1 <1>        -0.705900 
     38 C          13.902000    8.730000    5.467000 C.3       1 <1>        -0.029400 
     39 H          13.560000    7.858000    5.624000 H         1 <1>         0.032100 
     40 H          13.458000    9.130000    4.729000 H         1 <1>         0.032500 
     41 C          15.373000    8.719000    5.240000 C.3       1 <1>        -0.146700 
     42 H          15.678000    9.607000    5.097000 H         1 <1>         0.009700 
     43 H          15.806000    8.357000    6.004000 H         1 <1>        -0.001300 
     44 C          15.705000    7.907000    4.066000 C.2       1 <1>         0.603800 
     45 O          16.765000    7.118000    4.019000 O.2       1 <1>        -0.746800 
     46 O          14.939000    7.880000    2.975000 O.3       1 <1>        -0.718000 
     47 O          16.100000    9.592000    8.042000 O.2       1 <1>        -0.503500 
     48 N           9.731000    1.133000   11.848000 N.pl3     1 <1>        -0.852100 
     49 H           9.859000    0.527000   11.050000 H         1 <1>         0.375400 
     50 H           8.879000    1.101000   12.387000 H         1 <1>         0.372100 
@<TRIPOS>BOND
     1    1    2 ar   
     2    2    3 ar   
     3    3    4 ar   
     4    4    5 ar   
     5    5    6 ar   
     6    6    1 ar   
     7    6    7 1    
     8    7    8 1    
     9    7    9 1    
    10    5   10 ar   
    11   10   11 ar   
    12   11   12 1    
    13   11   13 ar   
    14   13   14 1    
    15   13    4 ar   
    16   10   15 1    
    17   15   16 1    
    18   15   17 1    
    19   15   18 1    
    20   18   19 1    
    21   18   20 1    
    22   20   21 ar   
    23   21   22 1    
    24   21   23 ar   
    25   23   24 1    
    26   23   25 ar   
    27   25   26 ar   
    28   26   27 1    
    29   26   28 ar   
    30   28   29 1    
    31   28   20 ar   
    32   25   30 1    
    33   30   31 am   
    34   31   32 1    
    35   31   33 1    
    36   33   34 1    
    37   33   35 1    
    38   35   36 1    
    39   35   37 2    
    40   33   38 1    
    41   38   39 1    
    42   38   40 1    
    43   38   41 1    
    44   41   42 1    
    45   41   43 1    
    46   41   44 1    
    47   44   45 2    
    48   44   46 1    
    49   30   47 2    
    50    2   48 1    
    51   48   49 1    
    52   48   50 1    
@<TRIPOS>SUBSTRUCTURE
     1 ****        1 TEMP              0 ****  ****    0 ROOT 
@<TRIPOS>SET
UNITY_3DHIT     STATIC     ATOMS    <user>   **** Atoms matching 3D or FLEX Search
0
@<TRIPOS>UNITY_ATOM_ATTR
36 1
AtomExpr -1
46 1
AtomExpr -1
