#	Name:			35-10
#	Creating user name:	jeff
#	Creation time:		Thu Dec  4 18:13:44 2003

#	Modifying user name:	jeff
#	Modification time:	Thu Dec  4 18:13:44 2003

@<TRIPOS>MOLECULE
35-10
   53    55     1     0     1
SMALL
USER_CHARGES
****
From 3DB ct
@<TRIPOS>ATOM
      1 N          10.484000    2.795000   13.260000 N.ar      1 <1>        -0.745600 
      2 C          10.726000    2.009000   12.199000 C.ar      1 <1>         0.853500 
      3 N          11.841000    2.002000   11.463000 N.ar      1 <1>        -0.680700 
      4 C          12.746000    2.898000   11.880000 C.ar      1 <1>         0.482200 
      5 C          12.618000    3.771000   12.949000 C.ar      1 <1>        -0.648600 
      6 C          11.418000    3.683000   13.669000 C.ar      1 <1>         0.802200 
      7 N          11.134000    4.440000   14.778000 N.pl3     1 <1>        -0.770900 
      8 H          11.856000    5.001000   15.219000 H         1 <1>         0.334800 
      9 H          10.270000    4.279000   15.280000 H         1 <1>         0.323500 
     10 C          13.820000    4.553000   13.002000 C.ar      1 <1>         0.145800 
     11 C          14.631000    4.103000   11.971000 C.ar      1 <1>        -0.151200 
     12 H          15.618000    4.411000   11.649000 H         1 <1>         0.250700 
     13 N          13.970000    3.101000   11.304000 N.pl3     1 <1>        -0.354600 
     14 H          14.322000    2.591000   10.503000 H         1 <1>         0.328000 
     15 C          14.136000    5.666000   13.967000 C.3       1 <1>        -0.038900 
     16 H          14.366000    5.161000   14.915000 H         1 <1>         0.059800 
     17 H          13.228000    6.258000   14.140000 H         1 <1>         0.077900 
     18 N          15.229000    6.595000   13.617000 N.pl3     1 <1>        -0.378700 
     19 C          15.267000    7.250000   12.390000 C.ar      1 <1>         0.254500 
     20 C          16.471000    7.638000   11.780000 C.ar      1 <1>        -0.258000 
     21 H          17.430000    7.458000   12.262000 H         1 <1>         0.100500 
     22 C          16.508000    8.293000   10.536000 C.ar      1 <1>        -0.029100 
     23 H          17.480000    8.539000   10.120000 H         1 <1>         0.124200 
     24 C          15.324000    8.589000    9.860000 C.ar      1 <1>        -0.117400 
     25 C          14.114000    8.201000   10.438000 C.ar      1 <1>        -0.043600 
     26 H          13.170000    8.403000    9.933000 H         1 <1>         0.129900 
     27 C          14.092000    7.546000   11.679000 C.ar      1 <1>        -0.272100 
     28 H          13.117000    7.257000   12.069000 H         1 <1>         0.126400 
     29 C          15.162000    9.045000    8.652000 C.2       1 <1>         0.559000 
     30 N          14.014000    8.909000    7.974000 N.am      1 <1>        -0.543600 
     31 H          13.364000    8.373000    8.292000 H         1 <1>         0.312400 
     32 C          13.718000    9.581000    6.719000 C.3       1 <1>         0.052300 
     33 H          14.308000   10.322000    6.648000 H         1 <1>         0.044700 
     34 C          12.287000   10.129000    6.681000 C.2       1 <1>         0.515800 
     35 O          12.230000   11.054000    5.796000 O.3       1 <1>        -0.678300 
     36 O          11.563000    9.513000    7.512000 O.2       1 <1>        -0.704000 
     37 C          13.902000    8.730000    5.467000 C.3       1 <1>        -0.005900 
     38 H          13.560000    7.858000    5.624000 H         1 <1>         0.023900 
     39 H          13.458000    9.130000    4.729000 H         1 <1>         0.026100 
     40 C          15.373000    8.719000    5.240000 C.3       1 <1>        -0.160400 
     41 H          15.678000    9.607000    5.097000 H         1 <1>         0.011000 
     42 H          15.806000    8.357000    6.004000 H         1 <1>         0.003100 
     43 C          15.705000    7.907000    4.066000 C.2       1 <1>         0.605600 
     44 O          16.765000    7.118000    4.019000 O.2       1 <1>        -0.748300 
     45 O          14.939000    7.880000    2.975000 O.3       1 <1>        -0.717000 
     46 O          16.100000    9.592000    8.042000 O.2       1 <1>        -0.498300 
     47 C          16.413000    6.622000   14.481000 C.3       1 <1>         0.017900 
     48 H          16.470000    7.574000   15.019000 H         1 <1>         0.041900 
     49 H          17.331000    6.482000   13.899000 H         1 <1>         0.025900 
     50 H          16.403000    5.821000   15.226000 H         1 <1>         0.033200 
     51 N           9.742000    1.135000   11.842000 N.pl3     1 <1>        -0.898600 
     52 H           9.882000    0.521000   11.054000 H         1 <1>         0.389600 
     53 H           8.884000    1.108000   12.373000 H         1 <1>         0.387200 
@<TRIPOS>BOND
     1    1    2 ar   
     2    2    3 ar   
     3    3    4 ar   
     4    4    5 ar   
     5    5    6 ar   
     6    6    1 ar   
     7    6    7 1    
     8    7    8 1    
     9    7    9 1    
    10    5   10 ar   
    11   10   11 ar   
    12   11   12 1    
    13   11   13 ar   
    14   13   14 1    
    15   13    4 ar   
    16   10   15 1    
    17   15   16 1    
    18   15   17 1    
    19   15   18 1    
    20   18   19 1    
    21   19   20 ar   
    22   20   21 1    
    23   20   22 ar   
    24   22   23 1    
    25   22   24 ar   
    26   24   25 ar   
    27   25   26 1    
    28   25   27 ar   
    29   27   28 1    
    30   27   19 ar   
    31   24   29 1    
    32   29   30 am   
    33   30   31 1    
    34   30   32 1    
    35   32   33 1    
    36   32   34 1    
    37   34   35 1    
    38   34   36 2    
    39   32   37 1    
    40   37   38 1    
    41   37   39 1    
    42   37   40 1    
    43   40   41 1    
    44   40   42 1    
    45   40   43 1    
    46   43   44 2    
    47   43   45 1    
    48   29   46 2    
    49   18   47 1    
    50   47   48 1    
    51   47   49 1    
    52   47   50 1    
    53    2   51 1    
    54   51   52 1    
    55   51   53 1    
@<TRIPOS>SUBSTRUCTURE
     1 ****        1 TEMP              0 ****  ****    0 ROOT 
@<TRIPOS>SET
UNITY_3DHIT     STATIC     ATOMS    <user>   **** Atoms matching 3D or FLEX Search
0
@<TRIPOS>UNITY_ATOM_ATTR
35 1
AtomExpr -1
45 1
AtomExpr -1
