#	Name:			35-2
#	Creating user name:	jeff
#	Creation time:		Thu Dec  4 18:13:44 2003

#	Modifying user name:	jeff
#	Modification time:	Thu Dec  4 18:13:44 2003

@<TRIPOS>MOLECULE
35-2
   44    46     1     0     1
SMALL
USER_CHARGES
****
From 3DB ct
@<TRIPOS>ATOM
      1 N          10.470000    2.770000   13.247000 N.ar      1 <1>        -0.729300 
      2 C          10.723000    1.978000   12.192000 C.ar      1 <1>         0.842000 
      3 N          11.839000    1.980000   11.456000 N.ar      1 <1>        -0.675100 
      4 C          12.731000    2.895000   11.864000 C.ar      1 <1>         0.464700 
      5 C          12.590000    3.776000   12.924000 C.ar      1 <1>        -0.629500 
      6 C          11.393000    3.674000   13.647000 C.ar      1 <1>         0.800300 
      7 N          11.108000    4.432000   14.756000 N.pl3     1 <1>        -0.774600 
      8 H          11.859000    4.946000   15.216000 H         1 <1>         0.335200 
      9 H          10.265000    4.239000   15.280000 H         1 <1>         0.329200 
     10 C          13.776000    4.583000   12.964000 C.ar      1 <1>         0.119900 
     11 C          14.595000    4.130000   11.940000 C.ar      1 <1>        -0.126400 
     12 H          15.575000    4.454000   11.611000 H         1 <1>         0.212500 
     13 N          13.951000    3.110000   11.285000 N.pl3     1 <1>        -0.361000 
     14 H          14.310000    2.598000   10.489000 H         1 <1>         0.326100 
     15 C          14.075000    5.724000   13.900000 C.3       1 <1>        -0.013600 
     16 H          14.199000    5.279000   14.897000 H         1 <1>         0.062600 
     17 H          13.185000    6.368000   13.952000 H         1 <1>         0.081800 
     18 N          15.250000    6.561000   13.593000 N.pl3     1 <1>        -0.347300 
     19 C          15.289000    7.238000   12.358000 C.ar      1 <1>         0.318900 
     20 C          14.108000    7.535000   11.652000 C.ar      1 <1>        -0.425200 
     21 H          13.140000    7.236000   12.049000 H         1 <1>         0.165300 
     22 C          14.128000    8.191000   10.415000 C.ar      1 <1>         0.375200 
     23 C          15.348000    8.563000    9.863000 C.ar      1 <1>        -0.286300 
     24 H          15.417000    9.073000    8.906000 H         1 <1>         0.131000 
     25 C          16.539000    8.286000   10.541000 C.ar      1 <1>        -0.137400 
     26 H          17.467000    8.602000   10.071000 H         1 <1>         0.141800 
     27 C          16.522000    7.632000   11.779000 C.ar      1 <1>         0.018100 
     28 O          17.651000    7.361000   12.517000 O.3       1 <1>        -0.240400 
     29 C          18.912000    7.692000   11.943000 C.3       1 <1>        -0.061200 
     30 H          19.687000    7.418000   12.664000 H         1 <1>         0.071000 
     31 H          18.992000    8.769000   11.761000 H         1 <1>         0.065100 
     32 H          19.090000    7.118000   11.027000 H         1 <1>         0.054200 
     33 O          12.897000    8.401000    9.857000 O.3       1 <1>        -0.291000 
     34 C          12.871000    9.007000    8.565000 C.3       1 <1>         0.023100 
     35 H          11.824000    9.109000    8.266000 H         1 <1>         0.066200 
     36 H          13.370000    8.373000    7.824000 H         1 <1>         0.035300 
     37 H          13.310000   10.010000    8.591000 H         1 <1>         0.034600 
     38 C          16.551000    6.053000   14.042000 C.3       1 <1>        -0.104500 
     39 H          17.348000    6.798000   13.949000 H         1 <1>         0.090400 
     40 H          16.837000    5.171000   13.457000 H         1 <1>         0.061300 
     41 H          16.515000    5.764000   15.097000 H         1 <1>         0.070100 
     42 N           9.752000    1.088000   11.843000 N.pl3     1 <1>        -0.862700 
     43 H           9.899000    0.471000   11.058000 H         1 <1>         0.384600 
     44 H           8.894000    1.053000   12.373000 H         1 <1>         0.385000 
@<TRIPOS>BOND
     1    1    2 ar   
     2    2    3 ar   
     3    3    4 ar   
     4    4    5 ar   
     5    5    6 ar   
     6    6    1 ar   
     7    6    7 1    
     8    7    8 1    
     9    7    9 1    
    10    5   10 ar   
    11   10   11 ar   
    12   11   12 1    
    13   11   13 ar   
    14   13   14 1    
    15   13    4 ar   
    16   10   15 1    
    17   15   16 1    
    18   15   17 1    
    19   15   18 1    
    20   18   19 1    
    21   19   20 ar   
    22   20   21 1    
    23   20   22 ar   
    24   22   23 ar   
    25   23   24 1    
    26   23   25 ar   
    27   25   26 1    
    28   25   27 ar   
    29   27   19 ar   
    30   27   28 1    
    31   28   29 1    
    32   29   30 1    
    33   29   31 1    
    34   29   32 1    
    35   22   33 1    
    36   33   34 1    
    37   34   35 1    
    38   34   36 1    
    39   34   37 1    
    40   18   38 1    
    41   38   39 1    
    42   38   40 1    
    43   38   41 1    
    44    2   42 1    
    45   42   43 1    
    46   42   44 1    
@<TRIPOS>SUBSTRUCTURE
     1 ****        1 TEMP              0 ****  ****    0 ROOT 
@<TRIPOS>SET
UNITY_3DHIT     STATIC     ATOMS    <user>   **** Atoms matching 3D or FLEX Search
0
