#	Name:			35-3
#	Creating user name:	jeff
#	Creation time:		Thu Dec  4 18:13:44 2003

#	Modifying user name:	jeff
#	Modification time:	Thu Dec  4 18:13:44 2003

@<TRIPOS>MOLECULE
35-3
   36    38     1     0     1
SMALL
USER_CHARGES
****
From 3DB ct
@<TRIPOS>ATOM
      1 N          10.483000    2.793000   13.260000 N.ar      1 <1>        -0.715300 
      2 C          10.725000    2.009000   12.198000 C.ar      1 <1>         0.832800 
      3 N          11.841000    2.004000   11.462000 N.ar      1 <1>        -0.675700 
      4 C          12.746000    2.900000   11.881000 C.ar      1 <1>         0.468400 
      5 C          12.619000    3.769000   12.952000 C.ar      1 <1>        -0.581100 
      6 C          11.417000    3.682000   13.670000 C.ar      1 <1>         0.764100 
      7 N          11.133000    4.440000   14.778000 N.pl3     1 <1>        -0.752600 
      8 H          11.854000    5.005000   15.214000 H         1 <1>         0.325200 
      9 H          10.268000    4.281000   15.280000 H         1 <1>         0.326400 
     10 C          13.823000    4.550000   13.007000 C.ar      1 <1>         0.020300 
     11 C          14.631000    4.102000   11.974000 C.ar      1 <1>        -0.152500 
     12 H          15.618000    4.412000   11.650000 H         1 <1>         0.230700 
     13 N          13.970000    3.104000   11.303000 N.pl3     1 <1>        -0.340000 
     14 H          14.319000    2.597000   10.500000 H         1 <1>         0.322500 
     15 C          14.144000    5.661000   13.973000 C.3       1 <1>         0.179800 
     16 H          14.389000    5.155000   14.917000 H         1 <1>         0.042600 
     17 H          13.235000    6.247000   14.159000 H         1 <1>         0.034400 
     18 N          15.227000    6.598000   13.615000 N.pl3     1 <1>        -0.520200 
     19 C          15.254000    7.244000   12.382000 C.ar      1 <1>         0.395100 
     20 C          14.083000    7.552000   11.671000 C.ar      1 <1>        -0.326800 
     21 H          13.103000    7.267000   12.049000 H         1 <1>         0.147100 
     22 C          14.115000    8.209000   10.432000 C.ar      1 <1>         0.160800 
     23 H          13.179000    8.418000    9.919000 H         1 <1>         0.057600 
     24 C          15.331000    8.582000    9.867000 C.ar      1 <1>        -0.276300 
     25 C          16.513000    8.294000   10.547000 C.ar      1 <1>        -0.149800 
     26 C          16.468000    7.635000   11.786000 C.ar      1 <1>        -0.076900 
     27 H          17.410000    7.446000   12.296000 H         1 <1>         0.061200 
     28 Cl         18.067000    8.726000    9.919000 Cl        1 <1>         0.057500 
     29 Cl         15.306000    9.388000    8.339000 Cl        1 <1>         0.051800 
     30 C          16.421000    6.629000   14.464000 C.3       1 <1>        -0.008100 
     31 H          16.476000    7.576000   15.011000 H         1 <1>         0.066000 
     32 H          17.333000    6.504000   13.869000 H         1 <1>         0.049900 
     33 H          16.426000    5.818000   15.199000 H         1 <1>         0.062700 
     34 N           9.742000    1.135000   11.840000 N.pl3     1 <1>        -0.851700 
     35 H           9.881000    0.525000   11.049000 H         1 <1>         0.386100 
     36 H           8.884000    1.106000   12.370000 H         1 <1>         0.383900 
@<TRIPOS>BOND
     1    1    2 ar   
     2    2    3 ar   
     3    3    4 ar   
     4    4    5 ar   
     5    5    6 ar   
     6    6    1 ar   
     7    6    7 1    
     8    7    8 1    
     9    7    9 1    
    10    5   10 ar   
    11   10   11 ar   
    12   11   12 1    
    13   11   13 ar   
    14   13   14 1    
    15   13    4 ar   
    16   10   15 1    
    17   15   16 1    
    18   15   17 1    
    19   15   18 1    
    20   18   19 1    
    21   19   20 ar   
    22   20   21 1    
    23   20   22 ar   
    24   22   23 1    
    25   22   24 ar   
    26   24   25 ar   
    27   25   26 ar   
    28   26   27 1    
    29   26   19 ar   
    30   25   28 1    
    31   24   29 1    
    32   18   30 1    
    33   30   31 1    
    34   30   32 1    
    35   30   33 1    
    36    2   34 1    
    37   34   35 1    
    38   34   36 1    
@<TRIPOS>SUBSTRUCTURE
     1 ****        1 TEMP              0 ****  ****    0 ROOT 
@<TRIPOS>SET
UNITY_3DHIT     STATIC     ATOMS    <user>   **** Atoms matching 3D or FLEX Search
0
