#	Name:			35-4
#	Creating user name:	jeff
#	Creation time:		Thu Dec  4 18:13:44 2003

#	Modifying user name:	jeff
#	Modification time:	Thu Dec  4 18:13:44 2003

@<TRIPOS>MOLECULE
35-4
   42    45     1     0     1
SMALL
USER_CHARGES
****
From 3DB ct
@<TRIPOS>ATOM
      1 N          10.494000    2.778000   13.259000 N.ar      1 <1>        -0.717800 
      2 C          10.743000    1.973000   12.215000 C.ar      1 <1>         0.820900 
      3 N          11.842000    1.990000   11.457000 N.ar      1 <1>        -0.660700 
      4 C          12.729000    2.918000   11.844000 C.ar      1 <1>         0.417300 
      5 C          12.600000    3.803000   12.905000 C.ar      1 <1>        -0.551100 
      6 C          11.401000    3.712000   13.629000 C.ar      1 <1>         0.779100 
      7 N          11.066000    4.510000   14.693000 N.pl3     1 <1>        -0.780100 
      8 H          11.640000    5.272000   15.023000 H         1 <1>         0.330700 
      9 H          10.167000    4.369000   15.138000 H         1 <1>         0.328500 
     10 C          13.802000    4.593000   12.940000 C.ar      1 <1>         0.069900 
     11 C          14.582000    4.166000   11.875000 C.ar      1 <1>        -0.122500 
     12 H          15.553000    4.498000   11.526000 H         1 <1>         0.204700 
     13 N          13.930000    3.147000   11.232000 N.pl3     1 <1>        -0.315200 
     14 H          14.270000    2.642000   10.423000 H         1 <1>         0.312800 
     15 C          14.128000    5.688000   13.923000 C.3       1 <1>        -0.112900 
     16 H          14.282000    5.242000   14.913000 H         1 <1>         0.102700 
     17 H          13.227000    6.314000   13.987000 H         1 <1>         0.083500 
     18 N          15.296000    6.536000   13.613000 N.pl3     1 <1>        -0.299400 
     19 C          15.302000    7.196000   12.370000 C.ar      1 <1>         0.161400 
     20 C          14.092000    7.489000   11.717000 C.ar      1 <1>        -0.162300 
     21 H          13.141000    7.204000   12.163000 H         1 <1>         0.114100 
     22 C          14.076000    8.167000   10.501000 C.ar      1 <1>        -0.087200 
     23 H          13.129000    8.387000   10.012000 H         1 <1>         0.110300 
     24 C          15.273000    8.570000    9.914000 C.ar      1 <1>        -0.230300 
     25 H          15.237000    9.101000    8.963000 H         1 <1>         0.133400 
     26 C          16.501000    8.299000   10.532000 C.ar      1 <1>         0.153400 
     27 C          16.529000    7.607000   11.771000 C.ar      1 <1>        -0.047200 
     28 C          17.794000    7.344000   12.346000 C.ar      1 <1>        -0.060200 
     29 H          17.862000    6.802000   13.289000 H         1 <1>         0.088100 
     30 C          18.980000    7.756000   11.733000 C.ar      1 <1>        -0.149800 
     31 H          19.938000    7.540000   12.203000 H         1 <1>         0.110800 
     32 C          18.933000    8.440000   10.526000 C.ar      1 <1>        -0.055700 
     33 H          19.854000    8.764000   10.044000 H         1 <1>         0.097400 
     34 C          17.702000    8.709000    9.929000 C.ar      1 <1>        -0.215900 
     35 H          17.688000    9.243000    8.979000 H         1 <1>         0.124400 
     36 C          16.301000    6.653000   14.507000 C.3       1 <1>        -0.005600 
     37 H          16.014000    6.173000   15.443000 H         1 <1>         0.017400 
     38 H          17.197000    6.173000   14.112000 H         1 <1>         0.049000 
     39 H          16.505000    7.708000   14.688000 H         1 <1>         0.050500 
     40 N           9.784000    1.057000   11.899000 N.pl3     1 <1>        -0.847100 
     41 H           9.927000    0.433000   11.119000 H         1 <1>         0.380700 
     42 H           8.937000    1.015000   12.444000 H         1 <1>         0.380300 
@<TRIPOS>BOND
     1    1    2 ar   
     2    2    3 ar   
     3    3    4 ar   
     4    4    5 ar   
     5    5    6 ar   
     6    6    1 ar   
     7    6    7 1    
     8    7    8 1    
     9    7    9 1    
    10    5   10 ar   
    11   10   11 ar   
    12   11   12 1    
    13   11   13 ar   
    14   13   14 1    
    15   13    4 ar   
    16   10   15 1    
    17   15   16 1    
    18   15   17 1    
    19   15   18 1    
    20   18   19 1    
    21   19   20 ar   
    22   20   21 1    
    23   20   22 ar   
    24   22   23 1    
    25   22   24 ar   
    26   24   25 1    
    27   24   26 ar   
    28   26   27 ar   
    29   27   19 ar   
    30   27   28 ar   
    31   28   29 1    
    32   28   30 ar   
    33   30   31 1    
    34   30   32 ar   
    35   32   33 1    
    36   32   34 ar   
    37   34   35 1    
    38   34   26 ar   
    39   18   36 1    
    40   36   37 1    
    41   36   38 1    
    42   36   39 1    
    43    2   40 1    
    44   40   41 1    
    45   40   42 1    
@<TRIPOS>SUBSTRUCTURE
     1 ****        1 TEMP              0 ****  ****    0 ROOT 
@<TRIPOS>SET
UNITY_3DHIT     STATIC     ATOMS    <user>   **** Atoms matching 3D or FLEX Search
0
