#	Name:			35-5
#	Creating user name:	jeff
#	Creation time:		Thu Dec  4 18:13:44 2003

#	Modifying user name:	jeff
#	Modification time:	Thu Dec  4 18:13:45 2003

@<TRIPOS>MOLECULE
35-5
   40    42     1     0     1
SMALL
USER_CHARGES
****
From 3DB ct
@<TRIPOS>ATOM
      1 N          10.438000    2.725000   13.220000 N.ar      1 <1>        -0.723400 
      2 C          10.757000    1.928000   12.190000 C.ar      1 <1>         0.829700 
      3 N          11.883000    1.986000   11.479000 N.ar      1 <1>        -0.666700 
      4 C          12.723000    2.940000   11.904000 C.ar      1 <1>         0.423800 
      5 C          12.529000    3.817000   12.964000 C.ar      1 <1>        -0.586900 
      6 C          11.297000    3.689000   13.630000 C.ar      1 <1>         0.811500 
      7 N          10.869000    4.479000   14.666000 N.pl3     1 <1>        -0.822800 
      8 H          11.371000    5.288000   14.997000 H         1 <1>         0.360000 
      9 H           9.943000    4.314000   15.044000 H         1 <1>         0.339200 
     10 C          13.717000    4.632000   13.053000 C.ar      1 <1>         0.102300 
     11 C          14.533000    4.243000   11.999000 C.ar      1 <1>        -0.153600 
     12 H          15.504000    4.602000   11.676000 H         1 <1>         0.207400 
     13 N          13.934000    3.208000   11.332000 N.pl3     1 <1>        -0.303700 
     14 H          14.314000    2.720000   10.531000 H         1 <1>         0.313600 
     15 C          14.011000    5.719000   14.044000 C.3       1 <1>        -0.161800 
     16 H          13.937000    5.346000   15.065000 H         1 <1>         0.119600 
     17 H          13.285000    6.529000   13.917000 H         1 <1>         0.062700 
     18 S          15.707000    6.387000   13.840000 S.3       1 <1>        -0.059800 
     19 C          15.494000    7.231000   12.285000 C.ar      1 <1>        -0.129100 
     20 C          14.209000    7.448000   11.787000 C.ar      1 <1>        -0.057200 
     21 H          13.334000    7.123000   12.349000 H         1 <1>         0.126400 
     22 C          14.025000    8.087000   10.558000 C.ar      1 <1>        -0.241700 
     23 H          13.005000    8.234000   10.216000 H         1 <1>         0.145800 
     24 C          15.128000    8.511000    9.811000 C.ar      1 <1>         0.255200 
     25 C          16.429000    8.288000   10.307000 C.ar      1 <1>         0.015600 
     26 C          16.603000    7.648000   11.540000 C.ar      1 <1>        -0.052500 
     27 H          17.595000    7.457000   11.940000 H         1 <1>         0.107100 
     28 O          17.459000    8.733000    9.511000 O.3       1 <1>        -0.185000 
     29 C          18.788000    8.525000    9.982000 C.3       1 <1>        -0.074100 
     30 H          19.473000    8.923000    9.228000 H         1 <1>         0.077400 
     31 H          19.002000    7.457000   10.096000 H         1 <1>         0.061000 
     32 H          18.966000    9.071000   10.915000 H         1 <1>         0.071100 
     33 O          15.047000    9.144000    8.595000 O.3       1 <1>        -0.300400 
     34 C          16.273000    9.509000    7.965000 C.3       1 <1>         0.086500 
     35 H          16.027000    9.997000    7.018000 H         1 <1>         0.042900 
     36 H          16.878000    8.626000    7.739000 H         1 <1>         0.023500 
     37 H          16.829000   10.229000    8.576000 H         1 <1>         0.021600 
     38 N           9.846000    0.977000   11.836000 N.pl3     1 <1>        -0.848200 
     39 H          10.043000    0.362000   11.060000 H         1 <1>         0.381700 
     40 H           8.979000    0.902000   12.346000 H         1 <1>         0.381400 
@<TRIPOS>BOND
     1    1    2 ar   
     2    2    3 ar   
     3    3    4 ar   
     4    4    5 ar   
     5    5    6 ar   
     6    6    1 ar   
     7    6    7 1    
     8    7    8 1    
     9    7    9 1    
    10    5   10 ar   
    11   10   11 ar   
    12   11   12 1    
    13   11   13 ar   
    14   13   14 1    
    15   13    4 ar   
    16   10   15 1    
    17   15   16 1    
    18   15   17 1    
    19   15   18 1    
    20   18   19 1    
    21   19   20 ar   
    22   20   21 1    
    23   20   22 ar   
    24   22   23 1    
    25   22   24 ar   
    26   24   25 ar   
    27   25   26 ar   
    28   26   27 1    
    29   26   19 ar   
    30   25   28 1    
    31   28   29 1    
    32   29   30 1    
    33   29   31 1    
    34   29   32 1    
    35   24   33 1    
    36   33   34 1    
    37   34   35 1    
    38   34   36 1    
    39   34   37 1    
    40    2   38 1    
    41   38   39 1    
    42   38   40 1    
@<TRIPOS>SUBSTRUCTURE
     1 ****        1 TEMP              0 ****  ****    0 ROOT 
@<TRIPOS>SET
UNITY_3DHIT     STATIC     ATOMS    <user>   **** Atoms matching 3D or FLEX Search
0
