#	Name:			35-6
#	Creating user name:	jeff
#	Creation time:		Thu Dec  4 18:13:45 2003

#	Modifying user name:	jeff
#	Modification time:	Thu Dec  4 18:13:45 2003

@<TRIPOS>MOLECULE
35-6
   32    34     1     0     1
SMALL
USER_CHARGES
****
From 3DB ct
@<TRIPOS>ATOM
      1 N          10.432000    2.722000   13.219000 N.ar      1 <1>        -0.703000 
      2 C          10.737000    1.920000   12.188000 C.ar      1 <1>         0.822700 
      3 N          11.862000    1.960000   11.471000 N.ar      1 <1>        -0.673600 
      4 C          12.711000    2.911000   11.884000 C.ar      1 <1>         0.458000 
      5 C          12.524000    3.799000   12.932000 C.ar      1 <1>        -0.548300 
      6 C          11.304000    3.677000   13.618000 C.ar      1 <1>         0.754300 
      7 N          10.920000    4.464000   14.674000 N.pl3     1 <1>        -0.792300 
      8 H          11.482000    5.218000   15.039000 H         1 <1>         0.357800 
      9 H          10.014000    4.299000   15.097000 H         1 <1>         0.332600 
     10 C          13.703000    4.628000   13.006000 C.ar      1 <1>         0.013200 
     11 C          14.536000    4.200000   11.981000 C.ar      1 <1>        -0.159500 
     12 H          15.514000    4.535000   11.659000 H         1 <1>         0.228100 
     13 N          13.929000    3.163000   11.318000 N.pl3     1 <1>        -0.329900 
     14 H          14.314000    2.659000   10.530000 H         1 <1>         0.322900 
     15 C          13.923000    5.728000   14.006000 C.3       1 <1>        -0.003800 
     16 H          13.764000    5.324000   15.011000 H         1 <1>         0.088800 
     17 H          13.185000    6.518000   13.829000 H         1 <1>         0.013600 
     18 S          15.592000    6.474000   13.954000 S.3       1 <1>        -0.107400 
     19 C          15.509000    7.303000   12.377000 C.ar      1 <1>        -0.016400 
     20 C          14.260000    7.510000   11.784000 C.ar      1 <1>        -0.148600 
     21 H          13.348000    7.187000   12.282000 H         1 <1>         0.124300 
     22 C          14.163000    8.142000   10.540000 C.ar      1 <1>         0.086500 
     23 H          13.181000    8.298000   10.099000 H         1 <1>         0.061900 
     24 C          15.316000    8.563000    9.875000 C.ar      1 <1>        -0.200800 
     25 C          16.570000    8.346000   10.458000 C.ar      1 <1>        -0.253900 
     26 C          16.664000    7.715000   11.704000 C.ar      1 <1>         0.179600 
     27 H          17.645000    7.537000   12.138000 H         1 <1>         0.035500 
     28 Cl         18.041000    8.831000    9.687000 Cl        1 <1>         0.068500 
     29 Cl         15.128000    9.337000    8.341000 Cl        1 <1>         0.068900 
     30 N           9.812000    0.981000   11.842000 N.pl3     1 <1>        -0.849000 
     31 H           9.998000    0.356000   11.072000 H         1 <1>         0.386600 
     32 H           8.947000    0.919000   12.359000 H         1 <1>         0.382700 
@<TRIPOS>BOND
     1    1    2 ar   
     2    2    3 ar   
     3    3    4 ar   
     4    4    5 ar   
     5    5    6 ar   
     6    6    1 ar   
     7    6    7 1    
     8    7    8 1    
     9    7    9 1    
    10    5   10 ar   
    11   10   11 ar   
    12   11   12 1    
    13   11   13 ar   
    14   13   14 1    
    15   13    4 ar   
    16   10   15 1    
    17   15   16 1    
    18   15   17 1    
    19   15   18 1    
    20   18   19 1    
    21   19   20 ar   
    22   20   21 1    
    23   20   22 ar   
    24   22   23 1    
    25   22   24 ar   
    26   24   25 ar   
    27   25   26 ar   
    28   26   27 1    
    29   26   19 ar   
    30   25   28 1    
    31   24   29 1    
    32    2   30 1    
    33   30   31 1    
    34   30   32 1    
@<TRIPOS>SUBSTRUCTURE
     1 ****        1 TEMP              0 ****  ****    0 ROOT 
@<TRIPOS>SET
UNITY_3DHIT     STATIC     ATOMS    <user>   **** Atoms matching 3D or FLEX Search
0
