#	Name:			35-7
#	Creating user name:	jeff
#	Creation time:		Thu Dec  4 18:13:45 2003

#	Modifying user name:	jeff
#	Modification time:	Thu Dec  4 18:13:45 2003

@<TRIPOS>MOLECULE
35-7
   38    41     1     0     1
SMALL
USER_CHARGES
****
From 3DB ct
@<TRIPOS>ATOM
      1 N          10.428000    2.707000   13.219000 N.ar      1 <1>        -0.707900 
      2 C          10.745000    1.916000   12.182000 C.ar      1 <1>         0.835700 
      3 N          11.874000    1.969000   11.473000 N.ar      1 <1>        -0.673000 
      4 C          12.711000    2.928000   11.893000 C.ar      1 <1>         0.440200 
      5 C          12.506000    3.812000   12.942000 C.ar      1 <1>        -0.543400 
      6 C          11.291000    3.664000   13.631000 C.ar      1 <1>         0.724300 
      7 N          10.910000    4.424000   14.709000 N.pl3     1 <1>        -0.703900 
      8 H          11.528000    5.092000   15.145000 H         1 <1>         0.311100 
      9 H          10.027000    4.222000   15.160000 H         1 <1>         0.309000 
     10 C          13.664000    4.662000   13.005000 C.ar      1 <1>         0.047100 
     11 C          14.518000    4.242000   11.997000 C.ar      1 <1>        -0.155900 
     12 H          15.493000    4.602000   11.688000 H         1 <1>         0.218700 
     13 N          13.932000    3.194000   11.335000 N.pl3     1 <1>        -0.324600 
     14 H          14.328000    2.692000   10.550000 H         1 <1>         0.320400 
     15 C          13.918000    5.798000   13.944000 C.3       1 <1>        -0.059800 
     16 H          13.687000    5.500000   14.972000 H         1 <1>         0.075300 
     17 H          13.261000    6.639000   13.694000 H         1 <1>         0.054600 
     18 S          15.657000    6.345000   13.828000 S.3       1 <1>        -0.089300 
     19 C          15.545000    7.245000   12.275000 C.ar      1 <1>        -0.096200 
     20 C          14.253000    7.457000   11.771000 C.ar      1 <1>        -0.069300 
     21 H          13.378000    7.093000   12.307000 H         1 <1>         0.105500 
     22 C          14.067000    8.134000   10.571000 C.ar      1 <1>        -0.094000 
     23 H          13.062000    8.291000   10.183000 H         1 <1>         0.107800 
     24 C          15.169000    8.612000    9.866000 C.ar      1 <1>        -0.173800 
     25 H          14.999000    9.139000    8.927000 H         1 <1>         0.125900 
     26 C          16.472000    8.425000   10.352000 C.ar      1 <1>         0.074100 
     27 C          16.683000    7.738000   11.575000 C.ar      1 <1>         0.091600 
     28 C          18.022000    7.590000   12.016000 C.ar      1 <1>        -0.102600 
     29 H          18.247000    7.078000   12.951000 H         1 <1>         0.100500 
     30 C          19.099000    8.091000   11.282000 C.ar      1 <1>        -0.134600 
     31 H          20.116000    7.960000   11.649000 H         1 <1>         0.113800 
     32 C          18.871000    8.757000   10.085000 C.ar      1 <1>        -0.083100 
     33 H          19.707000    9.149000    9.509000 H         1 <1>         0.104300 
     34 C          17.567000    8.923000    9.625000 C.ar      1 <1>        -0.182600 
     35 H          17.410000    9.451000    8.684000 H         1 <1>         0.124000 
     36 N           9.829000    0.974000   11.823000 N.pl3     1 <1>        -0.856900 
     37 H          10.023000    0.357000   11.048000 H         1 <1>         0.384300 
     38 H           8.960000    0.903000   12.333000 H         1 <1>         0.382400 
@<TRIPOS>BOND
     1    1    2 ar   
     2    2    3 ar   
     3    3    4 ar   
     4    4    5 ar   
     5    5    6 ar   
     6    6    1 ar   
     7    6    7 1    
     8    7    8 1    
     9    7    9 1    
    10    5   10 ar   
    11   10   11 ar   
    12   11   12 1    
    13   11   13 ar   
    14   13   14 1    
    15   13    4 ar   
    16   10   15 1    
    17   15   16 1    
    18   15   17 1    
    19   15   18 1    
    20   18   19 1    
    21   19   20 ar   
    22   20   21 1    
    23   20   22 ar   
    24   22   23 1    
    25   22   24 ar   
    26   24   25 1    
    27   24   26 ar   
    28   26   27 ar   
    29   27   19 ar   
    30   27   28 ar   
    31   28   29 1    
    32   28   30 ar   
    33   30   31 1    
    34   30   32 ar   
    35   32   33 1    
    36   32   34 ar   
    37   34   35 1    
    38   34   26 ar   
    39    2   36 1    
    40   36   37 1    
    41   36   38 1    
@<TRIPOS>SUBSTRUCTURE
     1 ****        1 TEMP              0 ****  ****    0 ROOT 
@<TRIPOS>SET
UNITY_3DHIT     STATIC     ATOMS    <user>   **** Atoms matching 3D or FLEX Search
0
