#	Name:			36-6c
#	Creating user name:	jeff
#	Creation time:		Thu Dec  4 18:13:45 2003

#	Modifying user name:	jeff
#	Modification time:	Thu Dec  4 18:13:45 2003

@<TRIPOS>MOLECULE
36-6c
   47    49     1     0     1
SMALL
USER_CHARGES
****
From 3DB ct
@<TRIPOS>ATOM
      1 N          10.513000    2.790000   13.280000 N.ar      1 <1>        -0.703400 
      2 C          10.697000    1.971000   12.242000 C.ar      1 <1>         0.828500 
      3 N          11.760000    1.963000   11.450000 N.ar      1 <1>        -0.618700 
      4 C          12.693000    2.865000   11.794000 C.ar      1 <1>         0.338800 
      5 C          12.643000    3.761000   12.852000 C.ar      1 <1>        -0.689100 
      6 C          11.451000    3.705000   13.604000 C.ar      1 <1>         0.803100 
      7 N          11.131000    4.533000   14.651000 N.pl3     1 <1>        -0.772500 
      8 H          11.647000    5.365000   14.890000 H         1 <1>         0.338600 
      9 H          10.223000    4.412000   15.085000 H         1 <1>         0.322200 
     10 C          13.872000    4.548000   12.920000 C.ar      1 <1>         0.614400 
     11 C          14.711000    4.213000   11.872000 C.ar      1 <1>        -0.763100 
     12 S          14.113000    2.989000   10.871000 S.3       1 <1>         0.263400 
     13 Br         16.392000    4.998000   11.528000 Br        1 <1>         0.250400 
     14 C          14.205000    5.571000   13.982000 C.3       1 <1>        -0.272800 
     15 H          14.503000    4.990000   14.867000 H         1 <1>         0.091000 
     16 H          13.301000    6.095000   14.307000 H         1 <1>         0.109200 
     17 N          15.245000    6.570000   13.670000 N.pl3     1 <1>        -0.072400 
     18 C          15.263000    7.222000   12.440000 C.ar      1 <1>         0.237200 
     19 C          16.466000    7.619000   11.834000 C.ar      1 <1>        -0.422200 
     20 H          17.421000    7.449000   12.327000 H         1 <1>         0.161900 
     21 C          16.478000    8.278000   10.602000 C.ar      1 <1>         0.266600 
     22 C          15.287000    8.512000    9.915000 C.ar      1 <1>        -0.140200 
     23 C          14.065000    8.158000   10.496000 C.ar      1 <1>         0.420600 
     24 C          14.069000    7.518000   11.746000 C.ar      1 <1>        -0.413300 
     25 H          13.126000    7.211000   12.189000 H         1 <1>         0.111000 
     26 O          12.942000    8.466000    9.772000 O.3       1 <1>        -0.294000 
     27 C          13.132000    9.052000    8.486000 C.3       1 <1>         0.028900 
     28 H          12.143000    9.213000    8.045000 H         1 <1>         0.047800 
     29 H          13.686000    8.378000    7.824000 H         1 <1>         0.050000 
     30 H          13.624000   10.026000    8.567000 H         1 <1>         0.047300 
     31 O          15.312000    9.153000    8.700000 O.3       1 <1>        -0.268500 
     32 C          16.663000    9.471000    8.348000 C.3       1 <1>         0.102800 
     33 H          16.645000    9.962000    7.370000 H         1 <1>         0.026300 
     34 H          17.275000    8.567000    8.263000 H         1 <1>         0.029600 
     35 H          17.107000   10.167000    9.068000 H         1 <1>         0.017100 
     36 O          17.689000    8.620000   10.057000 O.3       1 <1>        -0.225400 
     37 C          18.751000    8.199000   10.922000 C.3       1 <1>        -0.011300 
     38 H          19.697000    8.468000   10.444000 H         1 <1>         0.065400 
     39 H          18.737000    7.113000   11.063000 H         1 <1>         0.052900 
     40 H          18.702000    8.711000   11.890000 H         1 <1>         0.045800 
     41 C          16.249000    6.887000   14.683000 C.3       1 <1>        -0.130800 
     42 H          17.233000    7.061000   14.231000 H         1 <1>         0.055300 
     43 H          16.386000    6.062000   15.388000 H         1 <1>         0.077700 
     44 H          15.954000    7.775000   15.252000 H         1 <1>         0.065400 
     45 N           9.707000    1.076000   11.973000 N.pl3     1 <1>        -0.842900 
     46 H           9.803000    0.439000   11.195000 H         1 <1>         0.388100 
     47 H           8.881000    1.058000   12.552000 H         1 <1>         0.383300 
@<TRIPOS>BOND
     1    1    2 ar   
     2    2    3 ar   
     3    3    4 ar   
     4    4    5 ar   
     5    5    6 ar   
     6    6    1 ar   
     7    6    7 1    
     8    7    8 1    
     9    7    9 1    
    10    5   10 ar   
    11   10   11 ar   
    12   11   12 ar   
    13   12    4 ar   
    14   11   13 1    
    15   10   14 1    
    16   14   15 1    
    17   14   16 1    
    18   14   17 1    
    19   17   18 1    
    20   18   19 ar   
    21   19   20 1    
    22   19   21 ar   
    23   21   22 ar   
    24   22   23 ar   
    25   23   24 ar   
    26   24   25 1    
    27   24   18 ar   
    28   23   26 1    
    29   26   27 1    
    30   27   28 1    
    31   27   29 1    
    32   27   30 1    
    33   22   31 1    
    34   31   32 1    
    35   32   33 1    
    36   32   34 1    
    37   32   35 1    
    38   21   36 1    
    39   36   37 1    
    40   37   38 1    
    41   37   39 1    
    42   37   40 1    
    43   17   41 1    
    44   41   42 1    
    45   41   43 1    
    46   41   44 1    
    47    2   45 1    
    48   45   46 1    
    49   45   47 1    
@<TRIPOS>SUBSTRUCTURE
     1 ****        1 TEMP              0 ****  ****    0 ROOT 
@<TRIPOS>SET
UNITY_3DHIT     STATIC     ATOMS    <user>   **** Atoms matching 3D or FLEX Search
0
