#	Name:			36-6a
#	Creating user name:	jeff
#	Creation time:		Thu Dec  4 18:13:45 2003

#	Modifying user name:	jeff
#	Modification time:	Thu Dec  4 18:13:45 2003

@<TRIPOS>MOLECULE
36-6a
   44    46     1     0     1
SMALL
USER_CHARGES
****
From 3DB ct
@<TRIPOS>ATOM
      1 N          10.495000    2.807000   13.277000 N.ar      1 <1>        -0.705200 
      2 C          10.648000    2.034000   12.199000 C.ar      1 <1>         0.854900 
      3 N          11.739000    1.971000   11.449000 N.ar      1 <1>        -0.645300 
      4 C          12.714000    2.801000   11.847000 C.ar      1 <1>         0.389700 
      5 C          12.682000    3.680000   12.919000 C.ar      1 <1>        -0.734400 
      6 C          11.494000    3.623000   13.678000 C.ar      1 <1>         0.792900 
      7 N          11.254000    4.315000   14.839000 N.pl3     1 <1>        -0.770300 
      8 H          11.963000    4.807000   15.359000 H         1 <1>         0.330800 
      9 H          10.369000    4.154000   15.307000 H         1 <1>         0.331300 
     10 C          13.917000    4.467000   12.988000 C.ar      1 <1>         0.601600 
     11 C          14.815000    4.008000   12.040000 C.ar      1 <1>        -0.820000 
     12 S          14.191000    2.815000   11.013000 S.3       1 <1>         0.273400 
     13 Br         16.597000    4.587000   11.817000 Br        1 <1>         0.269200 
     14 C          14.148000    5.576000   13.989000 C.3       1 <1>        -0.069900 
     15 H          14.473000    5.106000   14.926000 H         1 <1>         0.042100 
     16 H          13.190000    6.069000   14.171000 H         1 <1>         0.110700 
     17 N          15.079000    6.637000   13.629000 N.pl3     1 <1>        -0.515300 
     18 H          15.691000    6.973000   14.368000 H         1 <1>         0.282100 
     19 C          15.115000    7.266000   12.400000 C.ar      1 <1>         0.429300 
     20 C          13.968000    7.575000   11.662000 C.ar      1 <1>        -0.484000 
     21 H          12.977000    7.328000   12.034000 H         1 <1>         0.167200 
     22 C          14.069000    8.203000   10.419000 C.ar      1 <1>         0.453400 
     23 C          15.315000    8.583000    9.917000 C.ar      1 <1>        -0.206600 
     24 C          16.482000    8.264000   10.622000 C.ar      1 <1>         0.351100 
     25 C          16.367000    7.607000   11.854000 C.ar      1 <1>        -0.526300 
     26 H          17.255000    7.347000   12.426000 H         1 <1>         0.170600 
     27 O          17.665000    8.633000   10.032000 O.3       1 <1>        -0.222600 
     28 C          18.866000    8.308000   10.729000 C.3       1 <1>        -0.023400 
     29 H          19.705000    8.692000   10.141000 H         1 <1>         0.068600 
     30 H          18.988000    7.224000   10.818000 H         1 <1>         0.056100 
     31 H          18.896000    8.795000   11.710000 H         1 <1>         0.049700 
     32 O          15.397000    9.214000    8.698000 O.3       1 <1>        -0.273500 
     33 C          16.770000    9.464000    8.373000 C.3       1 <1>         0.103600 
     34 H          16.796000    9.959000    7.398000 H         1 <1>         0.028200 
     35 H          17.334000    8.528000    8.296000 H         1 <1>         0.022100 
     36 H          17.236000   10.132000    9.106000 H         1 <1>         0.015400 
     37 O          12.914000    8.497000    9.740000 O.3       1 <1>        -0.293700 
     38 C          13.231000    9.060000    8.462000 C.3       1 <1>         0.013100 
     39 H          12.289000    9.244000    7.936000 H         1 <1>         0.049200 
     40 H          13.825000    8.364000    7.860000 H         1 <1>         0.059500 
     41 H          13.754000   10.016000    8.569000 H         1 <1>         0.052100 
     42 N           9.597000    1.241000   11.850000 N.pl3     1 <1>        -0.859600 
     43 H           9.669000    0.638000   11.043000 H         1 <1>         0.394500 
     44 H           8.749000    1.270000   12.396000 H         1 <1>         0.387700 
@<TRIPOS>BOND
     1    1    2 ar   
     2    2    3 ar   
     3    3    4 ar   
     4    4    5 ar   
     5    5    6 ar   
     6    6    1 ar   
     7    6    7 1    
     8    7    8 1    
     9    7    9 1    
    10    5   10 ar   
    11   10   11 ar   
    12   11   12 ar   
    13   12    4 ar   
    14   11   13 1    
    15   10   14 1    
    16   14   15 1    
    17   14   16 1    
    18   14   17 1    
    19   17   18 1    
    20   17   19 1    
    21   19   20 ar   
    22   20   21 1    
    23   20   22 ar   
    24   22   23 ar   
    25   23   24 ar   
    26   24   25 ar   
    27   25   26 1    
    28   25   19 ar   
    29   24   27 1    
    30   27   28 1    
    31   28   29 1    
    32   28   30 1    
    33   28   31 1    
    34   23   32 1    
    35   32   33 1    
    36   33   34 1    
    37   33   35 1    
    38   33   36 1    
    39   22   37 1    
    40   37   38 1    
    41   38   39 1    
    42   38   40 1    
    43   38   41 1    
    44    2   42 1    
    45   42   43 1    
    46   42   44 1    
@<TRIPOS>SUBSTRUCTURE
     1 ****        1 TEMP              0 ****  ****    0 ROOT 
@<TRIPOS>SET
UNITY_3DHIT     STATIC     ATOMS    <user>   **** Atoms matching 3D or FLEX Search
0
