#	Name:			36-6d
#	Creating user name:	jeff
#	Creation time:		Thu Dec  4 18:13:45 2003

#	Modifying user name:	jeff
#	Modification time:	Thu Dec  4 18:13:45 2003

@<TRIPOS>MOLECULE
36-6d
   43    45     1     0     1
SMALL
USER_CHARGES
****
From 3DB ct
@<TRIPOS>ATOM
      1 N          10.490000    2.765000   13.251000 N.ar      1 <1>        -0.711800 
      2 C          10.718000    1.929000   12.237000 C.ar      1 <1>         0.836600 
      3 N          11.794000    1.939000   11.464000 N.ar      1 <1>        -0.623700 
      4 C          12.688000    2.883000   11.797000 C.ar      1 <1>         0.348200 
      5 C          12.589000    3.805000   12.830000 C.ar      1 <1>        -0.723100 
      6 C          11.391000    3.720000   13.570000 C.ar      1 <1>         0.826800 
      7 N          11.027000    4.541000   14.606000 N.pl3     1 <1>        -0.784200 
      8 H          11.536000    5.359000   14.899000 H         1 <1>         0.349200 
      9 H          10.125000    4.378000   15.041000 H         1 <1>         0.326200 
     10 C          13.786000    4.644000   12.886000 C.ar      1 <1>         0.630700 
     11 C          14.656000    4.302000   11.865000 C.ar      1 <1>        -0.744700 
     12 S          14.118000    3.027000   10.895000 S.3       1 <1>         0.255000 
     13 Br         16.319000    5.127000   11.523000 Br        1 <1>         0.240000 
     14 C          14.062000    5.724000   13.907000 C.3       1 <1>        -0.243500 
     15 H          14.199000    5.212000   14.870000 H         1 <1>         0.064000 
     16 H          13.171000    6.339000   14.054000 H         1 <1>         0.099200 
     17 N          15.228000    6.580000   13.636000 N.pl3     1 <1>        -0.051400 
     18 C          15.330000    7.228000   12.397000 C.ar      1 <1>         0.164600 
     19 C          16.551000    7.617000   11.798000 C.ar      1 <1>         0.050200 
     20 C          16.541000    8.243000   10.544000 C.ar      1 <1>        -0.121900 
     21 H          17.458000    8.549000   10.048000 H         1 <1>         0.151000 
     22 C          15.336000    8.507000    9.881000 C.ar      1 <1>        -0.291000 
     23 H          15.388000    8.997000    8.912000 H         1 <1>         0.132600 
     24 C          14.126000    8.151000   10.463000 C.ar      1 <1>         0.348100 
     25 C          14.134000    7.519000   11.710000 C.ar      1 <1>        -0.329100 
     26 H          13.183000    7.227000   12.154000 H         1 <1>         0.078700 
     27 O          12.884000    8.355000    9.928000 O.3       1 <1>        -0.278500 
     28 C          12.832000    8.969000    8.641000 C.3       1 <1>         0.003400 
     29 H          11.778000    9.070000    8.364000 H         1 <1>         0.067600 
     30 H          13.318000    8.341000    7.887000 H         1 <1>         0.045500 
     31 H          13.269000    9.972000    8.665000 H         1 <1>         0.040000 
     32 O          17.696000    7.374000   12.516000 O.3       1 <1>        -0.267400 
     33 C          18.943000    7.710000   11.912000 C.3       1 <1>        -0.041700 
     34 H          19.733000    7.489000   12.637000 H         1 <1>         0.087900 
     35 H          18.995000    8.779000   11.680000 H         1 <1>         0.038800 
     36 H          19.127000    7.097000   11.023000 H         1 <1>         0.052300 
     37 C          16.502000    6.239000   14.264000 C.3       1 <1>        -0.228900 
     38 H          16.970000    5.395000   13.745000 H         1 <1>         0.087900 
     39 H          16.363000    5.960000   15.313000 H         1 <1>         0.097000 
     40 H          17.202000    7.082000   14.255000 H         1 <1>         0.094500 
     41 N           9.763000    0.995000   11.974000 N.pl3     1 <1>        -0.848400 
     42 H           9.893000    0.342000   11.215000 H         1 <1>         0.388200 
     43 H           8.929000    0.963000   12.541000 H         1 <1>         0.385300 
@<TRIPOS>BOND
     1    1    2 ar   
     2    2    3 ar   
     3    3    4 ar   
     4    4    5 ar   
     5    5    6 ar   
     6    6    1 ar   
     7    6    7 1    
     8    7    8 1    
     9    7    9 1    
    10    5   10 ar   
    11   10   11 ar   
    12   11   12 ar   
    13   12    4 ar   
    14   11   13 1    
    15   10   14 1    
    16   14   15 1    
    17   14   16 1    
    18   14   17 1    
    19   17   18 1    
    20   18   19 ar   
    21   19   20 ar   
    22   20   21 1    
    23   20   22 ar   
    24   22   23 1    
    25   22   24 ar   
    26   24   25 ar   
    27   25   26 1    
    28   25   18 ar   
    29   24   27 1    
    30   27   28 1    
    31   28   29 1    
    32   28   30 1    
    33   28   31 1    
    34   19   32 1    
    35   32   33 1    
    36   33   34 1    
    37   33   35 1    
    38   33   36 1    
    39   17   37 1    
    40   37   38 1    
    41   37   39 1    
    42   37   40 1    
    43    2   41 1    
    44   41   42 1    
    45   41   43 1    
@<TRIPOS>SUBSTRUCTURE
     1 ****        1 TEMP              0 ****  ****    0 ROOT 
@<TRIPOS>SET
UNITY_3DHIT     STATIC     ATOMS    <user>   **** Atoms matching 3D or FLEX Search
0
