#	Name:			36-6e
#	Creating user name:	jeff
#	Creation time:		Thu Dec  4 18:13:45 2003

#	Modifying user name:	jeff
#	Modification time:	Thu Dec  4 18:13:45 2003

@<TRIPOS>MOLECULE
36-6e
   40    43     1     0     1
SMALL
USER_CHARGES
****
From 3DB ct
@<TRIPOS>ATOM
      1 N          10.520000    2.796000   13.284000 N.ar      1 <1>        -0.709100 
      2 C          10.707000    1.965000   12.258000 C.ar      1 <1>         0.830900 
      3 N          11.762000    1.960000   11.457000 N.ar      1 <1>        -0.628300 
      4 C          12.691000    2.871000   11.787000 C.ar      1 <1>         0.363500 
      5 C          12.649000    3.770000   12.844000 C.ar      1 <1>        -0.734100 
      6 C          11.453000    3.723000   13.592000 C.ar      1 <1>         0.842300 
      7 N          11.109000    4.574000   14.613000 N.pl3     1 <1>        -0.810800 
      8 H          11.581000    5.445000   14.801000 H         1 <1>         0.346500 
      9 H          10.193000    4.452000   15.031000 H         1 <1>         0.338200 
     10 C          13.891000    4.543000   12.912000 C.ar      1 <1>         0.668800 
     11 C          14.689000    4.249000   11.820000 C.ar      1 <1>        -0.814600 
     12 S          14.088000    3.014000   10.833000 S.3       1 <1>         0.280200 
     13 Br         16.326000    5.089000   11.397000 Br        1 <1>         0.274100 
     14 C          14.241000    5.536000   13.995000 C.3       1 <1>        -0.321000 
     15 H          14.693000    5.013000   14.838000 H         1 <1>         0.102400 
     16 H          13.302000    5.981000   14.348000 H         1 <1>         0.168900 
     17 N          15.177000    6.590000   13.622000 N.pl3     1 <1>        -0.418000 
     18 H          15.863000    6.855000   14.325000 H         1 <1>         0.315400 
     19 C          15.194000    7.237000   12.405000 C.ar      1 <1>         0.044700 
     20 C          14.044000    7.548000   11.679000 C.ar      1 <1>         0.264900 
     21 H          13.065000    7.270000   12.065000 H         1 <1>        -0.041500 
     22 C          14.107000    8.204000   10.437000 C.ar      1 <1>        -0.590200 
     23 C          15.348000    8.568000    9.889000 C.ar      1 <1>         0.754600 
     24 C          16.513000    8.258000   10.610000 C.ar      1 <1>        -0.502000 
     25 C          16.424000    7.600000   11.847000 C.ar      1 <1>         0.024900 
     26 H          17.339000    7.380000   12.395000 H         1 <1>         0.071800 
     27 Cl         18.108000    8.751000   10.137000 Cl        1 <1>         0.126400 
     28 N          15.423000    9.231000    8.636000 N.pl3     1 <1>        -0.335600 
     29 C          16.248000    8.897000    7.579000 C.ar      1 <1>        -0.107100 
     30 H          16.903000    8.036000    7.637000 H         1 <1>         0.148600 
     31 C          16.032000    9.776000    6.539000 C.ar      1 <1>        -0.163800 
     32 H          16.533000    9.755000    5.578000 H         1 <1>         0.133000 
     33 C          15.042000   10.687000    6.963000 C.ar      1 <1>        -0.145800 
     34 H          14.635000   11.518000    6.399000 H         1 <1>         0.129900 
     35 C          14.685000   10.333000    8.246000 C.ar      1 <1>        -0.144200 
     36 H          13.986000   10.801000    8.928000 H         1 <1>         0.162200 
     37 Cl         12.591000    8.391000    9.612000 Cl        1 <1>         0.136500 
     38 N           9.720000    1.060000   12.005000 N.pl3     1 <1>        -0.836900 
     39 H           9.811000    0.421000   11.229000 H         1 <1>         0.389500 
     40 H           8.894000    1.050000   12.585000 H         1 <1>         0.385100 
@<TRIPOS>BOND
     1    1    2 ar   
     2    2    3 ar   
     3    3    4 ar   
     4    4    5 ar   
     5    5    6 ar   
     6    6    1 ar   
     7    6    7 1    
     8    7    8 1    
     9    7    9 1    
    10    5   10 ar   
    11   10   11 ar   
    12   11   12 ar   
    13   12    4 ar   
    14   11   13 1    
    15   10   14 1    
    16   14   15 1    
    17   14   16 1    
    18   14   17 1    
    19   17   18 1    
    20   17   19 1    
    21   19   20 ar   
    22   20   21 1    
    23   20   22 ar   
    24   22   23 ar   
    25   23   24 ar   
    26   24   25 ar   
    27   25   26 1    
    28   25   19 ar   
    29   24   27 1    
    30   23   28 1    
    31   28   29 ar   
    32   29   30 1    
    33   29   31 ar   
    34   31   32 1    
    35   31   33 ar   
    36   33   34 1    
    37   33   35 ar   
    38   35   36 1    
    39   35   28 ar   
    40   22   37 1    
    41    2   38 1    
    42   38   39 1    
    43   38   40 1    
@<TRIPOS>SUBSTRUCTURE
     1 ****        1 TEMP              0 ****  ****    0 ROOT 
@<TRIPOS>SET
UNITY_3DHIT     STATIC     ATOMS    <user>   **** Atoms matching 3D or FLEX Search
0
