#	Name:			36-6b
#	Creating user name:	jeff
#	Creation time:		Thu Dec  4 18:13:45 2003

#	Modifying user name:	jeff
#	Modification time:	Thu Dec  4 18:13:45 2003

@<TRIPOS>MOLECULE
36-6b
   40    42     1     0     1
SMALL
USER_CHARGES
****
From 3DB ct
@<TRIPOS>ATOM
      1 N          10.490000    2.797000   13.269000 N.ar      1 <1>        -0.705800 
      2 C          10.653000    2.015000   12.200000 C.ar      1 <1>         0.860200 
      3 N          11.742000    1.964000   11.445000 N.ar      1 <1>        -0.653700 
      4 C          12.705000    2.813000   11.835000 C.ar      1 <1>         0.405500 
      5 C          12.661000    3.701000   12.899000 C.ar      1 <1>        -0.739400 
      6 C          11.475000    3.636000   13.660000 C.ar      1 <1>         0.784700 
      7 N          11.224000    4.338000   14.812000 N.pl3     1 <1>        -0.751800 
      8 H          11.921000    4.859000   15.321000 H         1 <1>         0.324400 
      9 H          10.339000    4.173000   15.280000 H         1 <1>         0.326100 
     10 C          13.888000    4.503000   12.961000 C.ar      1 <1>         0.567200 
     11 C          14.792000    4.046000   12.017000 C.ar      1 <1>        -0.815400 
     12 S          14.179000    2.843000   10.995000 S.3       1 <1>         0.265100 
     13 Br         16.570000    4.640000   11.796000 Br        1 <1>         0.276900 
     14 C          14.112000    5.622000   13.955000 C.3       1 <1>         0.075100 
     15 H          14.372000    5.148000   14.910000 H         1 <1>         0.005800 
     16 H          13.166000    6.156000   14.068000 H         1 <1>         0.064800 
     17 N          15.103000    6.633000   13.620000 N.pl3     1 <1>        -0.518900 
     18 H          15.734000    6.899000   14.371000 H         1 <1>         0.264900 
     19 C          15.240000    7.277000   12.397000 C.ar      1 <1>         0.267600 
     20 C          16.464000    7.660000   11.797000 C.ar      1 <1>        -0.007800 
     21 C          16.457000    8.299000   10.549000 C.ar      1 <1>        -0.094100 
     22 H          17.374000    8.610000   10.055000 H         1 <1>         0.124300 
     23 C          15.257000    8.561000    9.887000 C.ar      1 <1>        -0.316300 
     24 H          15.279000    9.058000    8.918000 H         1 <1>         0.135100 
     25 C          14.043000    8.193000   10.455000 C.ar      1 <1>         0.338000 
     26 C          14.043000    7.559000   11.699000 C.ar      1 <1>        -0.346900 
     27 H          13.104000    7.264000   12.162000 H         1 <1>         0.147200 
     28 O          12.941000    8.504000    9.707000 O.3       1 <1>        -0.288400 
     29 C          13.174000    9.079000    8.423000 C.3       1 <1>         0.037100 
     30 H          12.200000    9.285000    7.971000 H         1 <1>         0.058500 
     31 H          13.706000    8.380000    7.769000 H         1 <1>         0.035700 
     32 H          13.710000   10.030000    8.509000 H         1 <1>         0.030500 
     33 O          17.620000    7.386000   12.486000 O.3       1 <1>        -0.210000 
     34 C          18.863000    7.719000   11.873000 C.3       1 <1>        -0.036900 
     35 H          19.661000    7.427000   12.564000 H         1 <1>         0.074700 
     36 H          18.944000    8.798000   11.707000 H         1 <1>         0.046900 
     37 H          19.007000    7.158000   10.944000 H         1 <1>         0.052000 
     38 N           9.619000    1.194000   11.868000 N.pl3     1 <1>        -0.866800 
     39 H           9.704000    0.576000   11.075000 H         1 <1>         0.396200 
     40 H           8.782000    1.195000   12.431000 H         1 <1>         0.387700 
@<TRIPOS>BOND
     1    1    2 ar   
     2    2    3 ar   
     3    3    4 ar   
     4    4    5 ar   
     5    5    6 ar   
     6    6    1 ar   
     7    6    7 1    
     8    7    8 1    
     9    7    9 1    
    10    5   10 ar   
    11   10   11 ar   
    12   11   12 ar   
    13   12    4 ar   
    14   11   13 1    
    15   10   14 1    
    16   14   15 1    
    17   14   16 1    
    18   14   17 1    
    19   17   18 1    
    20   17   19 1    
    21   19   20 ar   
    22   20   21 ar   
    23   21   22 1    
    24   21   23 ar   
    25   23   24 1    
    26   23   25 ar   
    27   25   26 ar   
    28   26   27 1    
    29   26   19 ar   
    30   25   28 1    
    31   28   29 1    
    32   29   30 1    
    33   29   31 1    
    34   29   32 1    
    35   20   33 1    
    36   33   34 1    
    37   34   35 1    
    38   34   36 1    
    39   34   37 1    
    40    2   38 1    
    41   38   39 1    
    42   38   40 1    
@<TRIPOS>SUBSTRUCTURE
     1 ****        1 TEMP              0 ****  ****    0 ROOT 
@<TRIPOS>SET
UNITY_3DHIT     STATIC     ATOMS    <user>   **** Atoms matching 3D or FLEX Search
0
