#	Name:			36-7b
#	Creating user name:	jeff
#	Creation time:		Thu Dec  4 18:13:45 2003

#	Modifying user name:	jeff
#	Modification time:	Thu Dec  4 18:13:45 2003

@<TRIPOS>MOLECULE
36-7b
   40    42     1     0     1
SMALL
USER_CHARGES
****
From 3DB ct
@<TRIPOS>ATOM
      1 N          10.507000    2.800000   13.279000 N.ar      1 <1>        -0.710000 
      2 C          10.684000    1.982000   12.237000 C.ar      1 <1>         0.821600 
      3 N          11.754000    1.954000   11.453000 N.ar      1 <1>        -0.570200 
      4 C          12.698000    2.841000   11.803000 C.ar      1 <1>         0.208000 
      5 C          12.653000    3.735000   12.861000 C.ar      1 <1>        -0.520500 
      6 C          11.463000    3.692000   13.615000 C.ar      1 <1>         0.794400 
      7 N          11.174000    4.505000   14.682000 N.pl3     1 <1>        -0.814600 
      8 H          11.763000    5.257000   15.000000 H         1 <1>         0.335200 
      9 H          10.274000    4.391000   15.135000 H         1 <1>         0.340500 
     10 C          13.881000    4.518000   12.931000 C.ar      1 <1>         0.133100 
     11 C          14.735000    4.191000   11.889000 C.ar      1 <1>        -0.335800 
     12 H          15.702000    4.621000   11.663000 H         1 <1>         0.225200 
     13 S          14.130000    2.948000   10.893000 S.3       1 <1>         0.172100 
     14 C          14.163000    5.565000   13.986000 C.3       1 <1>         0.075600 
     15 H          14.546000    5.045000   14.872000 H         1 <1>         0.068900 
     16 H          13.194000    6.020000   14.225000 H         1 <1>         0.082300 
     17 N          15.114000    6.616000   13.647000 N.pl3     1 <1>        -0.579500 
     18 H          15.581000    7.062000   14.434000 H         1 <1>         0.318000 
     19 C          15.248000    7.228000   12.405000 C.ar      1 <1>         0.250600 
     20 C          16.466000    7.641000   11.813000 C.ar      1 <1>         0.047900 
     21 C          16.449000    8.292000   10.571000 C.ar      1 <1>        -0.108400 
     22 H          17.361000    8.617000   10.078000 H         1 <1>         0.123500 
     23 C          15.245000    8.548000    9.914000 C.ar      1 <1>        -0.313900 
     24 H          15.260000    9.056000    8.951000 H         1 <1>         0.136600 
     25 C          14.036000    8.162000   10.481000 C.ar      1 <1>         0.345800 
     26 C          14.047000    7.513000   11.717000 C.ar      1 <1>        -0.363900 
     27 H          13.111000    7.213000   12.184000 H         1 <1>         0.148000 
     28 O          12.929000    8.476000    9.743000 O.3       1 <1>        -0.296500 
     29 C          13.152000    9.063000    8.462000 C.3       1 <1>         0.046500 
     30 H          12.174000    9.255000    8.009000 H         1 <1>         0.058300 
     31 H          13.695000    8.377000    7.804000 H         1 <1>         0.031400 
     32 H          13.671000   10.023000    8.555000 H         1 <1>         0.030900 
     33 O          17.626000    7.357000   12.489000 O.3       1 <1>        -0.245800 
     34 C          18.864000    7.716000   11.880000 C.3       1 <1>        -0.011500 
     35 H          19.666000    7.433000   12.570000 H         1 <1>         0.065800 
     36 H          18.928000    8.797000   11.723000 H         1 <1>         0.046200 
     37 H          19.018000    7.164000   10.947000 H         1 <1>         0.046300 
     38 N           9.678000    1.108000   11.956000 N.pl3     1 <1>        -0.853100 
     39 H           9.766000    0.475000   11.175000 H         1 <1>         0.384200 
     40 H           8.847000    1.104000   12.530000 H         1 <1>         0.386700 
@<TRIPOS>BOND
     1    1    2 ar   
     2    2    3 ar   
     3    3    4 ar   
     4    4    5 ar   
     5    5    6 ar   
     6    6    1 ar   
     7    6    7 1    
     8    7    8 1    
     9    7    9 1    
    10    5   10 ar   
    11   10   11 ar   
    12   11   12 1    
    13   11   13 ar   
    14   13    4 ar   
    15   10   14 1    
    16   14   15 1    
    17   14   16 1    
    18   14   17 1    
    19   17   18 1    
    20   17   19 1    
    21   19   20 ar   
    22   20   21 ar   
    23   21   22 1    
    24   21   23 ar   
    25   23   24 1    
    26   23   25 ar   
    27   25   26 ar   
    28   26   27 1    
    29   26   19 ar   
    30   25   28 1    
    31   28   29 1    
    32   29   30 1    
    33   29   31 1    
    34   29   32 1    
    35   20   33 1    
    36   33   34 1    
    37   34   35 1    
    38   34   36 1    
    39   34   37 1    
    40    2   38 1    
    41   38   39 1    
    42   38   40 1    
@<TRIPOS>SUBSTRUCTURE
     1 ****        1 TEMP              0 ****  ****    0 ROOT 
@<TRIPOS>SET
UNITY_3DHIT     STATIC     ATOMS    <user>   **** Atoms matching 3D or FLEX Search
0
