#	Name:			36-7a
#	Creating user name:	jeff
#	Creation time:		Thu Dec  4 18:13:45 2003

#	Modifying user name:	jeff
#	Modification time:	Thu Dec  4 18:13:45 2003

@<TRIPOS>MOLECULE
36-7a
   44    46     1     0     1
SMALL
USER_CHARGES
****
From 3DB ct
@<TRIPOS>ATOM
      1 N          10.507000    2.799000   13.280000 N.ar      1 <1>        -0.707800 
      2 C          10.681000    1.988000   12.233000 C.ar      1 <1>         0.826500 
      3 N          11.751000    1.960000   11.450000 N.ar      1 <1>        -0.570000 
      4 C          12.699000    2.840000   11.806000 C.ar      1 <1>         0.208600 
      5 C          12.658000    3.727000   12.871000 C.ar      1 <1>        -0.517000 
      6 C          11.467000    3.684000   13.623000 C.ar      1 <1>         0.780500 
      7 N          11.179000    4.492000   14.695000 N.pl3     1 <1>        -0.796300 
      8 H          11.766000    5.245000   15.015000 H         1 <1>         0.327400 
      9 H          10.277000    4.381000   15.143000 H         1 <1>         0.336900 
     10 C          13.892000    4.500000   12.949000 C.ar      1 <1>         0.135400 
     11 C          14.743000    4.177000   11.903000 C.ar      1 <1>        -0.331900 
     12 H          15.713000    4.605000   11.682000 H         1 <1>         0.223000 
     13 S          14.130000    2.947000   10.896000 S.3       1 <1>         0.174100 
     14 C          14.191000    5.536000   14.008000 C.3       1 <1>         0.043600 
     15 H          14.596000    5.020000   14.886000 H         1 <1>         0.074500 
     16 H          13.229000    5.984000   14.286000 H         1 <1>         0.097800 
     17 N          15.131000    6.594000   13.654000 N.pl3     1 <1>        -0.641700 
     18 H          15.630000    7.026000   14.429000 H         1 <1>         0.339700 
     19 C          15.145000    7.255000   12.438000 C.ar      1 <1>         0.467500 
     20 C          13.990000    7.540000   11.703000 C.ar      1 <1>        -0.528100 
     21 H          13.005000    7.284000   12.084000 H         1 <1>         0.170000 
     22 C          14.073000    8.166000   10.458000 C.ar      1 <1>         0.447800 
     23 C          15.312000    8.554000    9.941000 C.ar      1 <1>        -0.126000 
     24 C          16.488000    8.247000   10.635000 C.ar      1 <1>         0.253400 
     25 C          16.389000    7.599000   11.874000 C.ar      1 <1>        -0.467400 
     26 H          17.285000    7.346000   12.435000 H         1 <1>         0.152300 
     27 O          17.660000    8.615000   10.027000 O.3       1 <1>        -0.182600 
     28 C          18.873000    8.313000   10.713000 C.3       1 <1>        -0.072600 
     29 H          19.703000    8.672000   10.096000 H         1 <1>         0.078900 
     30 H          18.995000    7.233000   10.840000 H         1 <1>         0.060200 
     31 H          18.922000    8.836000   11.674000 H         1 <1>         0.068800 
     32 O          15.374000    9.170000    8.713000 O.3       1 <1>        -0.283800 
     33 C          16.738000    9.462000    8.387000 C.3       1 <1>         0.084600 
     34 H          16.750000    9.938000    7.402000 H         1 <1>         0.034800 
     35 H          17.337000    8.547000    8.330000 H         1 <1>         0.025500 
     36 H          17.176000   10.161000    9.108000 H         1 <1>         0.016000 
     37 O          12.912000    8.455000    9.787000 O.3       1 <1>        -0.308500 
     38 C          13.218000    9.039000    8.516000 C.3       1 <1>         0.071700 
     39 H          12.271000    9.254000    8.012000 H         1 <1>         0.039600 
     40 H          13.787000    8.344000    7.889000 H         1 <1>         0.039300 
     41 H          13.763000    9.982000    8.633000 H         1 <1>         0.037700 
     42 N           9.671000    1.120000   11.946000 N.pl3     1 <1>        -0.855800 
     43 H           9.758000    0.492000   11.161000 H         1 <1>         0.385100 
     44 H           8.840000    1.114000   12.518000 H         1 <1>         0.388300 
@<TRIPOS>BOND
     1    1    2 ar   
     2    2    3 ar   
     3    3    4 ar   
     4    4    5 ar   
     5    5    6 ar   
     6    6    1 ar   
     7    6    7 1    
     8    7    8 1    
     9    7    9 1    
    10    5   10 ar   
    11   10   11 ar   
    12   11   12 1    
    13   11   13 ar   
    14   13    4 ar   
    15   10   14 1    
    16   14   15 1    
    17   14   16 1    
    18   14   17 1    
    19   17   18 1    
    20   17   19 1    
    21   19   20 ar   
    22   20   21 1    
    23   20   22 ar   
    24   22   23 ar   
    25   23   24 ar   
    26   24   25 ar   
    27   25   26 1    
    28   25   19 ar   
    29   24   27 1    
    30   27   28 1    
    31   28   29 1    
    32   28   30 1    
    33   28   31 1    
    34   23   32 1    
    35   32   33 1    
    36   33   34 1    
    37   33   35 1    
    38   33   36 1    
    39   22   37 1    
    40   37   38 1    
    41   38   39 1    
    42   38   40 1    
    43   38   41 1    
    44    2   42 1    
    45   42   43 1    
    46   42   44 1    
@<TRIPOS>SUBSTRUCTURE
     1 ****        1 TEMP              0 ****  ****    0 ROOT 
@<TRIPOS>SET
UNITY_3DHIT     STATIC     ATOMS    <user>   **** Atoms matching 3D or FLEX Search
0
