#	Name:			36-7d
#	Creating user name:	jeff
#	Creation time:		Thu Dec  4 18:13:45 2003

#	Modifying user name:	jeff
#	Modification time:	Thu Dec  4 18:13:46 2003

@<TRIPOS>MOLECULE
36-7d
   43    45     1     0     1
SMALL
USER_CHARGES
****
From 3DB ct
@<TRIPOS>ATOM
      1 N          10.485000    2.779000   13.254000 N.ar      1 <1>        -0.712000 
      2 C          10.690000    1.963000   12.217000 C.ar      1 <1>         0.840000 
      3 N          11.780000    1.937000   11.460000 N.ar      1 <1>        -0.578300 
      4 C          12.701000    2.844000   11.816000 C.ar      1 <1>         0.216900 
      5 C          12.613000    3.760000   12.854000 C.ar      1 <1>        -0.540800 
      6 C          11.426000    3.680000   13.608000 C.ar      1 <1>         0.774400 
      7 N          11.136000    4.446000   14.710000 N.pl3     1 <1>        -0.772600 
      8 H          11.782000    5.085000   15.144000 H         1 <1>         0.327600 
      9 H          10.256000    4.279000   15.185000 H         1 <1>         0.329900 
     10 C          13.800000    4.601000   12.900000 C.ar      1 <1>         0.186800 
     11 C          14.722000    4.213000   11.940000 C.ar      1 <1>        -0.366200 
     12 H          15.701000    4.641000   11.761000 H         1 <1>         0.236300 
     13 S          14.167000    2.937000   10.959000 S.3       1 <1>         0.168200 
     14 C          14.025000    5.731000   13.882000 C.3       1 <1>         0.018300 
     15 H          14.132000    5.247000   14.862000 H         1 <1>         0.058200 
     16 H          13.126000    6.357000   13.911000 H         1 <1>         0.078000 
     17 N          15.179000    6.614000   13.625000 N.pl3     1 <1>        -0.362500 
     18 C          15.301000    7.250000   12.382000 C.ar      1 <1>         0.243700 
     19 C          16.533000    7.627000   11.795000 C.ar      1 <1>         0.093600 
     20 C          16.542000    8.251000   10.541000 C.ar      1 <1>        -0.175800 
     21 H          17.467000    8.553000   10.055000 H         1 <1>         0.137500 
     22 C          15.347000    8.524000    9.863000 C.ar      1 <1>        -0.265000 
     23 H          15.414000    9.012000    8.894000 H         1 <1>         0.134400 
     24 C          14.127000    8.179000   10.433000 C.ar      1 <1>         0.336000 
     25 C          14.116000    7.550000   11.681000 C.ar      1 <1>        -0.368100 
     26 H          13.157000    7.268000   12.115000 H         1 <1>         0.155300 
     27 O          12.894000    8.393000    9.883000 O.3       1 <1>        -0.284500 
     28 C          12.861000    8.995000    8.591000 C.3       1 <1>         0.010300 
     29 H          11.811000    9.111000    8.305000 H         1 <1>         0.069400 
     30 H          13.342000    8.354000    7.845000 H         1 <1>         0.039200 
     31 H          13.314000    9.992000    8.609000 H         1 <1>         0.037200 
     32 O          17.668000    7.380000   12.529000 O.3       1 <1>        -0.229700 
     33 C          18.924000    7.699000   11.935000 C.3       1 <1>        -0.048300 
     34 H          19.707000    7.427000   12.649000 H         1 <1>         0.070300 
     35 H          19.007000    8.773000   11.742000 H         1 <1>         0.059900 
     36 H          19.088000    7.115000   11.023000 H         1 <1>         0.053000 
     37 C          16.109000    6.805000   14.585000 C.3       1 <1>        -0.057500 
     38 H          15.771000    6.348000   15.515000 H         1 <1>         0.056500 
     39 H          17.049000    6.348000   14.275000 H         1 <1>         0.040900 
     40 H          16.258000    7.874000   14.738000 H         1 <1>         0.081100 
     41 N           9.696000    1.082000   11.916000 N.pl3     1 <1>        -0.871800 
     42 H           9.806000    0.448000   11.138000 H         1 <1>         0.389000 
     43 H           8.850000    1.078000   12.467000 H         1 <1>         0.391600 
@<TRIPOS>BOND
     1    1    2 ar   
     2    2    3 ar   
     3    3    4 ar   
     4    4    5 ar   
     5    5    6 ar   
     6    6    1 ar   
     7    6    7 1    
     8    7    8 1    
     9    7    9 1    
    10    5   10 ar   
    11   10   11 ar   
    12   11   12 1    
    13   11   13 ar   
    14   13    4 ar   
    15   10   14 1    
    16   14   15 1    
    17   14   16 1    
    18   14   17 1    
    19   17   18 1    
    20   18   19 ar   
    21   19   20 ar   
    22   20   21 1    
    23   20   22 ar   
    24   22   23 1    
    25   22   24 ar   
    26   24   25 ar   
    27   25   26 1    
    28   25   18 ar   
    29   24   27 1    
    30   27   28 1    
    31   28   29 1    
    32   28   30 1    
    33   28   31 1    
    34   19   32 1    
    35   32   33 1    
    36   33   34 1    
    37   33   35 1    
    38   33   36 1    
    39   17   37 1    
    40   37   38 1    
    41   37   39 1    
    42   37   40 1    
    43    2   41 1    
    44   41   42 1    
    45   41   43 1    
@<TRIPOS>SUBSTRUCTURE
     1 ****        1 TEMP              0 ****  ****    0 ROOT 
@<TRIPOS>SET
UNITY_3DHIT     STATIC     ATOMS    <user>   **** Atoms matching 3D or FLEX Search
0
