#	Name:			36-7e
#	Creating user name:	jeff
#	Creation time:		Thu Dec  4 18:13:46 2003

#	Modifying user name:	jeff
#	Modification time:	Thu Dec  4 18:13:46 2003

@<TRIPOS>MOLECULE
36-7e
   40    43     1     0     1
SMALL
USER_CHARGES
****
From 3DB ct
@<TRIPOS>ATOM
      1 N          10.513000    2.804000   13.281000 N.ar      1 <1>        -0.703100 
      2 C          10.689000    1.982000   12.243000 C.ar      1 <1>         0.818700 
      3 N          11.755000    1.954000   11.454000 N.ar      1 <1>        -0.566100 
      4 C          12.698000    2.845000   11.797000 C.ar      1 <1>         0.201900 
      5 C          12.656000    3.742000   12.853000 C.ar      1 <1>        -0.503000 
      6 C          11.467000    3.701000   13.609000 C.ar      1 <1>         0.779100 
      7 N          11.176000    4.521000   14.669000 N.pl3     1 <1>        -0.809000 
      8 H          11.754000    5.290000   14.971000 H         1 <1>         0.332100 
      9 H          10.276000    4.409000   15.123000 H         1 <1>         0.340800 
     10 C          13.885000    4.523000   12.919000 C.ar      1 <1>         0.125300 
     11 C          14.733000    4.197000   11.871000 C.ar      1 <1>        -0.365600 
     12 H          15.699000    4.629000   11.643000 H         1 <1>         0.231100 
     13 S          14.125000    2.953000   10.879000 S.3       1 <1>         0.190400 
     14 C          14.186000    5.568000   13.968000 C.3       1 <1>         0.126100 
     15 H          14.567000    5.059000   14.860000 H         1 <1>         0.062200 
     16 H          13.228000    6.038000   14.224000 H         1 <1>         0.076900 
     17 N          15.153000    6.602000   13.612000 N.pl3     1 <1>        -0.739700 
     18 H          15.673000    7.010000   14.387000 H         1 <1>         0.386400 
     19 C          15.179000    7.270000   12.403000 C.ar      1 <1>         0.277600 
     20 C          14.039000    7.574000   11.659000 C.ar      1 <1>         0.065700 
     21 H          13.054000    7.301000   12.033000 H         1 <1>         0.057700 
     22 C          14.120000    8.221000   10.414000 C.ar      1 <1>        -0.574100 
     23 C          15.368000    8.575000    9.875000 C.ar      1 <1>         0.811500 
     24 C          16.523000    8.260000   10.608000 C.ar      1 <1>        -0.540500 
     25 C          16.417000    7.611000   11.849000 C.ar      1 <1>        -0.021900 
     26 H          17.326000    7.381000   12.403000 H         1 <1>         0.082300 
     27 Cl         18.127000    8.738000   10.147000 Cl        1 <1>         0.132800 
     28 N          15.459000    9.232000    8.620000 N.pl3     1 <1>        -0.356000 
     29 C          16.291000    8.887000    7.571000 C.ar      1 <1>        -0.106700 
     30 H          16.939000    8.023000    7.638000 H         1 <1>         0.149600 
     31 C          16.089000    9.762000    6.526000 C.ar      1 <1>        -0.163600 
     32 H          16.597000    9.733000    5.568000 H         1 <1>         0.132700 
     33 C          15.103000   10.683000    6.937000 C.ar      1 <1>        -0.150600 
     34 H          14.705000   11.514000    6.365000 H         1 <1>         0.132400 
     35 C          14.732000   10.337000    8.218000 C.ar      1 <1>        -0.136100 
     36 H          14.030000   10.813000    8.891000 H         1 <1>         0.161300 
     37 Cl         12.614000    8.409000    9.569000 Cl        1 <1>         0.135000 
     38 N           9.685000    1.102000   11.971000 N.pl3     1 <1>        -0.846300 
     39 H           9.774000    0.463000   11.195000 H         1 <1>         0.385500 
     40 H           8.858000    1.096000   12.549000 H         1 <1>         0.387300 
@<TRIPOS>BOND
     1    1    2 ar   
     2    2    3 ar   
     3    3    4 ar   
     4    4    5 ar   
     5    5    6 ar   
     6    6    1 ar   
     7    6    7 1    
     8    7    8 1    
     9    7    9 1    
    10    5   10 ar   
    11   10   11 ar   
    12   11   12 1    
    13   11   13 ar   
    14   13    4 ar   
    15   10   14 1    
    16   14   15 1    
    17   14   16 1    
    18   14   17 1    
    19   17   18 1    
    20   17   19 1    
    21   19   20 ar   
    22   20   21 1    
    23   20   22 ar   
    24   22   23 ar   
    25   23   24 ar   
    26   24   25 ar   
    27   25   26 1    
    28   25   19 ar   
    29   24   27 1    
    30   23   28 1    
    31   28   29 ar   
    32   29   30 1    
    33   29   31 ar   
    34   31   32 1    
    35   31   33 ar   
    36   33   34 1    
    37   33   35 ar   
    38   35   36 1    
    39   35   28 ar   
    40   22   37 1    
    41    2   38 1    
    42   38   39 1    
    43   38   40 1    
@<TRIPOS>SUBSTRUCTURE
     1 ****        1 TEMP              0 ****  ****    0 ROOT 
@<TRIPOS>SET
UNITY_3DHIT     STATIC     ATOMS    <user>   **** Atoms matching 3D or FLEX Search
0
