#	Name:			36-7c
#	Creating user name:	jeff
#	Creation time:		Thu Dec  4 18:13:45 2003

#	Modifying user name:	jeff
#	Modification time:	Thu Dec  4 18:13:45 2003

@<TRIPOS>MOLECULE
36-7c
   47    49     1     0     1
SMALL
USER_CHARGES
****
From 3DB ct
@<TRIPOS>ATOM
      1 N          10.496000    2.799000   13.275000 N.ar      1 <1>        -0.705300 
      2 C          10.662000    2.021000   12.202000 C.ar      1 <1>         0.830400 
      3 N          11.752000    1.972000   11.447000 N.ar      1 <1>        -0.572900 
      4 C          12.715000    2.820000   11.840000 C.ar      1 <1>         0.221700 
      5 C          12.667000    3.699000   12.912000 C.ar      1 <1>        -0.522800 
      6 C          11.479000    3.638000   13.667000 C.ar      1 <1>         0.766200 
      7 N          11.228000    4.360000   14.806000 N.pl3     1 <1>        -0.765100 
      8 H          11.914000    4.922000   15.283000 H         1 <1>         0.326800 
      9 H          10.343000    4.208000   15.278000 H         1 <1>         0.327600 
     10 C          13.887000    4.490000   12.983000 C.ar      1 <1>         0.141800 
     11 C          14.796000    4.087000   12.018000 C.ar      1 <1>        -0.362000 
     12 H          15.795000    4.475000   11.856000 H         1 <1>         0.241500 
     13 S          14.188000    2.872000   10.992000 S.3       1 <1>         0.168000 
     14 C          14.152000    5.592000   13.986000 C.3       1 <1>         0.051500 
     15 H          14.384000    5.079000   14.926000 H         1 <1>         0.050800 
     16 H          13.226000    6.153000   14.156000 H         1 <1>         0.071900 
     17 N          15.182000    6.591000   13.634000 N.pl3     1 <1>        -0.365200 
     18 C          15.228000    7.237000   12.406000 C.ar      1 <1>         0.448600 
     19 C          16.438000    7.629000   11.815000 C.ar      1 <1>        -0.507100 
     20 H          17.388000    7.462000   12.315000 H         1 <1>         0.184700 
     21 C          16.469000    8.294000   10.586000 C.ar      1 <1>         0.360900 
     22 C          15.290000    8.545000    9.886000 C.ar      1 <1>        -0.243400 
     23 C          14.060000    8.195000   10.451000 C.ar      1 <1>         0.514900 
     24 C          14.046000    7.549000   11.697000 C.ar      1 <1>        -0.591400 
     25 H          13.094000    7.255000   12.129000 H         1 <1>         0.198100 
     26 O          12.948000    8.518000    9.715000 O.3       1 <1>        -0.312800 
     27 C          13.159000    9.077000    8.420000 C.3       1 <1>         0.050600 
     28 H          12.177000    9.265000    7.977000 H         1 <1>         0.046900 
     29 H          13.690000    8.374000    7.771000 H         1 <1>         0.042100 
     30 H          13.684000   10.034000    8.487000 H         1 <1>         0.050500 
     31 O          15.337000    9.206000    8.682000 O.3       1 <1>        -0.221500 
     32 C          16.698000    9.478000    8.330000 C.3       1 <1>        -0.036600 
     33 H          16.694000    9.999000    7.368000 H         1 <1>         0.050600 
     34 H          17.270000    8.552000    8.212000 H         1 <1>         0.066200 
     35 H          17.176000   10.132000    9.068000 H         1 <1>         0.062800 
     36 O          17.690000    8.636000   10.059000 O.3       1 <1>        -0.263900 
     37 C          18.738000    8.195000   10.929000 C.3       1 <1>         0.045700 
     38 H          19.691000    8.479000   10.473000 H         1 <1>         0.054900 
     39 H          18.726000    7.105000   11.040000 H         1 <1>         0.032400 
     40 H          18.672000    8.680000   11.909000 H         1 <1>         0.026000 
     41 C          16.233000    6.829000   14.630000 C.3       1 <1>        -0.033700 
     42 H          17.227000    6.796000   14.168000 H         1 <1>         0.026900 
     43 H          16.221000    6.060000   15.411000 H         1 <1>         0.069200 
     44 H          16.094000    7.799000   15.118000 H         1 <1>         0.057200 
     45 N           9.625000    1.206000   11.863000 N.pl3     1 <1>        -0.860500 
     46 H           9.704000    0.600000   11.060000 H         1 <1>         0.386500 
     47 H           8.781000    1.217000   12.417000 H         1 <1>         0.390000 
@<TRIPOS>BOND
     1    1    2 ar   
     2    2    3 ar   
     3    3    4 ar   
     4    4    5 ar   
     5    5    6 ar   
     6    6    1 ar   
     7    6    7 1    
     8    7    8 1    
     9    7    9 1    
    10    5   10 ar   
    11   10   11 ar   
    12   11   12 1    
    13   11   13 ar   
    14   13    4 ar   
    15   10   14 1    
    16   14   15 1    
    17   14   16 1    
    18   14   17 1    
    19   17   18 1    
    20   18   19 ar   
    21   19   20 1    
    22   19   21 ar   
    23   21   22 ar   
    24   22   23 ar   
    25   23   24 ar   
    26   24   25 1    
    27   24   18 ar   
    28   23   26 1    
    29   26   27 1    
    30   27   28 1    
    31   27   29 1    
    32   27   30 1    
    33   22   31 1    
    34   31   32 1    
    35   32   33 1    
    36   32   34 1    
    37   32   35 1    
    38   21   36 1    
    39   36   37 1    
    40   37   38 1    
    41   37   39 1    
    42   37   40 1    
    43   17   41 1    
    44   41   42 1    
    45   41   43 1    
    46   41   44 1    
    47    2   45 1    
    48   45   46 1    
    49   45   47 1    
@<TRIPOS>SUBSTRUCTURE
     1 ****        1 TEMP              0 ****  ****    0 ROOT 
@<TRIPOS>SET
UNITY_3DHIT     STATIC     ATOMS    <user>   **** Atoms matching 3D or FLEX Search
0
