#	Name:			37-1c
#	Creating user name:	jeff
#	Creation time:		Thu Dec  4 18:13:46 2003

#	Modifying user name:	jeff
#	Modification time:	Thu Dec  4 18:13:46 2003

@<TRIPOS>MOLECULE
37-1c
   28    30     1     0     1
SMALL
USER_CHARGES
****
From 3DB ct
@<TRIPOS>ATOM
      1 N          10.690000    2.627000   13.458000 N.ar      1 <1>        -0.682900 
      2 C          10.847000    1.878000   12.355000 C.ar      1 <1>         0.794600 
      3 N          11.810000    2.021000   11.441000 N.ar      1 <1>        -0.655500 
      4 C          12.659000    3.018000   11.728000 C.ar      1 <1>         0.392400 
      5 C          12.617000    3.856000   12.834000 C.ar      1 <1>        -0.422000 
      6 C          11.556000    3.632000   13.725000 C.ar      1 <1>         0.712800 
      7 N          11.322000    4.375000   14.854000 N.pl3     1 <1>        -0.782200 
      8 H          11.892000    5.173000   15.100000 H         1 <1>         0.353700 
      9 H          10.521000    4.155000   15.433000 H         1 <1>         0.338000 
     10 C          13.730000    4.749000   12.711000 C.ar      1 <1>        -0.131400 
     11 C          14.386000    4.430000   11.536000 C.ar      1 <1>        -0.133200 
     12 H          15.270000    4.846000   11.066000 H         1 <1>         0.213200 
     13 N          13.728000    3.377000   10.952000 N.pl3     1 <1>        -0.275400 
     14 H          13.986000    2.927000   10.083000 H         1 <1>         0.301900 
     15 C          14.196000    5.805000   13.590000 C.ar      1 <1>         0.161500 
     16 C          14.549000    5.520000   14.915000 C.ar      1 <1>         0.040100 
     17 H          14.483000    4.499000   15.287000 H         1 <1>         0.082400 
     18 C          14.992000    6.541000   15.762000 C.ar      1 <1>        -0.217600 
     19 C          15.083000    7.854000   15.288000 C.ar      1 <1>        -0.218400 
     20 C          14.727000    8.141000   13.968000 C.ar      1 <1>         0.085600 
     21 H          14.790000    9.158000   13.586000 H         1 <1>         0.063800 
     22 C          14.284000    7.121000   13.122000 C.ar      1 <1>        -0.206900 
     23 H          14.004000    7.366000   12.098000 H         1 <1>         0.133700 
     24 Cl         15.622000    9.162000   16.282000 Cl        1 <1>         0.060000 
     25 Cl         15.414000    6.114000   17.385000 Cl        1 <1>         0.062900 
     26 N           9.939000    0.883000   12.150000 N.pl3     1 <1>        -0.828800 
     27 H          10.018000    0.295000   11.334000 H         1 <1>         0.381400 
     28 H           9.195000    0.742000   12.818000 H         1 <1>         0.376500 
@<TRIPOS>BOND
     1    1    2 ar   
     2    2    3 ar   
     3    3    4 ar   
     4    4    5 ar   
     5    5    6 ar   
     6    6    1 ar   
     7    6    7 1    
     8    7    8 1    
     9    7    9 1    
    10    5   10 ar   
    11   10   11 ar   
    12   11   12 1    
    13   11   13 ar   
    14   13   14 1    
    15   13    4 ar   
    16   10   15 1    
    17   15   16 ar   
    18   16   17 1    
    19   16   18 ar   
    20   18   19 ar   
    21   19   20 ar   
    22   20   21 1    
    23   20   22 ar   
    24   22   23 1    
    25   22   15 ar   
    26   19   24 1    
    27   18   25 1    
    28    2   26 1    
    29   26   27 1    
    30   26   28 1    
@<TRIPOS>SUBSTRUCTURE
     1 ****        1 TEMP              0 ****  ****    0 ROOT 
@<TRIPOS>SET
UNITY_3DHIT     STATIC     ATOMS    <user>   **** Atoms matching 3D or FLEX Search
0
