#	Name:			37-1b
#	Creating user name:	jeff
#	Creation time:		Thu Dec  4 18:13:46 2003

#	Modifying user name:	jeff
#	Modification time:	Thu Dec  4 18:13:46 2003

@<TRIPOS>MOLECULE
37-1b
   28    30     1     0     1
SMALL
USER_CHARGES
****
From 3DB ct
@<TRIPOS>ATOM
      1 N          10.690000    2.628000   13.458000 N.ar      1 <1>        -0.696600 
      2 C          10.847000    1.879000   12.356000 C.ar      1 <1>         0.810600 
      3 N          11.809000    2.021000   11.441000 N.ar      1 <1>        -0.666600 
      4 C          12.659000    3.018000   11.728000 C.ar      1 <1>         0.419400 
      5 C          12.618000    3.856000   12.833000 C.ar      1 <1>        -0.477700 
      6 C          11.557000    3.633000   13.724000 C.ar      1 <1>         0.733500 
      7 N          11.322000    4.378000   14.853000 N.pl3     1 <1>        -0.784200 
      8 H          11.893000    5.176000   15.095000 H         1 <1>         0.356700 
      9 H          10.521000    4.160000   15.432000 H         1 <1>         0.339300 
     10 C          13.731000    4.749000   12.711000 C.ar      1 <1>        -0.079200 
     11 C          14.387000    4.429000   11.535000 C.ar      1 <1>        -0.138200 
     12 H          15.270000    4.845000   11.065000 H         1 <1>         0.211500 
     13 N          13.728000    3.377000   10.951000 N.pl3     1 <1>        -0.296000 
     14 H          13.986000    2.926000   10.083000 H         1 <1>         0.305700 
     15 C          14.197000    5.805000   13.589000 C.ar      1 <1>         0.223000 
     16 C          14.284000    7.125000   13.128000 C.ar      1 <1>        -0.271700 
     17 H          13.996000    7.375000   12.108000 H         1 <1>         0.133700 
     18 C          14.739000    8.139000   13.975000 C.ar      1 <1>         0.174400 
     19 H          14.799000    9.160000   13.605000 H         1 <1>         0.050400 
     20 C          15.110000    7.835000   15.284000 C.ar      1 <1>        -0.448400 
     21 C          15.031000    6.525000   15.752000 C.ar      1 <1>         0.168000 
     22 H          15.322000    6.282000   16.772000 H         1 <1>         0.052800 
     23 C          14.577000    5.510000   14.905000 C.ar      1 <1>        -0.264600 
     24 H          14.527000    4.489000   15.281000 H         1 <1>         0.149400 
     25 Cl         15.670000    9.085000   16.327000 Cl        1 <1>         0.073700 
     26 N           9.938000    0.884000   12.152000 N.pl3     1 <1>        -0.838400 
     27 H          10.016000    0.296000   11.335000 H         1 <1>         0.382200 
     28 H           9.194000    0.744000   12.819000 H         1 <1>         0.377400 
@<TRIPOS>BOND
     1    1    2 ar   
     2    2    3 ar   
     3    3    4 ar   
     4    4    5 ar   
     5    5    6 ar   
     6    6    1 ar   
     7    6    7 1    
     8    7    8 1    
     9    7    9 1    
    10    5   10 ar   
    11   10   11 ar   
    12   11   12 1    
    13   11   13 ar   
    14   13   14 1    
    15   13    4 ar   
    16   10   15 1    
    17   15   16 ar   
    18   16   17 1    
    19   16   18 ar   
    20   18   19 1    
    21   18   20 ar   
    22   20   21 ar   
    23   21   22 1    
    24   21   23 ar   
    25   23   24 1    
    26   23   15 ar   
    27   20   25 1    
    28    2   26 1    
    29   26   27 1    
    30   26   28 1    
@<TRIPOS>SUBSTRUCTURE
     1 ****        1 TEMP              0 ****  ****    0 ROOT 
@<TRIPOS>SET
UNITY_3DHIT     STATIC     ATOMS    <user>   **** Atoms matching 3D or FLEX Search
0
