#	Name:			37-1e
#	Creating user name:	jeff
#	Creation time:		Thu Dec  4 18:13:46 2003

#	Modifying user name:	jeff
#	Modification time:	Thu Dec  4 18:13:46 2003

@<TRIPOS>MOLECULE
37-1e
   31    33     1     0     1
SMALL
USER_CHARGES
****
From 3DB ct
@<TRIPOS>ATOM
      1 N          10.618000    3.035000   13.049000 N.ar      1 <1>        -0.722400 
      2 C          10.845000    2.080000   12.135000 C.ar      1 <1>         0.827000 
      3 N          11.950000    1.951000   11.400000 N.ar      1 <1>        -0.670500 
      4 C          12.867000    2.893000   11.662000 C.ar      1 <1>         0.433800 
      5 C          12.766000    3.928000   12.582000 C.ar      1 <1>        -0.578000 
      6 C          11.556000    3.979000   13.297000 C.ar      1 <1>         0.790800 
      7 N          11.230000    4.925000   14.236000 N.pl3     1 <1>        -0.781100 
      8 H          11.835000    5.691000   14.485000 H         1 <1>         0.351200 
      9 H          10.323000    4.870000   14.684000 H         1 <1>         0.328700 
     10 C          14.002000    4.668000   12.511000 C.ar      1 <1>         0.112600 
     11 C          14.768000    4.058000   11.526000 C.ar      1 <1>        -0.183500 
     12 H          15.753000    4.294000   11.141000 H         1 <1>         0.221300 
     13 N          14.078000    2.983000   11.034000 N.pl3     1 <1>        -0.318000 
     14 H          14.401000    2.350000   10.313000 H         1 <1>         0.314500 
     15 C          14.412000    5.878000   13.291000 C.3       1 <1>        -0.210600 
     16 H          15.209000    5.672000   14.008000 H         1 <1>         0.075100 
     17 H          13.565000    6.256000   13.878000 H         1 <1>         0.085200 
     18 C          14.854000    6.912000   12.280000 C.ar      1 <1>         0.105900 
     19 C          16.199000    7.020000   11.894000 C.ar      1 <1>        -0.177400 
     20 H          16.949000    6.354000   12.316000 H         1 <1>         0.118800 
     21 C          16.598000    7.982000   10.963000 C.ar      1 <1>        -0.085200 
     22 H          17.644000    8.054000   10.671000 H         1 <1>         0.100700 
     23 C          15.659000    8.848000   10.406000 C.ar      1 <1>        -0.119700 
     24 H          15.971000    9.597000    9.680000 H         1 <1>         0.103500 
     25 C          14.320000    8.754000   10.779000 C.ar      1 <1>        -0.093400 
     26 H          13.585000    9.429000   10.344000 H         1 <1>         0.103100 
     27 C          13.919000    7.793000   11.710000 C.ar      1 <1>        -0.143600 
     28 H          12.867000    7.732000   11.988000 H         1 <1>         0.099400 
     29 N           9.856000    1.163000   11.940000 N.pl3     1 <1>        -0.850700 
     30 H           9.984000    0.428000   11.261000 H         1 <1>         0.381900 
     31 H           9.004000    1.228000   12.477000 H         1 <1>         0.380800 
@<TRIPOS>BOND
     1    1    2 ar   
     2    2    3 ar   
     3    3    4 ar   
     4    4    5 ar   
     5    5    6 ar   
     6    6    1 ar   
     7    6    7 1    
     8    7    8 1    
     9    7    9 1    
    10    5   10 ar   
    11   10   11 ar   
    12   11   12 1    
    13   11   13 ar   
    14   13   14 1    
    15   13    4 ar   
    16   10   15 1    
    17   15   16 1    
    18   15   17 1    
    19   15   18 1    
    20   18   19 ar   
    21   19   20 1    
    22   19   21 ar   
    23   21   22 1    
    24   21   23 ar   
    25   23   24 1    
    26   23   25 ar   
    27   25   26 1    
    28   25   27 ar   
    29   27   28 1    
    30   27   18 ar   
    31    2   29 1    
    32   29   30 1    
    33   29   31 1    
@<TRIPOS>SUBSTRUCTURE
     1 ****        1 TEMP              0 ****  ****    0 ROOT 
@<TRIPOS>SET
UNITY_3DHIT     STATIC     ATOMS    <user>   **** Atoms matching 3D or FLEX Search
0
