#	Name:			37-1a
#	Creating user name:	jeff
#	Creation time:		Thu Dec  4 18:13:46 2003

#	Modifying user name:	jeff
#	Modification time:	Thu Dec  4 18:13:46 2003

@<TRIPOS>MOLECULE
37-1a
   28    30     1     0     1
SMALL
USER_CHARGES
****
From 3DB ct
@<TRIPOS>ATOM
      1 N          10.690000    2.629000   13.458000 N.ar      1 <1>        -0.701400 
      2 C          10.847000    1.879000   12.356000 C.ar      1 <1>         0.811000 
      3 N          11.809000    2.021000   11.441000 N.ar      1 <1>        -0.668400 
      4 C          12.660000    3.017000   11.728000 C.ar      1 <1>         0.427600 
      5 C          12.619000    3.855000   12.833000 C.ar      1 <1>        -0.498500 
      6 C          11.558000    3.634000   13.724000 C.ar      1 <1>         0.743500 
      7 N          11.324000    4.378000   14.853000 N.pl3     1 <1>        -0.786300 
      8 H          11.897000    5.175000   15.095000 H         1 <1>         0.362800 
      9 H          10.523000    4.162000   15.433000 H         1 <1>         0.338000 
     10 C          13.732000    4.748000   12.710000 C.ar      1 <1>        -0.028000 
     11 C          14.388000    4.428000   11.535000 C.ar      1 <1>        -0.140700 
     12 H          15.271000    4.844000   11.064000 H         1 <1>         0.210500 
     13 N          13.729000    3.375000   10.951000 N.pl3     1 <1>        -0.312600 
     14 H          13.986000    2.924000   10.083000 H         1 <1>         0.308000 
     15 C          14.199000    5.804000   13.589000 C.ar      1 <1>         0.081300 
     16 C          14.283000    7.124000   13.129000 C.ar      1 <1>        -0.136600 
     17 H          13.993000    7.375000   12.109000 H         1 <1>         0.107400 
     18 C          14.736000    8.138000   13.977000 C.ar      1 <1>        -0.114900 
     19 H          14.797000    9.162000   13.614000 H         1 <1>         0.103800 
     20 C          15.108000    7.838000   15.286000 C.ar      1 <1>        -0.093400 
     21 H          15.461000    8.629000   15.947000 H         1 <1>         0.097600 
     22 C          15.031000    6.526000   15.750000 C.ar      1 <1>        -0.115400 
     23 H          15.325000    6.291000   16.772000 H         1 <1>         0.105500 
     24 C          14.579000    5.510000   14.904000 C.ar      1 <1>        -0.148100 
     25 H          14.531000    4.489000   15.280000 H         1 <1>         0.129900 
     26 N           9.937000    0.885000   12.152000 N.pl3     1 <1>        -0.840400 
     27 H          10.015000    0.297000   11.335000 H         1 <1>         0.381000 
     28 H           9.193000    0.746000   12.819000 H         1 <1>         0.376800 
@<TRIPOS>BOND
     1    1    2 ar   
     2    2    3 ar   
     3    3    4 ar   
     4    4    5 ar   
     5    5    6 ar   
     6    6    1 ar   
     7    6    7 1    
     8    7    8 1    
     9    7    9 1    
    10    5   10 ar   
    11   10   11 ar   
    12   11   12 1    
    13   11   13 ar   
    14   13   14 1    
    15   13    4 ar   
    16   10   15 1    
    17   15   16 ar   
    18   16   17 1    
    19   16   18 ar   
    20   18   19 1    
    21   18   20 ar   
    22   20   21 1    
    23   20   22 ar   
    24   22   23 1    
    25   22   24 ar   
    26   24   25 1    
    27   24   15 ar   
    28    2   26 1    
    29   26   27 1    
    30   26   28 1    
@<TRIPOS>SUBSTRUCTURE
     1 ****        1 TEMP              0 ****  ****    0 ROOT 
@<TRIPOS>SET
UNITY_3DHIT     STATIC     ATOMS    <user>   **** Atoms matching 3D or FLEX Search
0
