#	Name:			37-1d
#	Creating user name:	jeff
#	Creation time:		Thu Dec  4 18:13:46 2003

#	Modifying user name:	jeff
#	Modification time:	Thu Dec  4 18:13:46 2003

@<TRIPOS>MOLECULE
37-1d
   40    42     1     0     1
SMALL
USER_CHARGES
****
From 3DB ct
@<TRIPOS>ATOM
      1 N          10.531000    2.832000   13.281000 N.ar      1 <1>        -0.726700 
      2 C          10.748000    2.007000   12.245000 C.ar      1 <1>         0.837000 
      3 N          11.837000    1.987000   11.473000 N.ar      1 <1>        -0.676100 
      4 C          12.743000    2.912000   11.823000 C.ar      1 <1>         0.437300 
      5 C          12.639000    3.829000   12.859000 C.ar      1 <1>        -0.567700 
      6 C          11.464000    3.752000   13.622000 C.ar      1 <1>         0.792900 
      7 N          11.192000    4.541000   14.711000 N.pl3     1 <1>        -0.791000 
      8 H          11.866000    5.196000   15.081000 H         1 <1>         0.356900 
      9 H          10.327000    4.398000   15.219000 H         1 <1>         0.344300 
     10 C          13.839000    4.612000   12.833000 C.ar      1 <1>         0.091000 
     11 C          14.623000    4.127000   11.801000 C.ar      1 <1>        -0.170700 
     12 H          15.597000    4.426000   11.431000 H         1 <1>         0.217200 
     13 N          13.946000    3.098000   11.196000 N.pl3     1 <1>        -0.323800 
     14 H          14.273000    2.558000   10.405000 H         1 <1>         0.314400 
     15 C          14.254000    5.738000   13.650000 C.ar      1 <1>         0.104400 
     16 C          15.454000    5.681000   14.367000 C.ar      1 <1>        -0.304200 
     17 H          16.078000    4.791000   14.332000 H         1 <1>         0.126300 
     18 C          15.853000    6.775000   15.131000 C.ar      1 <1>         0.276500 
     19 C          15.037000    7.909000   15.226000 C.ar      1 <1>        -0.166100 
     20 C          13.842000    7.988000   14.494000 C.ar      1 <1>         0.394800 
     21 C          13.459000    6.896000   13.707000 C.ar      1 <1>        -0.380300 
     22 H          12.543000    6.920000   13.121000 H         1 <1>         0.182200 
     23 O          13.136000    9.157000   14.616000 O.3       1 <1>        -0.310700 
     24 C          13.684000   10.162000   15.466000 C.3       1 <1>         0.050600 
     25 H          13.021000   11.031000   15.424000 H         1 <1>         0.047700 
     26 H          14.673000   10.479000   15.117000 H         1 <1>         0.040800 
     27 H          13.720000    9.820000   16.506000 H         1 <1>         0.047400 
     28 O          15.448000    8.979000   15.986000 O.3       1 <1>        -0.217300 
     29 C          16.685000    8.666000   16.636000 C.3       1 <1>        -0.013700 
     30 H          16.959000    9.522000   17.259000 H         1 <1>         0.046400 
     31 H          17.485000    8.507000   15.905000 H         1 <1>         0.057000 
     32 H          16.583000    7.790000   17.286000 H         1 <1>         0.054200 
     33 O          17.022000    6.693000   15.844000 O.3       1 <1>        -0.223500 
     34 C          17.667000    5.443000   15.574000 C.3       1 <1>        -0.069700 
     35 H          18.598000    5.418000   16.148000 H         1 <1>         0.083500 
     36 H          17.919000    5.348000   14.512000 H         1 <1>         0.061000 
     37 H          17.045000    4.601000   15.896000 H         1 <1>         0.066600 
     38 N           9.767000    1.106000   11.959000 N.pl3     1 <1>        -0.854700 
     39 H           9.885000    0.466000   11.187000 H         1 <1>         0.383300 
     40 H           8.928000    1.089000   12.519000 H         1 <1>         0.382500 
@<TRIPOS>BOND
     1    1    2 ar   
     2    2    3 ar   
     3    3    4 ar   
     4    4    5 ar   
     5    5    6 ar   
     6    6    1 ar   
     7    6    7 1    
     8    7    8 1    
     9    7    9 1    
    10    5   10 ar   
    11   10   11 ar   
    12   11   12 1    
    13   11   13 ar   
    14   13   14 1    
    15   13    4 ar   
    16   10   15 1    
    17   15   16 ar   
    18   16   17 1    
    19   16   18 ar   
    20   18   19 ar   
    21   19   20 ar   
    22   20   21 ar   
    23   21   22 1    
    24   21   15 ar   
    25   20   23 1    
    26   23   24 1    
    27   24   25 1    
    28   24   26 1    
    29   24   27 1    
    30   19   28 1    
    31   28   29 1    
    32   29   30 1    
    33   29   31 1    
    34   29   32 1    
    35   18   33 1    
    36   33   34 1    
    37   34   35 1    
    38   34   36 1    
    39   34   37 1    
    40    2   38 1    
    41   38   39 1    
    42   38   40 1    
@<TRIPOS>SUBSTRUCTURE
     1 ****        1 TEMP              0 ****  ****    0 ROOT 
@<TRIPOS>SET
UNITY_3DHIT     STATIC     ATOMS    <user>   **** Atoms matching 3D or FLEX Search
0
