#	Name:			38-12
#	Creating user name:	jeff
#	Creation time:		Thu Dec  4 18:13:46 2003

#	Modifying user name:	jeff
#	Modification time:	Thu Dec  4 18:13:46 2003

@<TRIPOS>MOLECULE
38-12
   41    44     1     0     1
SMALL
USER_CHARGES
****
From 3DB ct
@<TRIPOS>ATOM
      1 N          10.479000    2.767000   13.253000 N.ar      1 <1>        -0.726200 
      2 C          10.737000    1.984000   12.195000 C.ar      1 <1>         0.833200 
      3 N          11.839000    2.016000   11.451000 N.ar      1 <1>        -0.676100 
      4 C          12.716000    2.930000   11.877000 C.ar      1 <1>         0.578000 
      5 C          12.587000    3.791000   12.957000 C.ar      1 <1>        -0.725200 
      6 C          11.381000    3.690000   13.659000 C.ar      1 <1>         0.828600 
      7 N          11.027000    4.464000   14.733000 N.pl3     1 <1>        -0.781300 
      8 H          11.588000    5.222000   15.092000 H         1 <1>         0.341500 
      9 H          10.118000    4.314000   15.156000 H         1 <1>         0.330300 
     10 C          13.800000    4.554000   13.006000 C.ar      1 <1>         0.232700 
     11 C          14.548000    4.118000   11.928000 C.ar      1 <1>        -0.164300 
     12 H          15.521000    4.398000   11.542000 H         1 <1>         0.228200 
     13 O          13.908000    3.135000   11.252000 O.3       1 <1>        -0.155500 
     14 C          14.200000    5.622000   13.982000 C.3       1 <1>        -0.197600 
     15 H          14.504000    5.170000   14.931000 H         1 <1>         0.123000 
     16 H          13.279000    6.182000   14.182000 H         1 <1>         0.111400 
     17 N          15.293000    6.524000   13.567000 N.pl3     1 <1>        -0.267700 
     18 C          15.288000    7.204000   12.357000 C.ar      1 <1>         0.266700 
     19 C          16.471000    7.619000   11.721000 C.ar      1 <1>        -0.350300 
     20 H          17.438000    7.381000   12.163000 H         1 <1>         0.144700 
     21 C          16.474000    8.311000   10.491000 C.ar      1 <1>         0.159800 
     22 C          15.248000    8.602000    9.860000 C.ar      1 <1>         0.031100 
     23 C          14.061000    8.192000   10.474000 C.ar      1 <1>        -0.115100 
     24 H          13.097000    8.402000   10.012000 H         1 <1>         0.122300 
     25 C          14.088000    7.505000   11.695000 C.ar      1 <1>        -0.236400 
     26 H          13.129000    7.227000   12.130000 H         1 <1>         0.117600 
     27 C          15.244000    9.291000    8.635000 C.ar      1 <1>        -0.160100 
     28 H          14.304000    9.524000    8.136000 H         1 <1>         0.118500 
     29 C          16.441000    9.686000    8.037000 C.ar      1 <1>        -0.114200 
     30 H          16.426000   10.219000    7.088000 H         1 <1>         0.102900 
     31 C          17.654000    9.398000    8.656000 C.ar      1 <1>        -0.071100 
     32 H          18.590000    9.704000    8.192000 H         1 <1>         0.100200 
     33 C          17.670000    8.714000    9.874000 C.ar      1 <1>        -0.202100 
     34 H          18.631000    8.498000   10.340000 H         1 <1>         0.119200 
     35 C          16.336000    6.812000   14.554000 C.3       1 <1>        -0.044900 
     36 H          16.517000    7.890000   14.636000 H         1 <1>         0.053200 
     37 H          17.272000    6.310000   14.286000 H         1 <1>         0.042200 
     38 H          16.048000    6.467000   15.554000 H         1 <1>         0.069300 
     39 N           9.780000    1.076000   11.854000 N.pl3     1 <1>        -0.831300 
     40 H           9.930000    0.458000   11.070000 H         1 <1>         0.383600 
     41 H           8.932000    1.018000   12.399000 H         1 <1>         0.381000 
@<TRIPOS>BOND
     1    1    2 ar   
     2    2    3 ar   
     3    3    4 ar   
     4    4    5 ar   
     5    5    6 ar   
     6    6    1 ar   
     7    6    7 1    
     8    7    8 1    
     9    7    9 1    
    10    5   10 ar   
    11   10   11 ar   
    12   11   12 1    
    13   11   13 ar   
    14   13    4 ar   
    15   10   14 1    
    16   14   15 1    
    17   14   16 1    
    18   14   17 1    
    19   17   18 1    
    20   18   19 ar   
    21   19   20 1    
    22   19   21 ar   
    23   21   22 ar   
    24   22   23 ar   
    25   23   24 1    
    26   23   25 ar   
    27   25   26 1    
    28   25   18 ar   
    29   22   27 ar   
    30   27   28 1    
    31   27   29 ar   
    32   29   30 1    
    33   29   31 ar   
    34   31   32 1    
    35   31   33 ar   
    36   33   34 1    
    37   33   21 ar   
    38   17   35 1    
    39   35   36 1    
    40   35   37 1    
    41   35   38 1    
    42    2   39 1    
    43   39   40 1    
    44   39   41 1    
@<TRIPOS>SUBSTRUCTURE
     1 ****        1 TEMP              0 ****  ****    0 ROOT 
@<TRIPOS>SET
UNITY_3DHIT     STATIC     ATOMS    <user>   **** Atoms matching 3D or FLEX Search
0
