#	Name:			38-17
#	Creating user name:	jeff
#	Creation time:		Thu Dec  4 18:13:46 2003

#	Modifying user name:	jeff
#	Modification time:	Thu Dec  4 18:13:46 2003

@<TRIPOS>MOLECULE
38-17
   43    45     1     0     1
SMALL
USER_CHARGES
****
From 3DB ct
@<TRIPOS>ATOM
      1 N          10.462000    2.747000   13.240000 N.ar      1 <1>        -0.730600 
      2 C          10.733000    1.979000   12.174000 C.ar      1 <1>         0.847600 
      3 N          11.848000    2.017000   11.450000 N.ar      1 <1>        -0.684500 
      4 C          12.714000    2.934000   11.892000 C.ar      1 <1>         0.578700 
      5 C          12.562000    3.794000   12.970000 C.ar      1 <1>        -0.725300 
      6 C          11.358000    3.665000   13.670000 C.ar      1 <1>         0.819600 
      7 N          11.008000    4.396000   14.775000 N.pl3     1 <1>        -0.762300 
      8 H          11.614000    5.072000   15.216000 H         1 <1>         0.333100 
      9 H          10.112000    4.213000   15.212000 H         1 <1>         0.327700 
     10 C          13.758000    4.582000   13.022000 C.ar      1 <1>         0.179400 
     11 C          14.542000    4.128000   11.978000 C.ar      1 <1>        -0.122400 
     12 H          15.525000    4.405000   11.615000 H         1 <1>         0.202500 
     13 O          13.919000    3.139000   11.293000 O.3       1 <1>        -0.157400 
     14 C          14.130000    5.680000   13.972000 C.3       1 <1>        -0.041300 
     15 H          14.308000    5.271000   14.971000 H         1 <1>         0.075200 
     16 H          13.230000    6.304000   14.064000 H         1 <1>         0.092100 
     17 N          15.283000    6.513000   13.591000 N.pl3     1 <1>        -0.347000 
     18 C          15.308000    7.194000   12.373000 C.ar      1 <1>         0.225600 
     19 C          16.509000    7.647000   11.765000 C.ar      1 <1>         0.101000 
     20 C          16.462000    8.343000   10.550000 C.ar      1 <1>        -0.200500 
     21 H          17.359000    8.704000   10.055000 H         1 <1>         0.148900 
     22 C          15.241000    8.587000    9.919000 C.ar      1 <1>        -0.248300 
     23 H          15.229000    9.127000    8.973000 H         1 <1>         0.129500 
     24 C          14.052000    8.140000   10.484000 C.ar      1 <1>         0.349700 
     25 C          14.093000    7.450000   11.698000 C.ar      1 <1>        -0.377200 
     26 H          13.168000    7.119000   12.162000 H         1 <1>         0.159800 
     27 O          12.928000    8.441000    9.765000 O.3       1 <1>        -0.295400 
     28 C          13.120000    9.052000    8.490000 C.3       1 <1>         0.045300 
     29 H          12.132000    9.238000    8.058000 H         1 <1>         0.060300 
     30 H          13.661000    8.383000    7.813000 H         1 <1>         0.030700 
     31 H          13.629000   10.017000    8.589000 H         1 <1>         0.029000 
     32 O          17.683000    7.322000   12.402000 O.3       1 <1>        -0.226900 
     33 C          18.905000    7.761000   11.811000 C.3       1 <1>        -0.027700 
     34 H          19.723000    7.428000   12.457000 H         1 <1>         0.060200 
     35 H          18.946000    8.854000   11.759000 H         1 <1>         0.056200 
     36 H          19.051000    7.306000   10.826000 H         1 <1>         0.044900 
     37 C          16.429000    6.590000   14.492000 C.3       1 <1>        -0.030300 
     38 H          16.912000    7.573000   14.441000 H         1 <1>         0.073000 
     39 H          17.166000    5.819000   14.247000 H         1 <1>         0.033800 
     40 H          16.120000    6.450000   15.533000 H         1 <1>         0.049300 
     41 N           9.780000    1.079000   11.806000 N.pl3     1 <1>        -0.845700 
     42 H           9.936000    0.478000   11.010000 H         1 <1>         0.386200 
     43 H           8.921000    1.019000   12.333000 H         1 <1>         0.383400 
@<TRIPOS>BOND
     1    1    2 ar   
     2    2    3 ar   
     3    3    4 ar   
     4    4    5 ar   
     5    5    6 ar   
     6    6    1 ar   
     7    6    7 1    
     8    7    8 1    
     9    7    9 1    
    10    5   10 ar   
    11   10   11 ar   
    12   11   12 1    
    13   11   13 ar   
    14   13    4 ar   
    15   10   14 1    
    16   14   15 1    
    17   14   16 1    
    18   14   17 1    
    19   17   18 1    
    20   18   19 ar   
    21   19   20 ar   
    22   20   21 1    
    23   20   22 ar   
    24   22   23 1    
    25   22   24 ar   
    26   24   25 ar   
    27   25   26 1    
    28   25   18 ar   
    29   24   27 1    
    30   27   28 1    
    31   28   29 1    
    32   28   30 1    
    33   28   31 1    
    34   19   32 1    
    35   32   33 1    
    36   33   34 1    
    37   33   35 1    
    38   33   36 1    
    39   17   37 1    
    40   37   38 1    
    41   37   39 1    
    42   37   40 1    
    43    2   41 1    
    44   41   42 1    
    45   41   43 1    
@<TRIPOS>SUBSTRUCTURE
     1 ****        1 TEMP              0 ****  ****    0 ROOT 
@<TRIPOS>SET
UNITY_3DHIT     STATIC     ATOMS    <user>   **** Atoms matching 3D or FLEX Search
0
