#	Name:			38-10
#	Creating user name:	jeff
#	Creation time:		Thu Dec  4 18:13:46 2003

#	Modifying user name:	jeff
#	Modification time:	Thu Dec  4 18:13:46 2003

@<TRIPOS>MOLECULE
38-10
   43    46     1     0     1
SMALL
USER_CHARGES
****
From 3DB ct
@<TRIPOS>ATOM
      1 N          10.489000    2.778000   13.262000 N.ar      1 <1>        -0.718000 
      2 C          10.734000    1.999000   12.197000 C.ar      1 <1>         0.817500 
      3 N          11.834000    2.021000   11.449000 N.ar      1 <1>        -0.672300 
      4 C          12.722000    2.925000   11.876000 C.ar      1 <1>         0.567400 
      5 C          12.605000    3.781000   12.960000 C.ar      1 <1>        -0.664000 
      6 C          11.404000    3.688000   13.669000 C.ar      1 <1>         0.811300 
      7 N          11.071000    4.461000   14.751000 N.pl3     1 <1>        -0.786100 
      8 H          11.655000    5.199000   15.113000 H         1 <1>         0.339900 
      9 H          10.166000    4.321000   15.186000 H         1 <1>         0.333100 
     10 C          13.823000    4.537000   13.009000 C.ar      1 <1>         0.098300 
     11 C          14.565000    4.098000   11.927000 C.ar      1 <1>        -0.117900 
     12 H          15.537000    4.371000   11.534000 H         1 <1>         0.212600 
     13 O          13.914000    3.122000   11.248000 O.3       1 <1>        -0.155200 
     14 C          14.210000    5.596000   13.993000 C.3       1 <1>         0.027700 
     15 H          14.564000    5.112000   14.911000 H         1 <1>         0.077200 
     16 H          13.296000    6.151000   14.239000 H         1 <1>         0.083700 
     17 N          15.244000    6.528000   13.558000 N.pl3     1 <1>        -0.637900 
     18 H          15.957000    6.686000   14.084000 H         1 <1>         0.336200 
     19 C          15.225000    7.218000   12.363000 C.ar      1 <1>         0.358400 
     20 C          14.052000    7.526000   11.663000 C.ar      1 <1>        -0.244700 
     21 H          13.075000    7.255000   12.058000 H         1 <1>         0.138500 
     22 C          14.092000    8.202000   10.436000 C.ar      1 <1>        -0.173100 
     23 H          13.159000    8.445000    9.933000 H         1 <1>         0.133600 
     24 C          15.319000    8.560000    9.879000 C.ar      1 <1>         0.207200 
     25 C          16.496000    8.276000   10.562000 C.ar      1 <1>        -0.099200 
     26 H          17.458000    8.568000   10.146000 H         1 <1>         0.132300 
     27 C          16.445000    7.599000   11.785000 C.ar      1 <1>        -0.299600 
     28 H          17.383000    7.373000   12.292000 H         1 <1>         0.132500 
     29 O          15.405000    9.222000    8.657000 O.3       1 <1>        -0.357600 
     30 C          14.561000    8.800000    7.636000 C.ar      1 <1>         0.321200 
     31 C          14.160000    7.456000    7.480000 C.ar      1 <1>        -0.250200 
     32 H          14.517000    6.681000    8.183000 H         1 <1>         0.131600 
     33 C          13.314000    7.099000    6.424000 C.ar      1 <1>        -0.047500 
     34 H          12.997000    6.043000    6.311000 H         1 <1>         0.103400 
     35 C          12.868000    8.056000    5.506000 C.ar      1 <1>        -0.154100 
     36 H          12.202000    7.763000    4.673000 H         1 <1>         0.108200 
     37 C          13.284000    9.383000    5.645000 C.ar      1 <1>        -0.060700 
     38 H          12.946000   10.147000    4.918000 H         1 <1>         0.103600 
     39 C          14.130000    9.752000    6.697000 C.ar      1 <1>        -0.213500 
     40 H          14.463000   10.802000    6.808000 H         1 <1>         0.136000 
     41 N           9.764000    1.106000   11.853000 N.pl3     1 <1>        -0.818400 
     42 H           9.899000    0.498000   11.058000 H         1 <1>         0.381400 
     43 H           8.913000    1.061000   12.395000 H         1 <1>         0.377200 
@<TRIPOS>BOND
     1    1    2 ar   
     2    2    3 ar   
     3    3    4 ar   
     4    4    5 ar   
     5    5    6 ar   
     6    6    1 ar   
     7    6    7 1    
     8    7    8 1    
     9    7    9 1    
    10    5   10 ar   
    11   10   11 ar   
    12   11   12 1    
    13   11   13 ar   
    14   13    4 ar   
    15   10   14 1    
    16   14   15 1    
    17   14   16 1    
    18   14   17 1    
    19   17   18 1    
    20   17   19 1    
    21   19   20 ar   
    22   20   21 1    
    23   20   22 ar   
    24   22   23 1    
    25   22   24 ar   
    26   24   25 ar   
    27   25   26 1    
    28   25   27 ar   
    29   27   28 1    
    30   27   19 ar   
    31   24   29 1    
    32   29   30 1    
    33   30   31 ar   
    34   31   32 1    
    35   31   33 ar   
    36   33   34 1    
    37   33   35 ar   
    38   35   36 1    
    39   35   37 ar   
    40   37   38 1    
    41   37   39 ar   
    42   39   40 1    
    43   39   30 ar   
    44    2   41 1    
    45   41   42 1    
    46   41   43 1    
@<TRIPOS>SUBSTRUCTURE
     1 ****        1 TEMP              0 ****  ****    0 ROOT 
@<TRIPOS>SET
UNITY_3DHIT     STATIC     ATOMS    <user>   **** Atoms matching 3D or FLEX Search
0
