#	Name:			38-13
#	Creating user name:	jeff
#	Creation time:		Thu Dec  4 18:13:46 2003

#	Modifying user name:	jeff
#	Modification time:	Thu Dec  4 18:13:46 2003

@<TRIPOS>MOLECULE
38-13
   32    34     1     0     1
SMALL
USER_CHARGES
****
From 3DB ct
@<TRIPOS>ATOM
      1 N          10.492000    2.789000   13.273000 N.ar      1 <1>        -0.710600 
      2 C          10.709000    2.027000   12.190000 C.ar      1 <1>         0.828900 
      3 N          11.809000    2.029000   11.441000 N.ar      1 <1>        -0.681700 
      4 C          12.722000    2.902000   11.878000 C.ar      1 <1>         0.586000 
      5 C          12.626000    3.752000   12.969000 C.ar      1 <1>        -0.647200 
      6 C          11.435000    3.662000   13.695000 C.ar      1 <1>         0.770700 
      7 N          11.148000    4.394000   14.819000 N.pl3     1 <1>        -0.740600 
      8 H          11.789000    5.049000   15.240000 H         1 <1>         0.320400 
      9 H          10.256000    4.246000   15.277000 H         1 <1>         0.325600 
     10 C          13.853000    4.492000   13.013000 C.ar      1 <1>        -0.016600 
     11 C          14.605000    4.009000   11.958000 C.ar      1 <1>        -0.105000 
     12 H          15.597000    4.235000   11.587000 H         1 <1>         0.209900 
     13 O          13.927000    3.061000   11.265000 O.3       1 <1>        -0.155200 
     14 C          14.245000    5.541000   14.010000 C.3       1 <1>         0.393100 
     15 H          14.717000    5.007000   14.842000 H         1 <1>         0.010800 
     16 H          13.325000    6.018000   14.366000 H         1 <1>         0.010900 
     17 N          15.139000    6.586000   13.538000 N.pl3     1 <1>        -0.967700 
     18 H          15.935000    6.777000   14.144000 H         1 <1>         0.389300 
     19 C          15.249000    7.314000   12.363000 C.ar      1 <1>         0.786700 
     20 C          16.428000    7.698000   11.686000 C.ar      1 <1>        -0.612200 
     21 C          16.369000    8.399000   10.468000 C.ar      1 <1>         0.159500 
     22 H          17.285000    8.696000    9.960000 H         1 <1>         0.069800 
     23 C          15.145000    8.730000    9.891000 C.ar      1 <1>        -0.048700 
     24 H          15.119000    9.272000    8.950000 H         1 <1>         0.079100 
     25 C          13.975000    8.359000   10.535000 C.ar      1 <1>        -0.254100 
     26 C          14.026000    7.662000   11.745000 C.ar      1 <1>        -0.217500 
     27 H          13.088000    7.376000   12.218000 H         1 <1>         0.118300 
     28 Cl         12.452000    8.754000    9.836000 Cl        1 <1>         0.078500 
     29 Cl         18.029000    7.399000   12.275000 Cl        1 <1>         0.081000 
     30 N           9.710000    1.173000   11.829000 N.pl3     1 <1>        -0.826700 
     31 H           9.827000    0.576000   11.024000 H         1 <1>         0.385500 
     32 H           8.861000    1.140000   12.374000 H         1 <1>         0.380000 
@<TRIPOS>BOND
     1    1    2 ar   
     2    2    3 ar   
     3    3    4 ar   
     4    4    5 ar   
     5    5    6 ar   
     6    6    1 ar   
     7    6    7 1    
     8    7    8 1    
     9    7    9 1    
    10    5   10 ar   
    11   10   11 ar   
    12   11   12 1    
    13   11   13 ar   
    14   13    4 ar   
    15   10   14 1    
    16   14   15 1    
    17   14   16 1    
    18   14   17 1    
    19   17   18 1    
    20   17   19 1    
    21   19   20 ar   
    22   20   21 ar   
    23   21   22 1    
    24   21   23 ar   
    25   23   24 1    
    26   23   25 ar   
    27   25   26 ar   
    28   26   27 1    
    29   26   19 ar   
    30   25   28 1    
    31   20   29 1    
    32    2   30 1    
    33   30   31 1    
    34   30   32 1    
@<TRIPOS>SUBSTRUCTURE
     1 ****        1 TEMP              0 ****  ****    0 ROOT 
@<TRIPOS>SET
UNITY_3DHIT     STATIC     ATOMS    <user>   **** Atoms matching 3D or FLEX Search
0
