#	Name:			38-16
#	Creating user name:	jeff
#	Creation time:		Thu Dec  4 18:13:46 2003

#	Modifying user name:	jeff
#	Modification time:	Thu Dec  4 18:13:46 2003

@<TRIPOS>MOLECULE
38-16
   36    38     1     0     1
SMALL
USER_CHARGES
****
From 3DB ct
@<TRIPOS>ATOM
      1 N          10.482000    2.772000   13.260000 N.ar      1 <1>        -0.714600 
      2 C          10.722000    2.006000   12.184000 C.ar      1 <1>         0.824600 
      3 N          11.827000    2.025000   11.442000 N.ar      1 <1>        -0.681600 
      4 C          12.719000    2.921000   11.878000 C.ar      1 <1>         0.587000 
      5 C          12.598000    3.776000   12.961000 C.ar      1 <1>        -0.662500 
      6 C          11.404000    3.669000   13.680000 C.ar      1 <1>         0.789300 
      7 N          11.094000    4.404000   14.794000 N.pl3     1 <1>        -0.758300 
      8 H          11.718000    5.079000   15.212000 H         1 <1>         0.333100 
      9 H          10.202000    4.243000   15.249000 H         1 <1>         0.327600 
     10 C          13.809000    4.542000   13.008000 C.ar      1 <1>         0.050300 
     11 C          14.578000    4.068000   11.961000 C.ar      1 <1>        -0.113800 
     12 H          15.567000    4.313000   11.595000 H         1 <1>         0.213300 
     13 O          13.924000    3.100000   11.272000 O.3       1 <1>        -0.160000 
     14 C          14.173000    5.605000   13.997000 C.3       1 <1>         0.142600 
     15 H          14.504000    5.090000   14.908000 H         1 <1>         0.040500 
     16 H          13.267000    6.171000   14.244000 H         1 <1>         0.057700 
     17 N          15.196000    6.559000   13.585000 N.pl3     1 <1>        -0.672100 
     18 H          16.041000    6.591000   14.152000 H         1 <1>         0.334000 
     19 C          15.219000    7.198000   12.361000 C.ar      1 <1>         0.345500 
     20 C          14.071000    7.538000   11.642000 C.ar      1 <1>        -0.200600 
     21 H          13.080000    7.280000   12.008000 H         1 <1>         0.145900 
     22 C          14.157000    8.218000   10.419000 C.ar      1 <1>        -0.219500 
     23 H          13.241000    8.461000    9.883000 H         1 <1>         0.143500 
     24 C          15.394000    8.584000    9.890000 C.ar      1 <1>         0.242800 
     25 C          16.547000    8.266000   10.601000 C.ar      1 <1>        -0.140800 
     26 H          17.538000    8.531000   10.242000 H         1 <1>         0.116600 
     27 C          16.454000    7.585000   11.823000 C.ar      1 <1>        -0.303600 
     28 H          17.376000    7.358000   12.359000 H         1 <1>         0.136700 
     29 O          15.339000    9.241000    8.693000 O.3       1 <1>        -0.297300 
     30 C          16.587000    9.598000    8.101000 C.3       1 <1>         0.033900 
     31 H          16.373000   10.105000    7.155000 H         1 <1>         0.063600 
     32 H          17.185000    8.709000    7.875000 H         1 <1>         0.029700 
     33 H          17.138000   10.298000    8.737000 H         1 <1>         0.030400 
     34 N           9.745000    1.128000   11.824000 N.pl3     1 <1>        -0.824900 
     35 H           9.878000    0.527000   11.025000 H         1 <1>         0.383200 
     36 H           8.894000    1.081000   12.365000 H         1 <1>         0.378100 
@<TRIPOS>BOND
     1    1    2 ar   
     2    2    3 ar   
     3    3    4 ar   
     4    4    5 ar   
     5    5    6 ar   
     6    6    1 ar   
     7    6    7 1    
     8    7    8 1    
     9    7    9 1    
    10    5   10 ar   
    11   10   11 ar   
    12   11   12 1    
    13   11   13 ar   
    14   13    4 ar   
    15   10   14 1    
    16   14   15 1    
    17   14   16 1    
    18   14   17 1    
    19   17   18 1    
    20   17   19 1    
    21   19   20 ar   
    22   20   21 1    
    23   20   22 ar   
    24   22   23 1    
    25   22   24 ar   
    26   24   25 ar   
    27   25   26 1    
    28   25   27 ar   
    29   27   28 1    
    30   27   19 ar   
    31   24   29 1    
    32   29   30 1    
    33   30   31 1    
    34   30   32 1    
    35   30   33 1    
    36    2   34 1    
    37   34   35 1    
    38   34   36 1    
@<TRIPOS>SUBSTRUCTURE
     1 ****        1 TEMP              0 ****  ****    0 ROOT 
@<TRIPOS>SET
UNITY_3DHIT     STATIC     ATOMS    <user>   **** Atoms matching 3D or FLEX Search
0
