#	Name:			38-14
#	Creating user name:	jeff
#	Creation time:		Thu Dec  4 18:13:46 2003

#	Modifying user name:	jeff
#	Modification time:	Thu Dec  4 18:13:46 2003

@<TRIPOS>MOLECULE
38-14
   35    37     1     0     1
SMALL
USER_CHARGES
****
From 3DB ct
@<TRIPOS>ATOM
      1 N          10.477000    2.769000   13.252000 N.ar      1 <1>        -0.726800 
      2 C          10.732000    1.988000   12.192000 C.ar      1 <1>         0.834100 
      3 N          11.835000    2.017000   11.448000 N.ar      1 <1>        -0.684200 
      4 C          12.717000    2.927000   11.877000 C.ar      1 <1>         0.592700 
      5 C          12.589000    3.786000   12.960000 C.ar      1 <1>        -0.726600 
      6 C          11.384000    3.684000   13.662000 C.ar      1 <1>         0.835600 
      7 N          11.041000    4.452000   14.745000 N.pl3     1 <1>        -0.804200 
      8 H          11.618000    5.189000   15.119000 H         1 <1>         0.345800 
      9 H          10.138000    4.300000   15.177000 H         1 <1>         0.340900 
     10 C          13.802000    4.548000   13.009000 C.ar      1 <1>         0.175900 
     11 C          14.553000    4.111000   11.933000 C.ar      1 <1>        -0.156400 
     12 H          15.524000    4.391000   11.548000 H         1 <1>         0.224600 
     13 O          13.912000    3.127000   11.257000 O.3       1 <1>        -0.152200 
     14 C          14.195000    5.619000   13.985000 C.3       1 <1>        -0.008200 
     15 H          14.518000    5.162000   14.927000 H         1 <1>         0.095300 
     16 H          13.270000    6.159000   14.211000 H         1 <1>         0.080300 
     17 N          15.280000    6.530000   13.563000 N.pl3     1 <1>        -0.437700 
     18 C          15.280000    7.209000   12.354000 C.ar      1 <1>         0.316400 
     19 C          16.464000    7.618000   11.715000 C.ar      1 <1>        -0.021200 
     20 H          17.434000    7.376000   12.141000 H         1 <1>         0.046200 
     21 C          16.454000    8.309000   10.491000 C.ar      1 <1>        -0.152000 
     22 C          15.245000    8.612000    9.868000 C.ar      1 <1>        -0.294200 
     23 C          14.057000    8.208000   10.469000 C.ar      1 <1>         0.187000 
     24 H          13.098000    8.426000   10.002000 H         1 <1>         0.053900 
     25 C          14.080000    7.516000   11.688000 C.ar      1 <1>        -0.315000 
     26 H          13.117000    7.239000   12.116000 H         1 <1>         0.121500 
     27 Cl         15.157000    9.468000    8.369000 Cl        1 <1>         0.056300 
     28 Cl         17.981000    8.752000    9.803000 Cl        1 <1>         0.061100 
     29 C          16.397000    6.687000   14.499000 C.3       1 <1>        -0.004200 
     30 H          16.652000    7.744000   14.637000 H         1 <1>         0.061600 
     31 H          17.278000    6.142000   14.142000 H         1 <1>         0.051800 
     32 H          16.145000    6.293000   15.489000 H         1 <1>         0.061800 
     33 N           9.772000    1.084000   11.848000 N.pl3     1 <1>        -0.827400 
     34 H           9.914000    0.475000   11.057000 H         1 <1>         0.386000 
     35 H           8.920000    1.038000   12.387000 H         1 <1>         0.381400 
@<TRIPOS>BOND
     1    1    2 ar   
     2    2    3 ar   
     3    3    4 ar   
     4    4    5 ar   
     5    5    6 ar   
     6    6    1 ar   
     7    6    7 1    
     8    7    8 1    
     9    7    9 1    
    10    5   10 ar   
    11   10   11 ar   
    12   11   12 1    
    13   11   13 ar   
    14   13    4 ar   
    15   10   14 1    
    16   14   15 1    
    17   14   16 1    
    18   14   17 1    
    19   17   18 1    
    20   18   19 ar   
    21   19   20 1    
    22   19   21 ar   
    23   21   22 ar   
    24   22   23 ar   
    25   23   24 1    
    26   23   25 ar   
    27   25   26 1    
    28   25   18 ar   
    29   22   27 1    
    30   21   28 1    
    31   17   29 1    
    32   29   30 1    
    33   29   31 1    
    34   29   32 1    
    35    2   33 1    
    36   33   34 1    
    37   33   35 1    
@<TRIPOS>SUBSTRUCTURE
     1 ****        1 TEMP              0 ****  ****    0 ROOT 
@<TRIPOS>SET
UNITY_3DHIT     STATIC     ATOMS    <user>   **** Atoms matching 3D or FLEX Search
0
