#	Name:			38-11
#	Creating user name:	jeff
#	Creation time:		Thu Dec  4 18:13:46 2003

#	Modifying user name:	jeff
#	Modification time:	Thu Dec  4 18:13:46 2003

@<TRIPOS>MOLECULE
38-11
   42    45     1     0     1
SMALL
USER_CHARGES
****
From 3DB ct
@<TRIPOS>ATOM
      1 N          10.482000    2.772000   13.258000 N.ar      1 <1>        -0.716900 
      2 C          10.727000    2.004000   12.185000 C.ar      1 <1>         0.825500 
      3 N          11.833000    2.024000   11.445000 N.ar      1 <1>        -0.684300 
      4 C          12.720000    2.925000   11.880000 C.ar      1 <1>         0.593500 
      5 C          12.594000    3.785000   12.961000 C.ar      1 <1>        -0.670100 
      6 C          11.399000    3.673000   13.678000 C.ar      1 <1>         0.795400 
      7 N          11.081000    4.407000   14.791000 N.pl3     1 <1>        -0.765500 
      8 H          11.702000    5.079000   15.217000 H         1 <1>         0.332200 
      9 H          10.185000    4.246000   15.238000 H         1 <1>         0.330600 
     10 C          13.801000    4.556000   13.003000 C.ar      1 <1>         0.034000 
     11 C          14.574000    4.080000   11.959000 C.ar      1 <1>        -0.110300 
     12 H          15.562000    4.330000   11.594000 H         1 <1>         0.213500 
     13 O          13.926000    3.106000   11.275000 O.3       1 <1>        -0.160900 
     14 C          14.175000    5.630000   13.976000 C.3       1 <1>         0.230100 
     15 H          14.483000    5.126000   14.901000 H         1 <1>         0.027500 
     16 H          13.285000    6.228000   14.201000 H         1 <1>         0.046500 
     17 N          15.222000    6.542000   13.544000 N.pl3     1 <1>        -0.766000 
     18 H          16.067000    6.558000   14.111000 H         1 <1>         0.351400 
     19 C          15.257000    7.201000   12.324000 C.ar      1 <1>         0.472900 
     20 C          14.081000    7.532000   11.630000 C.ar      1 <1>        -0.319800 
     21 H          13.104000    7.249000   12.016000 H         1 <1>         0.146000 
     22 C          14.112000    8.232000   10.420000 C.ar      1 <1>        -0.020700 
     23 H          13.182000    8.470000    9.907000 H         1 <1>         0.101400 
     24 C          15.327000    8.626000    9.875000 C.ar      1 <1>        -0.204600 
     25 H          15.355000    9.171000    8.934000 H         1 <1>         0.112100 
     26 C          16.510000    8.318000   10.542000 C.ar      1 <1>        -0.001000 
     27 H          17.458000    8.630000   10.103000 H         1 <1>         0.094400 
     28 C          16.497000    7.609000   11.762000 C.ar      1 <1>        -0.315900 
     29 C          17.789000    7.311000   12.407000 C.ar      1 <1>         0.248500 
     30 C          18.356000    6.028000   12.322000 C.ar      1 <1>        -0.234300 
     31 H          17.841000    5.239000   11.774000 H         1 <1>         0.130400 
     32 C          19.577000    5.744000   12.938000 C.ar      1 <1>        -0.060400 
     33 H          20.001000    4.744000   12.867000 H         1 <1>         0.098800 
     34 C          20.249000    6.738000   13.645000 C.ar      1 <1>        -0.143900 
     35 H          21.200000    6.516000   14.126000 H         1 <1>         0.108200 
     36 C          19.704000    8.018000   13.735000 C.ar      1 <1>        -0.067800 
     37 H          20.228000    8.796000   14.286000 H         1 <1>         0.100800 
     38 C          18.483000    8.303000   13.118000 C.ar      1 <1>        -0.217300 
     39 H          18.068000    9.307000   13.201000 H         1 <1>         0.129300 
     40 N           9.754000    1.121000   11.826000 N.pl3     1 <1>        -0.824900 
     41 H           9.889000    0.520000   11.027000 H         1 <1>         0.383600 
     42 H           8.902000    1.072000   12.366000 H         1 <1>         0.378000 
@<TRIPOS>BOND
     1    1    2 ar   
     2    2    3 ar   
     3    3    4 ar   
     4    4    5 ar   
     5    5    6 ar   
     6    6    1 ar   
     7    6    7 1    
     8    7    8 1    
     9    7    9 1    
    10    5   10 ar   
    11   10   11 ar   
    12   11   12 1    
    13   11   13 ar   
    14   13    4 ar   
    15   10   14 1    
    16   14   15 1    
    17   14   16 1    
    18   14   17 1    
    19   17   18 1    
    20   17   19 1    
    21   19   20 ar   
    22   20   21 1    
    23   20   22 ar   
    24   22   23 1    
    25   22   24 ar   
    26   24   25 1    
    27   24   26 ar   
    28   26   27 1    
    29   26   28 ar   
    30   28   19 ar   
    31   28   29 1    
    32   29   30 ar   
    33   30   31 1    
    34   30   32 ar   
    35   32   33 1    
    36   32   34 ar   
    37   34   35 1    
    38   34   36 ar   
    39   36   37 1    
    40   36   38 ar   
    41   38   39 1    
    42   38   29 ar   
    43    2   40 1    
    44   40   41 1    
    45   40   42 1    
@<TRIPOS>SUBSTRUCTURE
     1 ****        1 TEMP              0 ****  ****    0 ROOT 
@<TRIPOS>SET
UNITY_3DHIT     STATIC     ATOMS    <user>   **** Atoms matching 3D or FLEX Search
0
