#	Name:			38-3
#	Creating user name:	jeff
#	Creation time:		Thu Dec  4 18:13:46 2003

#	Modifying user name:	jeff
#	Modification time:	Thu Dec  4 18:13:47 2003

@<TRIPOS>MOLECULE
38-3
   31    33     1     0     1
SMALL
USER_CHARGES
****
From 3DB ct
@<TRIPOS>ATOM
      1 N          10.430000    2.704000   13.218000 N.ar      1 <1>        -0.737000 
      2 C          10.753000    1.916000   12.180000 C.ar      1 <1>         0.845100 
      3 N          11.875000    1.985000   11.466000 N.ar      1 <1>        -0.685200 
      4 C          12.696000    2.947000   11.899000 C.ar      1 <1>         0.576200 
      5 C          12.492000    3.822000   12.953000 C.ar      1 <1>        -0.737900 
      6 C          11.276000    3.675000   13.628000 C.ar      1 <1>         0.856600 
      7 N          10.875000    4.452000   14.684000 N.pl3     1 <1>        -0.817100 
      8 H          11.403000    5.251000   15.005000 H         1 <1>         0.350700 
      9 H           9.963000    4.287000   15.093000 H         1 <1>         0.341500 
     10 C          13.662000    4.647000   13.025000 C.ar      1 <1>         0.219300 
     11 C          14.479000    4.210000   12.000000 C.ar      1 <1>        -0.153700 
     12 H          15.460000    4.512000   11.651000 H         1 <1>         0.207200 
     13 O          13.904000    3.188000   11.318000 O.3       1 <1>        -0.142600 
     14 C          13.977000    5.733000   13.995000 C.3       1 <1>        -0.267200 
     15 H          13.847000    5.365000   15.018000 H         1 <1>         0.148700 
     16 H          13.290000    6.574000   13.857000 H         1 <1>         0.106300 
     17 S          15.701000    6.300000   13.774000 S.3       1 <1>        -0.067400 
     18 C          15.519000    7.227000   12.261000 C.ar      1 <1>        -0.048600 
     19 C          14.238000    7.443000   11.741000 C.ar      1 <1>        -0.083200 
     20 H          13.357000    7.064000   12.258000 H         1 <1>         0.105500 
     21 C          14.070000    8.154000   10.550000 C.ar      1 <1>        -0.140100 
     22 H          13.070000    8.321000   10.154000 H         1 <1>         0.111900 
     23 C          15.182000    8.645000    9.868000 C.ar      1 <1>        -0.044000 
     24 H          15.052000    9.197000    8.939000 H         1 <1>         0.097400 
     25 C          16.462000    8.423000   10.374000 C.ar      1 <1>        -0.182200 
     26 H          17.332000    8.800000    9.838000 H         1 <1>         0.122600 
     27 C          16.630000    7.713000   11.566000 C.ar      1 <1>        -0.004100 
     28 H          17.639000    7.539000   11.933000 H         1 <1>         0.091000 
     29 N           9.850000    0.958000   11.831000 N.pl3     1 <1>        -0.839000 
     30 H          10.053000    0.330000   11.067000 H         1 <1>         0.386100 
     31 H           8.995000    0.864000   12.359000 H         1 <1>         0.383500 
@<TRIPOS>BOND
     1    1    2 ar   
     2    2    3 ar   
     3    3    4 ar   
     4    4    5 ar   
     5    5    6 ar   
     6    6    1 ar   
     7    6    7 1    
     8    7    8 1    
     9    7    9 1    
    10    5   10 ar   
    11   10   11 ar   
    12   11   12 1    
    13   11   13 ar   
    14   13    4 ar   
    15   10   14 1    
    16   14   15 1    
    17   14   16 1    
    18   14   17 1    
    19   17   18 1    
    20   18   19 ar   
    21   19   20 1    
    22   19   21 ar   
    23   21   22 1    
    24   21   23 ar   
    25   23   24 1    
    26   23   25 ar   
    27   25   26 1    
    28   25   27 ar   
    29   27   28 1    
    30   27   18 ar   
    31    2   29 1    
    32   29   30 1    
    33   29   31 1    
@<TRIPOS>SUBSTRUCTURE
     1 ****        1 TEMP              0 ****  ****    0 ROOT 
@<TRIPOS>SET
UNITY_3DHIT     STATIC     ATOMS    <user>   **** Atoms matching 3D or FLEX Search
0
