#	Name:			38-6
#	Creating user name:	jeff
#	Creation time:		Thu Dec  4 18:13:47 2003

#	Modifying user name:	jeff
#	Modification time:	Thu Dec  4 18:13:47 2003

@<TRIPOS>MOLECULE
38-6
   38    41     1     0     1
SMALL
USER_CHARGES
****
From 3DB ct
@<TRIPOS>ATOM
      1 N          10.482000    2.771000   13.256000 N.ar      1 <1>        -0.714800 
      2 C          10.734000    1.978000   12.203000 C.ar      1 <1>         0.821300 
      3 N          11.840000    1.992000   11.460000 N.ar      1 <1>        -0.679400 
      4 C          12.716000    2.916000   11.868000 C.ar      1 <1>         0.584800 
      5 C          12.580000    3.800000   12.926000 C.ar      1 <1>        -0.666900 
      6 C          11.389000    3.693000   13.649000 C.ar      1 <1>         0.795400 
      7 N          11.069000    4.457000   14.742000 N.pl3     1 <1>        -0.764600 
      8 H          11.682000    5.154000   15.137000 H         1 <1>         0.334900 
      9 H          10.183000    4.292000   15.206000 H         1 <1>         0.328600 
     10 C          13.774000    4.593000   12.946000 C.ar      1 <1>         0.062700 
     11 C          14.548000    4.108000   11.909000 C.ar      1 <1>        -0.112400 
     12 H          15.528000    4.368000   11.528000 H         1 <1>         0.212600 
     13 O          13.916000    3.103000   11.254000 O.3       1 <1>        -0.159800 
     14 C          14.110000    5.700000   13.896000 C.3       1 <1>         0.114300 
     15 H          14.195000    5.258000   14.896000 H         1 <1>         0.043300 
     16 H          13.256000    6.388000   13.930000 H         1 <1>         0.075500 
     17 N          15.281000    6.515000   13.571000 N.pl3     1 <1>        -0.666200 
     18 H          15.977000    6.548000   14.140000 H         1 <1>         0.343900 
     19 C          15.336000    7.246000   12.384000 C.ar      1 <1>         0.355200 
     20 C          16.554000    7.666000   11.771000 C.ar      1 <1>        -0.145500 
     21 C          16.504000    8.311000   10.506000 C.ar      1 <1>         0.217400 
     22 C          15.268000    8.544000    9.888000 C.ar      1 <1>        -0.308500 
     23 H          15.218000    9.041000    8.919000 H         1 <1>         0.137100 
     24 C          14.082000    8.157000   10.502000 C.ar      1 <1>        -0.006000 
     25 H          13.127000    8.348000   10.015000 H         1 <1>         0.103400 
     26 C          14.119000    7.514000   11.736000 C.ar      1 <1>        -0.311300 
     27 H          13.179000    7.201000   12.188000 H         1 <1>         0.149100 
     28 C          17.690000    8.727000    9.877000 C.ar      1 <1>        -0.219600 
     29 H          17.657000    9.215000    8.904000 H         1 <1>         0.125300 
     30 C          18.930000    8.536000   10.484000 C.ar      1 <1>        -0.052400 
     31 H          19.839000    8.866000    9.983000 H         1 <1>         0.097600 
     32 C          19.000000    7.936000   11.734000 C.ar      1 <1>        -0.141400 
     33 H          19.963000    7.800000   12.222000 H         1 <1>         0.107200 
     34 C          17.829000    7.516000   12.370000 C.ar      1 <1>        -0.082400 
     35 H          17.920000    7.078000   13.363000 H         1 <1>         0.082700 
     36 N           9.768000    1.079000   11.865000 N.pl3     1 <1>        -0.820300 
     37 H           9.909000    0.463000   11.078000 H         1 <1>         0.381900 
     38 H           8.914000    1.040000   12.401000 H         1 <1>         0.377000 
@<TRIPOS>BOND
     1    1    2 ar   
     2    2    3 ar   
     3    3    4 ar   
     4    4    5 ar   
     5    5    6 ar   
     6    6    1 ar   
     7    6    7 1    
     8    7    8 1    
     9    7    9 1    
    10    5   10 ar   
    11   10   11 ar   
    12   11   12 1    
    13   11   13 ar   
    14   13    4 ar   
    15   10   14 1    
    16   14   15 1    
    17   14   16 1    
    18   14   17 1    
    19   17   18 1    
    20   17   19 1    
    21   19   20 ar   
    22   20   21 ar   
    23   21   22 ar   
    24   22   23 1    
    25   22   24 ar   
    26   24   25 1    
    27   24   26 ar   
    28   26   27 1    
    29   26   19 ar   
    30   21   28 ar   
    31   28   29 1    
    32   28   30 ar   
    33   30   31 1    
    34   30   32 ar   
    35   32   33 1    
    36   32   34 ar   
    37   34   35 1    
    38   34   20 ar   
    39    2   36 1    
    40   36   37 1    
    41   36   38 1    
@<TRIPOS>SUBSTRUCTURE
     1 ****        1 TEMP              0 ****  ****    0 ROOT 
@<TRIPOS>SET
UNITY_3DHIT     STATIC     ATOMS    <user>   **** Atoms matching 3D or FLEX Search
0
