#	Name:			38-8
#	Creating user name:	jeff
#	Creation time:		Thu Dec  4 18:13:47 2003

#	Modifying user name:	jeff
#	Modification time:	Thu Dec  4 18:13:47 2003

@<TRIPOS>MOLECULE
38-8
   37    40     1     0     1
SMALL
USER_CHARGES
****
From 3DB ct
@<TRIPOS>ATOM
      1 N          10.503000    2.792000   13.263000 N.ar      1 <1>        -0.706100 
      2 C          10.759000    1.994000   12.214000 C.ar      1 <1>         0.813600 
      3 N          11.861000    2.014000   11.467000 N.ar      1 <1>        -0.676400 
      4 C          12.735000    2.942000   11.872000 C.ar      1 <1>         0.585700 
      5 C          12.598000    3.824000   12.931000 C.ar      1 <1>        -0.643600 
      6 C          11.405000    3.721000   13.650000 C.ar      1 <1>         0.777600 
      7 N          11.079000    4.502000   14.729000 N.pl3     1 <1>        -0.758000 
      8 H          11.680000    5.225000   15.098000 H         1 <1>         0.334900 
      9 H          10.186000    4.351000   15.185000 H         1 <1>         0.326400 
     10 C          13.795000    4.611000   12.958000 C.ar      1 <1>        -0.006500 
     11 C          14.562000    4.141000   11.909000 C.ar      1 <1>        -0.074700 
     12 H          15.538000    4.411000   11.524000 H         1 <1>         0.211400 
     13 O          13.931000    3.137000   11.251000 O.3       1 <1>        -0.165500 
     14 C          14.138000    5.705000   13.915000 C.3       1 <1>         0.163800 
     15 H          14.323000    5.257000   14.900000 H         1 <1>         0.050900 
     16 H          13.287000    6.395000   13.971000 H         1 <1>         0.044200 
     17 O          15.306000    6.423000   13.492000 O.3       1 <1>        -0.374300 
     18 C          15.342000    7.171000   12.348000 C.ar      1 <1>         0.349800 
     19 C          16.490000    7.654000   11.716000 C.ar      1 <1>        -0.358000 
     20 H          17.479000    7.453000   12.120000 H         1 <1>         0.168400 
     21 C          16.396000    8.417000   10.536000 C.ar      1 <1>         0.167200 
     22 C          15.124000    8.696000    9.986000 C.ar      1 <1>         0.030100 
     23 C          13.979000    8.206000   10.629000 C.ar      1 <1>        -0.126700 
     24 H          12.988000    8.408000   10.225000 H         1 <1>         0.129700 
     25 C          14.091000    7.451000   11.798000 C.ar      1 <1>        -0.273500 
     26 H          13.188000    7.081000   12.281000 H         1 <1>         0.154200 
     27 C          15.033000    9.457000    8.809000 C.ar      1 <1>        -0.156400 
     28 H          14.061000    9.681000    8.370000 H         1 <1>         0.116700 
     29 C          16.183000    9.937000    8.180000 C.ar      1 <1>        -0.099700 
     30 H          16.098000   10.526000    7.268000 H         1 <1>         0.102000 
     31 C          17.436000    9.664000    8.720000 C.ar      1 <1>        -0.085000 
     32 H          18.334000   10.039000    8.231000 H         1 <1>         0.103800 
     33 C          17.543000    8.909000    9.890000 C.ar      1 <1>        -0.189500 
     34 H          18.534000    8.707000   10.294000 H         1 <1>         0.122600 
     35 N           9.801000    1.082000   11.887000 N.pl3     1 <1>        -0.816500 
     36 H           9.946000    0.459000   11.107000 H         1 <1>         0.381500 
     37 H           8.951000    1.036000   12.430000 H         1 <1>         0.375900 
@<TRIPOS>BOND
     1    1    2 ar   
     2    2    3 ar   
     3    3    4 ar   
     4    4    5 ar   
     5    5    6 ar   
     6    6    1 ar   
     7    6    7 1    
     8    7    8 1    
     9    7    9 1    
    10    5   10 ar   
    11   10   11 ar   
    12   11   12 1    
    13   11   13 ar   
    14   13    4 ar   
    15   10   14 1    
    16   14   15 1    
    17   14   16 1    
    18   14   17 1    
    19   17   18 1    
    20   18   19 ar   
    21   19   20 1    
    22   19   21 ar   
    23   21   22 ar   
    24   22   23 ar   
    25   23   24 1    
    26   23   25 ar   
    27   25   26 1    
    28   25   18 ar   
    29   22   27 ar   
    30   27   28 1    
    31   27   29 ar   
    32   29   30 1    
    33   29   31 ar   
    34   31   32 1    
    35   31   33 ar   
    36   33   34 1    
    37   33   21 ar   
    38    2   35 1    
    39   35   36 1    
    40   35   37 1    
@<TRIPOS>SUBSTRUCTURE
     1 ****        1 TEMP              0 ****  ****    0 ROOT 
@<TRIPOS>SET
UNITY_3DHIT     STATIC     ATOMS    <user>   **** Atoms matching 3D or FLEX Search
0
