#	Name:			38-9
#	Creating user name:	jeff
#	Creation time:		Thu Dec  4 18:13:47 2003

#	Modifying user name:	jeff
#	Modification time:	Thu Dec  4 18:13:47 2003

@<TRIPOS>MOLECULE
38-9
   43    46     1     0     1
SMALL
USER_CHARGES
****
From 3DB ct
@<TRIPOS>ATOM
      1 N          10.484000    2.771000   13.258000 N.ar      1 <1>        -0.719700 
      2 C          10.734000    1.991000   12.195000 C.ar      1 <1>         0.820100 
      3 N          11.837000    2.017000   11.450000 N.ar      1 <1>        -0.670900 
      4 C          12.720000    2.926000   11.877000 C.ar      1 <1>         0.560300 
      5 C          12.595000    3.784000   12.958000 C.ar      1 <1>        -0.670000 
      6 C          11.393000    3.686000   13.665000 C.ar      1 <1>         0.812700 
      7 N          11.053000    4.458000   14.746000 N.pl3     1 <1>        -0.782300 
      8 H          11.633000    5.198000   15.112000 H         1 <1>         0.340500 
      9 H          10.148000    4.310000   15.180000 H         1 <1>         0.332400 
     10 C          13.809000    4.547000   13.007000 C.ar      1 <1>         0.138500 
     11 C          14.556000    4.109000   11.928000 C.ar      1 <1>        -0.128400 
     12 H          15.527000    4.388000   11.538000 H         1 <1>         0.213200 
     13 O          13.912000    3.127000   11.252000 O.3       1 <1>        -0.152800 
     14 C          14.191000    5.612000   13.986000 C.3       1 <1>        -0.058500 
     15 H          14.535000    5.136000   14.911000 H         1 <1>         0.094500 
     16 H          13.277000    6.174000   14.219000 H         1 <1>         0.100800 
     17 N          15.230000    6.533000   13.551000 N.pl3     1 <1>        -0.546400 
     18 H          15.900000    6.842000   14.253000 H         1 <1>         0.331900 
     19 C          15.229000    7.225000   12.351000 C.ar      1 <1>         0.260200 
     20 C          14.058000    7.525000   11.644000 C.ar      1 <1>        -0.248700 
     21 H          13.082000    7.238000   12.028000 H         1 <1>         0.131600 
     22 C          14.100000    8.210000   10.423000 C.ar      1 <1>        -0.060100 
     23 H          13.172000    8.434000    9.898000 H         1 <1>         0.108500 
     24 C          15.318000    8.608000    9.879000 C.ar      1 <1>        -0.173500 
     25 H          15.346000    9.148000    8.934000 H         1 <1>         0.117800 
     26 C          16.500000    8.314000   10.552000 C.ar      1 <1>        -0.126600 
     27 H          17.451000    8.634000   10.133000 H         1 <1>         0.132300 
     28 C          16.453000    7.610000   11.763000 C.ar      1 <1>         0.088100 
     29 O          17.620000    7.344000   12.456000 O.3       1 <1>        -0.348800 
     30 C          18.576000    6.602000   11.799000 C.ar      1 <1>         0.317600 
     31 C          18.276000    5.446000   11.072000 C.ar      1 <1>        -0.268200 
     32 H          17.252000    5.093000   10.981000 H         1 <1>         0.131700 
     33 C          19.304000    4.725000   10.462000 C.ar      1 <1>        -0.039100 
     34 H          19.073000    3.827000    9.891000 H         1 <1>         0.103300 
     35 C          20.627000    5.149000   10.587000 C.ar      1 <1>        -0.160000 
     36 H          21.427000    4.586000   10.109000 H         1 <1>         0.109700 
     37 C          20.927000    6.290000   11.331000 C.ar      1 <1>        -0.057100 
     38 H          21.960000    6.616000   11.437000 H         1 <1>         0.104500 
     39 C          19.902000    7.013000   11.944000 C.ar      1 <1>        -0.211500 
     40 H          20.139000    7.900000   12.528000 H         1 <1>         0.134100 
     41 N           9.768000    1.095000   11.848000 N.pl3     1 <1>        -0.820300 
     42 H           9.908000    0.484000   11.057000 H         1 <1>         0.380800 
     43 H           8.918000    1.046000   12.390000 H         1 <1>         0.377800 
@<TRIPOS>BOND
     1    1    2 ar   
     2    2    3 ar   
     3    3    4 ar   
     4    4    5 ar   
     5    5    6 ar   
     6    6    1 ar   
     7    6    7 1    
     8    7    8 1    
     9    7    9 1    
    10    5   10 ar   
    11   10   11 ar   
    12   11   12 1    
    13   11   13 ar   
    14   13    4 ar   
    15   10   14 1    
    16   14   15 1    
    17   14   16 1    
    18   14   17 1    
    19   17   18 1    
    20   17   19 1    
    21   19   20 ar   
    22   20   21 1    
    23   20   22 ar   
    24   22   23 1    
    25   22   24 ar   
    26   24   25 1    
    27   24   26 ar   
    28   26   27 1    
    29   26   28 ar   
    30   28   19 ar   
    31   28   29 1    
    32   29   30 1    
    33   30   31 ar   
    34   31   32 1    
    35   31   33 ar   
    36   33   34 1    
    37   33   35 ar   
    38   35   36 1    
    39   35   37 ar   
    40   37   38 1    
    41   37   39 ar   
    42   39   40 1    
    43   39   30 ar   
    44    2   41 1    
    45   41   42 1    
    46   41   43 1    
@<TRIPOS>SUBSTRUCTURE
     1 ****        1 TEMP              0 ****  ****    0 ROOT 
@<TRIPOS>SET
UNITY_3DHIT     STATIC     ATOMS    <user>   **** Atoms matching 3D or FLEX Search
0
