#	Name:			40-3
#	Creating user name:	jeff
#	Creation time:		Thu Dec  4 18:13:47 2003

#	Modifying user name:	jeff
#	Modification time:	Thu Dec  4 18:13:47 2003

@<TRIPOS>MOLECULE
40-3
   38    40     1     0     1
SMALL
USER_CHARGES
****
From 3DB ct
@<TRIPOS>ATOM
      1 N          10.476000    2.820000   13.337000 N.ar      1 <1>        -0.708100 
      2 C          10.700000    2.013000   12.296000 C.ar      1 <1>         0.820600 
      3 N          11.788000    2.018000   11.536000 N.ar      1 <1>        -0.570300 
      4 C          12.695000    2.936000   11.905000 C.ar      1 <1>         0.200700 
      5 C          12.595000    3.830000   12.959000 C.ar      1 <1>        -0.500200 
      6 C          11.398000    3.739000   13.695000 C.ar      1 <1>         0.767700 
      7 N          11.078000    4.525000   14.773000 N.pl3     1 <1>        -0.778700 
      8 H          11.680000    5.253000   15.127000 H         1 <1>         0.339000 
      9 H          10.187000    4.381000   15.232000 H         1 <1>         0.333300 
     10 C          13.786000    4.663000   13.045000 C.ar      1 <1>         0.175400 
     11 C          14.698000    4.347000   12.044000 C.ar      1 <1>        -0.317600 
     12 S          14.147000    3.081000   11.038000 S.3       1 <1>         0.179900 
     13 C          16.010000    4.941000   11.756000 C.ar      1 <1>         0.186900 
     14 C          16.064000    6.172000   11.081000 C.ar      1 <1>        -0.283900 
     15 H          15.140000    6.670000   10.787000 H         1 <1>         0.164700 
     16 C          17.287000    6.772000   10.774000 C.ar      1 <1>         0.259800 
     17 C          18.467000    6.132000   11.143000 C.ar      1 <1>        -0.202600 
     18 H          19.444000    6.558000   10.927000 H         1 <1>         0.133700 
     19 C          18.428000    4.902000   11.813000 C.ar      1 <1>        -0.244800 
     20 H          19.379000    4.447000   12.077000 H         1 <1>         0.144000 
     21 C          17.207000    4.295000   12.124000 C.ar      1 <1>         0.212300 
     22 O          17.080000    3.095000   12.777000 O.3       1 <1>        -0.263200 
     23 C          18.280000    2.408000   13.125000 C.3       1 <1>         0.004600 
     24 H          17.996000    1.472000   13.616000 H         1 <1>         0.068100 
     25 H          18.874000    2.990000   13.836000 H         1 <1>         0.041600 
     26 H          18.860000    2.153000   12.232000 H         1 <1>         0.044600 
     27 O          17.192000    7.968000   10.118000 O.3       1 <1>        -0.291800 
     28 C          18.418000    8.621000    9.791000 C.3       1 <1>         0.066500 
     29 H          18.981000    8.876000   10.695000 H         1 <1>         0.023100 
     30 H          18.171000    9.556000    9.278000 H         1 <1>         0.054000 
     31 H          19.017000    8.012000    9.107000 H         1 <1>         0.028100 
     32 C          14.003000    5.725000   14.078000 C.3       1 <1>        -0.133100 
     33 H          13.247000    6.510000   13.977000 H         1 <1>         0.045100 
     34 H          14.985000    6.200000   13.989000 H         1 <1>         0.027300 
     35 H          13.941000    5.296000   15.083000 H         1 <1>         0.060100 
     36 N           9.728000    1.109000   11.991000 N.pl3     1 <1>        -0.859500 
     37 H           9.855000    0.478000   11.214000 H         1 <1>         0.384700 
     38 H           8.886000    1.075000   12.548000 H         1 <1>         0.387900 
@<TRIPOS>BOND
     1    1    2 ar   
     2    2    3 ar   
     3    3    4 ar   
     4    4    5 ar   
     5    5    6 ar   
     6    6    1 ar   
     7    6    7 1    
     8    7    8 1    
     9    7    9 1    
    10    5   10 ar   
    11   10   11 ar   
    12   11   12 ar   
    13   12    4 ar   
    14   11   13 1    
    15   13   14 ar   
    16   14   15 1    
    17   14   16 ar   
    18   16   17 ar   
    19   17   18 1    
    20   17   19 ar   
    21   19   20 1    
    22   19   21 ar   
    23   21   13 ar   
    24   21   22 1    
    25   22   23 1    
    26   23   24 1    
    27   23   25 1    
    28   23   26 1    
    29   16   27 1    
    30   27   28 1    
    31   28   29 1    
    32   28   30 1    
    33   28   31 1    
    34   10   32 1    
    35   32   33 1    
    36   32   34 1    
    37   32   35 1    
    38    2   36 1    
    39   36   37 1    
    40   36   38 1    
@<TRIPOS>SUBSTRUCTURE
     1 ****        1 TEMP              0 ****  ****    0 ROOT 
@<TRIPOS>SET
UNITY_3DHIT     STATIC     ATOMS    <user>   **** Atoms matching 3D or FLEX Search
0
