#	Name:			40-4
#	Creating user name:	jeff
#	Creation time:		Thu Dec  4 18:13:47 2003

#	Modifying user name:	jeff
#	Modification time:	Thu Dec  4 18:13:47 2003

@<TRIPOS>MOLECULE
40-4
   41    43     1     0     1
SMALL
USER_CHARGES
****
From 3DB ct
@<TRIPOS>ATOM
      1 N          10.261000    2.615000   13.058000 N.ar      1 <1>        -0.719800 
      2 C          10.843000    1.824000   12.152000 C.ar      1 <1>         0.844000 
      3 N          12.065000    1.984000   11.660000 N.ar      1 <1>        -0.571700 
      4 C          12.708000    3.051000   12.159000 C.ar      1 <1>         0.194600 
      5 C          12.228000    3.954000   13.092000 C.ar      1 <1>        -0.553800 
      6 C          10.923000    3.685000   13.550000 C.ar      1 <1>         0.790900 
      7 N          10.249000    4.431000   14.485000 N.pl3     1 <1>        -0.774000 
      8 H          10.650000    5.230000   14.950000 H         1 <1>         0.340100 
      9 H           9.315000    4.144000   14.752000 H         1 <1>         0.329800 
     10 C          13.219000    4.986000   13.370000 C.ar      1 <1>         0.230200 
     11 C          14.399000    4.768000   12.664000 C.ar      1 <1>        -0.257000 
     12 S          14.284000    3.400000   11.639000 S.3       1 <1>         0.174400 
     13 C          15.687000    5.564000   12.674000 C.3       1 <1>        -0.058500 
     14 H          16.478000    4.915000   12.281000 H         1 <1>         0.086700 
     15 H          15.995000    5.806000   13.700000 H         1 <1>         0.035900 
     16 C          15.604000    6.872000   11.901000 C.ar      1 <1>         0.110600 
     17 C          14.359000    7.521000   11.777000 C.ar      1 <1>        -0.347400 
     18 H          13.472000    7.081000   12.230000 H         1 <1>         0.177300 
     19 C          14.228000    8.725000   11.082000 C.ar      1 <1>         0.321600 
     20 C          15.357000    9.300000   10.511000 C.ar      1 <1>        -0.251700 
     21 H          15.311000   10.236000    9.959000 H         1 <1>         0.139700 
     22 C          16.607000    8.681000   10.641000 C.ar      1 <1>        -0.182000 
     23 H          17.458000    9.178000   10.181000 H         1 <1>         0.128000 
     24 C          16.744000    7.476000   11.336000 C.ar      1 <1>         0.156200 
     25 O          17.933000    6.820000   11.516000 O.3       1 <1>        -0.270100 
     26 C          19.107000    7.425000   10.977000 C.3       1 <1>         0.041300 
     27 H          19.955000    6.778000   11.222000 H         1 <1>         0.055500 
     28 H          19.291000    8.403000   11.434000 H         1 <1>         0.031100 
     29 H          19.047000    7.497000    9.886000 H         1 <1>         0.038700 
     30 O          12.957000    9.227000   11.037000 O.3       1 <1>        -0.298700 
     31 C          12.778000   10.457000   10.336000 C.3       1 <1>         0.053600 
     32 H          11.716000   10.716000   10.387000 H         1 <1>         0.059400 
     33 H          13.045000   10.351000    9.280000 H         1 <1>         0.028400 
     34 H          13.343000   11.265000   10.811000 H         1 <1>         0.025200 
     35 C          12.997000    6.129000   14.312000 C.3       1 <1>        -0.227300 
     36 H          13.802000    6.865000   14.268000 H         1 <1>         0.083300 
     37 H          12.928000    5.764000   15.342000 H         1 <1>         0.056400 
     38 H          12.073000    6.659000   14.058000 H         1 <1>         0.073400 
     39 N          10.119000    0.763000   11.698000 N.pl3     1 <1>        -0.876200 
     40 H          10.520000    0.138000   11.015000 H         1 <1>         0.388900 
     41 H           9.186000    0.608000   12.052000 H         1 <1>         0.393400 
@<TRIPOS>BOND
     1    1    2 ar   
     2    2    3 ar   
     3    3    4 ar   
     4    4    5 ar   
     5    5    6 ar   
     6    6    1 ar   
     7    6    7 1    
     8    7    8 1    
     9    7    9 1    
    10    5   10 ar   
    11   10   11 ar   
    12   11   12 ar   
    13   12    4 ar   
    14   11   13 1    
    15   13   14 1    
    16   13   15 1    
    17   13   16 1    
    18   16   17 ar   
    19   17   18 1    
    20   17   19 ar   
    21   19   20 ar   
    22   20   21 1    
    23   20   22 ar   
    24   22   23 1    
    25   22   24 ar   
    26   24   16 ar   
    27   24   25 1    
    28   25   26 1    
    29   26   27 1    
    30   26   28 1    
    31   26   29 1    
    32   19   30 1    
    33   30   31 1    
    34   31   32 1    
    35   31   33 1    
    36   31   34 1    
    37   10   35 1    
    38   35   36 1    
    39   35   37 1    
    40   35   38 1    
    41    2   39 1    
    42   39   40 1    
    43   39   41 1    
@<TRIPOS>SUBSTRUCTURE
     1 ****        1 TEMP              0 ****  ****    0 ROOT 
@<TRIPOS>SET
UNITY_3DHIT     STATIC     ATOMS    <user>   **** Atoms matching 3D or FLEX Search
0
