#	Name:			40-5
#	Creating user name:	jeff
#	Creation time:		Thu Dec  4 18:13:47 2003

#	Modifying user name:	jeff
#	Modification time:	Thu Dec  4 18:13:47 2003

@<TRIPOS>MOLECULE
40-5
   44    46     1     0     1
SMALL
USER_CHARGES
****
From 3DB ct
@<TRIPOS>ATOM
      1 N          10.354000    2.823000   13.194000 N.ar      1 <1>        -0.721900 
      2 C          10.665000    2.045000   12.154000 C.ar      1 <1>         0.840400 
      3 N          11.849000    1.993000   11.555000 N.ar      1 <1>        -0.583000 
      4 C          12.759000    2.818000   12.096000 C.ar      1 <1>         0.231400 
      5 C          12.576000    3.673000   13.169000 C.ar      1 <1>        -0.605500 
      6 C          11.282000    3.648000   13.726000 C.ar      1 <1>         0.810400 
      7 N          10.869000    4.412000   14.789000 N.pl3     1 <1>        -0.784600 
      8 H          11.467000    5.073000   15.262000 H         1 <1>         0.342400 
      9 H           9.913000    4.320000   15.111000 H         1 <1>         0.331100 
     10 C          13.802000    4.404000   13.463000 C.ar      1 <1>         0.288500 
     11 C          14.825000    4.058000   12.587000 C.ar      1 <1>        -0.292700 
     12 S          14.327000    2.880000   11.452000 S.3       1 <1>         0.173900 
     13 C          16.242000    4.572000   12.527000 C.3       1 <1>        -0.107500 
     14 H          16.615000    4.490000   11.498000 H         1 <1>         0.105600 
     15 H          16.902000    3.930000   13.126000 H         1 <1>         0.057400 
     16 C          16.335000    6.023000   13.009000 C.3       1 <1>         0.057200 
     17 H          15.727000    6.161000   13.914000 H         1 <1>         0.040100 
     18 H          17.361000    6.265000   13.319000 H         1 <1>         0.006400 
     19 C          15.881000    7.002000   11.947000 C.ar      1 <1>        -0.146200 
     20 C          14.504000    7.152000   11.704000 C.ar      1 <1>        -0.224800 
     21 H          13.786000    6.575000   12.286000 H         1 <1>         0.151400 
     22 C          14.033000    8.031000   10.726000 C.ar      1 <1>         0.262100 
     23 C          14.949000    8.765000    9.978000 C.ar      1 <1>        -0.178000 
     24 H          14.635000    9.462000    9.206000 H         1 <1>         0.125600 
     25 C          16.325000    8.620000   10.204000 C.ar      1 <1>        -0.265100 
     26 H          16.997000    9.215000    9.591000 H         1 <1>         0.140100 
     27 C          16.800000    7.741000   11.181000 C.ar      1 <1>         0.316400 
     28 O          18.124000    7.532000   11.466000 O.3       1 <1>        -0.258100 
     29 C          19.081000    8.248000   10.689000 C.3       1 <1>        -0.026600 
     30 H          20.077000    7.952000   11.034000 H         1 <1>         0.072400 
     31 H          18.983000    9.328000   10.842000 H         1 <1>         0.042600 
     32 H          19.004000    7.987000    9.629000 H         1 <1>         0.053800 
     33 O          12.672000    8.077000   10.601000 O.3       1 <1>        -0.304900 
     34 C          12.149000    8.934000    9.588000 C.3       1 <1>         0.074300 
     35 H          11.058000    8.857000    9.618000 H         1 <1>         0.052600 
     36 H          12.479000    8.616000    8.594000 H         1 <1>         0.026000 
     37 H          12.415000    9.979000    9.780000 H         1 <1>         0.020600 
     38 C          13.940000    5.401000   14.573000 C.3       1 <1>        -0.248200 
     39 H          14.952000    5.807000   14.646000 H         1 <1>         0.073700 
     40 H          13.710000    4.932000   15.535000 H         1 <1>         0.076000 
     41 H          13.258000    6.242000   14.414000 H         1 <1>         0.066000 
     42 N           9.682000    1.236000   11.668000 N.pl3     1 <1>        -0.868100 
     43 H           9.872000    0.632000   10.883000 H         1 <1>         0.386400 
     44 H           8.769000    1.250000   12.098000 H         1 <1>         0.390600 
@<TRIPOS>BOND
     1    1    2 ar   
     2    2    3 ar   
     3    3    4 ar   
     4    4    5 ar   
     5    5    6 ar   
     6    6    1 ar   
     7    6    7 1    
     8    7    8 1    
     9    7    9 1    
    10    5   10 ar   
    11   10   11 ar   
    12   11   12 ar   
    13   12    4 ar   
    14   11   13 1    
    15   13   14 1    
    16   13   15 1    
    17   13   16 1    
    18   16   17 1    
    19   16   18 1    
    20   16   19 1    
    21   19   20 ar   
    22   20   21 1    
    23   20   22 ar   
    24   22   23 ar   
    25   23   24 1    
    26   23   25 ar   
    27   25   26 1    
    28   25   27 ar   
    29   27   19 ar   
    30   27   28 1    
    31   28   29 1    
    32   29   30 1    
    33   29   31 1    
    34   29   32 1    
    35   22   33 1    
    36   33   34 1    
    37   34   35 1    
    38   34   36 1    
    39   34   37 1    
    40   10   38 1    
    41   38   39 1    
    42   38   40 1    
    43   38   41 1    
    44    2   42 1    
    45   42   43 1    
    46   42   44 1    
@<TRIPOS>SUBSTRUCTURE
     1 ****        1 TEMP              0 ****  ****    0 ROOT 
@<TRIPOS>SET
UNITY_3DHIT     STATIC     ATOMS    <user>   **** Atoms matching 3D or FLEX Search
0
