#	Name:			40-6
#	Creating user name:	jeff
#	Creation time:		Thu Dec  4 18:13:47 2003

#	Modifying user name:	jeff
#	Modification time:	Thu Dec  4 18:13:47 2003

@<TRIPOS>MOLECULE
40-6
   42    44     1     0     1
SMALL
USER_CHARGES
****
From 3DB ct
@<TRIPOS>ATOM
      1 N          10.553000    2.822000   13.287000 N.ar      1 <1>        -0.707500 
      2 C          10.756000    2.005000   12.250000 C.ar      1 <1>         0.826400 
      3 N          11.835000    1.992000   11.478000 N.ar      1 <1>        -0.573200 
      4 C          12.758000    2.900000   11.831000 C.ar      1 <1>         0.209500 
      5 C          12.681000    3.803000   12.878000 C.ar      1 <1>        -0.522400 
      6 C          11.490000    3.732000   13.628000 C.ar      1 <1>         0.773000 
      7 N          11.191000    4.532000   14.702000 N.pl3     1 <1>        -0.777400 
      8 H          11.803000    5.259000   15.041000 H         1 <1>         0.339400 
      9 H          10.302000    4.404000   15.170000 H         1 <1>         0.333900 
     10 C          13.884000    4.622000   12.945000 C.ar      1 <1>         0.193700 
     11 C          14.780000    4.288000   11.936000 C.ar      1 <1>        -0.319500 
     12 S          14.201000    3.021000   10.946000 S.3       1 <1>         0.178300 
     13 C          16.088000    4.868000   11.623000 C.ar      1 <1>         0.253900 
     14 C          16.163000    6.139000   11.030000 C.ar      1 <1>        -0.376500 
     15 H          15.234000    6.661000   10.814000 H         1 <1>         0.154300 
     16 C          17.402000    6.709000   10.732000 C.ar      1 <1>         0.395800 
     17 C          18.569000    5.979000   11.019000 C.ar      1 <1>        -0.236700 
     18 C          18.514000    4.717000   11.637000 C.ar      1 <1>         0.360100 
     19 C          17.265000    4.166000   11.930000 C.ar      1 <1>        -0.325600 
     20 H          17.175000    3.192000   12.404000 H         1 <1>         0.145500 
     21 O          19.720000    4.123000   11.907000 O.3       1 <1>        -0.228700 
     22 C          19.690000    2.845000   12.539000 C.3       1 <1>        -0.039200 
     23 H          20.725000    2.521000   12.682000 H         1 <1>         0.079000 
     24 H          19.192000    2.104000   11.905000 H         1 <1>         0.055900 
     25 H          19.219000    2.905000   13.526000 H         1 <1>         0.048500 
     26 O          19.799000    6.546000   10.755000 O.3       1 <1>        -0.214500 
     27 C          20.227000    6.181000    9.438000 C.3       1 <1>        -0.025000 
     28 H          21.203000    6.643000    9.266000 H         1 <1>         0.071500 
     29 H          19.534000    6.557000    8.677000 H         1 <1>         0.047600 
     30 H          20.343000    5.096000    9.343000 H         1 <1>         0.050600 
     31 O          17.585000    7.946000   10.169000 O.3       1 <1>        -0.233900 
     32 C          16.417000    8.719000    9.902000 C.3       1 <1>        -0.049800 
     33 H          16.741000    9.674000    9.477000 H         1 <1>         0.082800 
     34 H          15.867000    8.934000   10.824000 H         1 <1>         0.052300 
     35 H          15.779000    8.224000    9.163000 H         1 <1>         0.054000 
     36 C          14.125000    5.684000   13.973000 C.3       1 <1>        -0.128400 
     37 H          15.117000    6.135000   13.882000 H         1 <1>         0.030900 
     38 H          14.057000    5.260000   14.980000 H         1 <1>         0.060600 
     39 H          13.386000    6.484000   13.872000 H         1 <1>         0.042300 
     40 N           9.769000    1.111000   11.962000 N.pl3     1 <1>        -0.855400 
     41 H           9.879000    0.475000   11.186000 H         1 <1>         0.385800 
     42 H           8.932000    1.093000   12.526000 H         1 <1>         0.388000 
@<TRIPOS>BOND
     1    1    2 ar   
     2    2    3 ar   
     3    3    4 ar   
     4    4    5 ar   
     5    5    6 ar   
     6    6    1 ar   
     7    6    7 1    
     8    7    8 1    
     9    7    9 1    
    10    5   10 ar   
    11   10   11 ar   
    12   11   12 ar   
    13   12    4 ar   
    14   11   13 1    
    15   13   14 ar   
    16   14   15 1    
    17   14   16 ar   
    18   16   17 ar   
    19   17   18 ar   
    20   18   19 ar   
    21   19   20 1    
    22   19   13 ar   
    23   18   21 1    
    24   21   22 1    
    25   22   23 1    
    26   22   24 1    
    27   22   25 1    
    28   17   26 1    
    29   26   27 1    
    30   27   28 1    
    31   27   29 1    
    32   27   30 1    
    33   16   31 1    
    34   31   32 1    
    35   32   33 1    
    36   32   34 1    
    37   32   35 1    
    38   10   36 1    
    39   36   37 1    
    40   36   38 1    
    41   36   39 1    
    42    2   40 1    
    43   40   41 1    
    44   40   42 1    
@<TRIPOS>SUBSTRUCTURE
     1 ****        1 TEMP              0 ****  ****    0 ROOT 
@<TRIPOS>SET
UNITY_3DHIT     STATIC     ATOMS    <user>   **** Atoms matching 3D or FLEX Search
0
