#	Name:			40-7
#	Creating user name:	jeff
#	Creation time:		Thu Dec  4 18:13:47 2003

#	Modifying user name:	jeff
#	Modification time:	Thu Dec  4 18:13:47 2003

@<TRIPOS>MOLECULE
40-7
   45    47     1     0     1
SMALL
USER_CHARGES
****
From 3DB ct
@<TRIPOS>ATOM
      1 N          10.234000    2.636000   13.023000 N.ar      1 <1>        -0.718900 
      2 C          10.826000    1.848000   12.122000 C.ar      1 <1>         0.838600 
      3 N          12.059000    1.998000   11.657000 N.ar      1 <1>        -0.569700 
      4 C          12.702000    3.056000   12.176000 C.ar      1 <1>         0.202400 
      5 C          12.211000    3.957000   13.104000 C.ar      1 <1>        -0.559200 
      6 C          10.896000    3.695000   13.538000 C.ar      1 <1>         0.799000 
      7 N          10.213000    4.436000   14.469000 N.pl3     1 <1>        -0.782900 
      8 H          10.617000    5.222000   14.957000 H         1 <1>         0.343600 
      9 H           9.275000    4.150000   14.723000 H         1 <1>         0.332900 
     10 C          13.202000    4.982000   13.405000 C.ar      1 <1>         0.229000 
     11 C          14.396000    4.756000   12.724000 C.ar      1 <1>        -0.248800 
     12 S          14.293000    3.391000   11.695000 S.3       1 <1>         0.166800 
     13 C          15.688000    5.540000   12.768000 C.3       1 <1>        -0.078200 
     14 H          16.501000    4.891000   12.421000 H         1 <1>         0.070800 
     15 H          15.955000    5.812000   13.798000 H         1 <1>         0.061400 
     16 C          15.645000    6.813000   11.944000 C.ar      1 <1>         0.111600 
     17 C          16.815000    7.320000   11.344000 C.ar      1 <1>        -0.358000 
     18 H          17.741000    6.766000   11.481000 H         1 <1>         0.206000 
     19 C          16.790000    8.502000   10.595000 C.ar      1 <1>         0.237500 
     20 C          15.572000    9.181000   10.443000 C.ar      1 <1>         0.010600 
     21 C          14.396000    8.655000   10.988000 C.ar      1 <1>         0.144000 
     22 C          14.432000    7.491000   11.754000 C.ar      1 <1>        -0.198000 
     23 H          13.513000    7.114000   12.199000 H         1 <1>         0.141900 
     24 O          13.199000    9.307000   10.841000 O.3       1 <1>        -0.271900 
     25 C          13.295000   10.268000    9.784000 C.3       1 <1>         0.075800 
     26 H          12.331000   10.780000    9.709000 H         1 <1>         0.035600 
     27 H          13.495000    9.779000    8.824000 H         1 <1>         0.041900 
     28 H          14.063000   11.020000    9.997000 H         1 <1>         0.034300 
     29 O          15.520000   10.335000    9.695000 O.3       1 <1>        -0.225500 
     30 C          16.722000   10.468000    8.929000 C.3       1 <1>        -0.005300 
     31 H          16.630000   11.373000    8.320000 H         1 <1>         0.051100 
     32 H          16.860000    9.617000    8.253000 H         1 <1>         0.043800 
     33 H          17.595000   10.583000    9.580000 H         1 <1>         0.054400 
     34 O          17.878000    9.070000    9.984000 O.3       1 <1>        -0.257700 
     35 C          19.142000    8.445000   10.196000 C.3       1 <1>         0.000800 
     36 H          19.896000    9.027000    9.657000 H         1 <1>         0.072400 
     37 H          19.152000    7.429000    9.788000 H         1 <1>         0.029400 
     38 H          19.412000    8.452000   11.257000 H         1 <1>         0.043500 
     39 C          12.966000    6.127000   14.341000 C.3       1 <1>        -0.228300 
     40 H          13.770000    6.866000   14.305000 H         1 <1>         0.073000 
     41 H          12.884000    5.764000   15.370000 H         1 <1>         0.056700 
     42 H          12.044000    6.655000   14.073000 H         1 <1>         0.082800 
     43 N          10.098000    0.801000   11.642000 N.pl3     1 <1>        -0.869500 
     44 H          10.502000    0.182000   10.955000 H         1 <1>         0.387700 
     45 H           9.154000    0.660000   11.970000 H         1 <1>         0.392600 
@<TRIPOS>BOND
     1    1    2 ar   
     2    2    3 ar   
     3    3    4 ar   
     4    4    5 ar   
     5    5    6 ar   
     6    6    1 ar   
     7    6    7 1    
     8    7    8 1    
     9    7    9 1    
    10    5   10 ar   
    11   10   11 ar   
    12   11   12 ar   
    13   12    4 ar   
    14   11   13 1    
    15   13   14 1    
    16   13   15 1    
    17   13   16 1    
    18   16   17 ar   
    19   17   18 1    
    20   17   19 ar   
    21   19   20 ar   
    22   20   21 ar   
    23   21   22 ar   
    24   22   23 1    
    25   22   16 ar   
    26   21   24 1    
    27   24   25 1    
    28   25   26 1    
    29   25   27 1    
    30   25   28 1    
    31   20   29 1    
    32   29   30 1    
    33   30   31 1    
    34   30   32 1    
    35   30   33 1    
    36   19   34 1    
    37   34   35 1    
    38   35   36 1    
    39   35   37 1    
    40   35   38 1    
    41   10   39 1    
    42   39   40 1    
    43   39   41 1    
    44   39   42 1    
    45    2   43 1    
    46   43   44 1    
    47   43   45 1    
@<TRIPOS>SUBSTRUCTURE
     1 ****        1 TEMP              0 ****  ****    0 ROOT 
@<TRIPOS>SET
UNITY_3DHIT     STATIC     ATOMS    <user>   **** Atoms matching 3D or FLEX Search
0
