#	Name:			40-8
#	Creating user name:	jeff
#	Creation time:		Thu Dec  4 18:13:47 2003

#	Modifying user name:	jeff
#	Modification time:	Thu Dec  4 18:13:48 2003

@<TRIPOS>MOLECULE
40-8
   48    50     1     0     1
SMALL
USER_CHARGES
****
From 3DB ct
@<TRIPOS>ATOM
      1 N          10.338000    2.806000   13.193000 N.ar      1 <1>        -0.720300 
      2 C          10.653000    2.029000   12.153000 C.ar      1 <1>         0.844500 
      3 N          11.836000    1.985000   11.554000 N.ar      1 <1>        -0.591600 
      4 C          12.742000    2.814000   12.095000 C.ar      1 <1>         0.248900 
      5 C          12.556000    3.666000   13.169000 C.ar      1 <1>        -0.615900 
      6 C          11.261000    3.636000   13.725000 C.ar      1 <1>         0.807900 
      7 N          10.844000    4.400000   14.787000 N.pl3     1 <1>        -0.781600 
      8 H          11.437000    5.068000   15.256000 H         1 <1>         0.342000 
      9 H           9.888000    4.305000   15.107000 H         1 <1>         0.331200 
     10 C          13.779000    4.399000   13.467000 C.ar      1 <1>         0.320300 
     11 C          14.804000    4.059000   12.591000 C.ar      1 <1>        -0.374400 
     12 S          14.310000    2.884000   11.450000 S.3       1 <1>         0.183000 
     13 C          16.219000    4.575000   12.537000 C.3       1 <1>         0.053400 
     14 H          16.592000    4.513000   11.507000 H         1 <1>         0.062800 
     15 H          16.881000    3.925000   13.125000 H         1 <1>         0.020400 
     16 C          16.312000    6.016000   13.050000 C.3       1 <1>        -0.030600 
     17 H          15.664000    6.153000   13.926000 H         1 <1>         0.042000 
     18 H          17.329000    6.234000   13.401000 H         1 <1>         0.011900 
     19 C          15.934000    7.017000   11.983000 C.ar      1 <1>         0.093400 
     20 C          14.588000    7.222000   11.653000 C.ar      1 <1>        -0.369500 
     21 H          13.804000    6.676000   12.174000 H         1 <1>         0.172300 
     22 C          14.250000    8.129000   10.650000 C.ar      1 <1>         0.372600 
     23 C          15.244000    8.869000   10.000000 C.ar      1 <1>        -0.146300 
     24 C          16.598000    8.655000   10.298000 C.ar      1 <1>         0.274400 
     25 C          16.932000    7.731000   11.294000 C.ar      1 <1>        -0.269300 
     26 H          17.970000    7.542000   11.562000 H         1 <1>         0.133100 
     27 O          17.500000    9.390000    9.572000 O.3       1 <1>        -0.223600 
     28 C          18.883000    9.190000    9.857000 C.3       1 <1>        -0.006800 
     29 H          19.457000    9.835000    9.184000 H         1 <1>         0.068600 
     30 H          19.180000    8.155000    9.661000 H         1 <1>         0.047300 
     31 H          19.119000    9.486000   10.884000 H         1 <1>         0.039200 
     32 O          14.888000    9.753000    9.008000 O.3       1 <1>        -0.250100 
     33 C          16.056000   10.412000    8.506000 C.3       1 <1>         0.037300 
     34 H          15.736000   11.103000    7.720000 H         1 <1>         0.059300 
     35 H          16.756000    9.696000    8.063000 H         1 <1>         0.030800 
     36 H          16.550000   10.995000    9.290000 H         1 <1>         0.034300 
     37 O          12.927000    8.339000   10.359000 O.3       1 <1>        -0.317700 
     38 C          12.808000    9.269000    9.276000 C.3       1 <1>         0.098300 
     39 H          11.742000    9.445000    9.105000 H         1 <1>         0.029000 
     40 H          13.238000    8.860000    8.355000 H         1 <1>         0.023800 
     41 H          13.277000   10.228000    9.524000 H         1 <1>         0.038100 
     42 C          13.914000    5.392000   14.581000 C.3       1 <1>        -0.255900 
     43 H          14.927000    5.795000   14.661000 H         1 <1>         0.076800 
     44 H          13.677000    4.921000   15.540000 H         1 <1>         0.077300 
     45 H          13.235000    6.236000   14.420000 H         1 <1>         0.067300 
     46 N           9.675000    1.214000   11.669000 N.pl3     1 <1>        -0.865100 
     47 H           9.869000    0.608000   10.886000 H         1 <1>         0.387100 
     48 H           8.764000    1.217000   12.103000 H         1 <1>         0.390300 
@<TRIPOS>BOND
     1    1    2 ar   
     2    2    3 ar   
     3    3    4 ar   
     4    4    5 ar   
     5    5    6 ar   
     6    6    1 ar   
     7    6    7 1    
     8    7    8 1    
     9    7    9 1    
    10    5   10 ar   
    11   10   11 ar   
    12   11   12 ar   
    13   12    4 ar   
    14   11   13 1    
    15   13   14 1    
    16   13   15 1    
    17   13   16 1    
    18   16   17 1    
    19   16   18 1    
    20   16   19 1    
    21   19   20 ar   
    22   20   21 1    
    23   20   22 ar   
    24   22   23 ar   
    25   23   24 ar   
    26   24   25 ar   
    27   25   26 1    
    28   25   19 ar   
    29   24   27 1    
    30   27   28 1    
    31   28   29 1    
    32   28   30 1    
    33   28   31 1    
    34   23   32 1    
    35   32   33 1    
    36   33   34 1    
    37   33   35 1    
    38   33   36 1    
    39   22   37 1    
    40   37   38 1    
    41   38   39 1    
    42   38   40 1    
    43   38   41 1    
    44   10   42 1    
    45   42   43 1    
    46   42   44 1    
    47   42   45 1    
    48    2   46 1    
    49   46   47 1    
    50   46   48 1    
@<TRIPOS>SUBSTRUCTURE
     1 ****        1 TEMP              0 ****  ****    0 ROOT 
@<TRIPOS>SET
UNITY_3DHIT     STATIC     ATOMS    <user>   **** Atoms matching 3D or FLEX Search
0
