#	Name:			40-9
#	Creating user name:	jeff
#	Creation time:		Thu Dec  4 18:13:48 2003

#	Modifying user name:	jeff
#	Modification time:	Thu Dec  4 18:13:48 2003

@<TRIPOS>MOLECULE
40-9
   41    43     1     0     1
SMALL
USER_CHARGES
****
From 3DB ct
@<TRIPOS>ATOM
      1 N          10.463000    2.788000   13.278000 N.ar      1 <1>        -0.713100 
      2 C          10.684000    1.948000   12.263000 C.ar      1 <1>         0.824800 
      3 N          11.767000    1.932000   11.497000 N.ar      1 <1>        -0.578500 
      4 C          12.672000    2.865000   11.830000 C.ar      1 <1>         0.222300 
      5 C          12.576000    3.796000   12.852000 C.ar      1 <1>        -0.531600 
      6 C          11.384000    3.723000   13.600000 C.ar      1 <1>         0.787700 
      7 N          11.066000    4.538000   14.657000 N.pl3     1 <1>        -0.797100 
      8 H          11.668000    5.274000   14.995000 H         1 <1>         0.335000 
      9 H          10.178000    4.399000   15.126000 H         1 <1>         0.338000 
     10 C          13.766000    4.643000   12.900000 C.ar      1 <1>         0.161900 
     11 C          14.664000    4.281000   11.909000 C.ar      1 <1>        -0.367500 
     12 H          15.630000    4.718000   11.692000 H         1 <1>         0.233600 
     13 S          14.121000    2.982000   10.949000 S.3       1 <1>         0.161700 
     14 C          13.975000    5.757000   13.903000 C.3       1 <1>        -0.075300 
     15 H          13.965000    5.314000   14.907000 H         1 <1>         0.053300 
     16 H          13.114000    6.435000   13.841000 H         1 <1>         0.054800 
     17 C          15.258000    6.577000   13.731000 C.3       1 <1>        -0.039700 
     18 H          15.345000    7.337000   14.519000 H         1 <1>         0.041000 
     19 H          16.138000    5.931000   13.851000 H         1 <1>         0.029000 
     20 C          15.320000    7.252000   12.375000 C.ar      1 <1>        -0.032200 
     21 C          14.120000    7.527000   11.696000 C.ar      1 <1>        -0.251300 
     22 H          13.168000    7.245000   12.145000 H         1 <1>         0.145800 
     23 C          14.120000    8.159000   10.451000 C.ar      1 <1>         0.275500 
     24 C          15.335000    8.525000    9.879000 C.ar      1 <1>        -0.222300 
     25 H          15.390000    9.018000    8.912000 H         1 <1>         0.133200 
     26 C          16.539000    8.263000   10.546000 C.ar      1 <1>        -0.187100 
     27 H          17.459000    8.571000   10.056000 H         1 <1>         0.127400 
     28 C          16.543000    7.632000   11.793000 C.ar      1 <1>         0.180000 
     29 O          17.668000    7.342000   12.518000 O.3       1 <1>        -0.263300 
     30 C          18.925000    7.691000   11.941000 C.3       1 <1>         0.032800 
     31 H          19.707000    7.409000   12.654000 H         1 <1>         0.060200 
     32 H          18.998000    8.771000   11.778000 H         1 <1>         0.036200 
     33 H          19.101000    7.134000   11.015000 H         1 <1>         0.036500 
     34 O          12.882000    8.360000    9.907000 O.3       1 <1>        -0.296800 
     35 C          12.837000    8.976000    8.621000 C.3       1 <1>         0.054400 
     36 H          11.786000    9.063000    8.329000 H         1 <1>         0.057700 
     37 H          13.342000    8.358000    7.871000 H         1 <1>         0.027700 
     38 H          13.259000    9.986000    8.654000 H         1 <1>         0.030600 
     39 N           9.713000    1.032000   11.994000 N.pl3     1 <1>        -0.857500 
     40 H           9.837000    0.377000   11.237000 H         1 <1>         0.385200 
     41 H           8.875000    1.014000   12.556000 H         1 <1>         0.387200 
@<TRIPOS>BOND
     1    1    2 ar   
     2    2    3 ar   
     3    3    4 ar   
     4    4    5 ar   
     5    5    6 ar   
     6    6    1 ar   
     7    6    7 1    
     8    7    8 1    
     9    7    9 1    
    10    5   10 ar   
    11   10   11 ar   
    12   11   12 1    
    13   11   13 ar   
    14   13    4 ar   
    15   10   14 1    
    16   14   15 1    
    17   14   16 1    
    18   14   17 1    
    19   17   18 1    
    20   17   19 1    
    21   17   20 1    
    22   20   21 ar   
    23   21   22 1    
    24   21   23 ar   
    25   23   24 ar   
    26   24   25 1    
    27   24   26 ar   
    28   26   27 1    
    29   26   28 ar   
    30   28   20 ar   
    31   28   29 1    
    32   29   30 1    
    33   30   31 1    
    34   30   32 1    
    35   30   33 1    
    36   23   34 1    
    37   34   35 1    
    38   35   36 1    
    39   35   37 1    
    40   35   38 1    
    41    2   39 1    
    42   39   40 1    
    43   39   41 1    
@<TRIPOS>SUBSTRUCTURE
     1 ****        1 TEMP              0 ****  ****    0 ROOT 
@<TRIPOS>SET
UNITY_3DHIT     STATIC     ATOMS    <user>   **** Atoms matching 3D or FLEX Search
0
