#	Name:			40-table-2-4
#	Creating user name:	jeff
#	Creation time:		Thu Dec  4 18:13:48 2003

#	Modifying user name:	jeff
#	Modification time:	Thu Dec  4 18:13:48 2003

@<TRIPOS>MOLECULE
40-table-2-4
   30    32     1     0     1
SMALL
USER_CHARGES
****
From 3DB ct
@<TRIPOS>ATOM
      1 N          10.667000    2.785000   13.425000 N.ar      1 <1>        -0.685900 
      2 C          10.762000    1.978000   12.363000 C.ar      1 <1>         0.781600 
      3 N          11.732000    2.004000   11.457000 N.ar      1 <1>        -0.552700 
      4 C          12.659000    2.945000   11.692000 C.ar      1 <1>         0.200200 
      5 C          12.683000    3.842000   12.745000 C.ar      1 <1>        -0.382500 
      6 C          11.609000    3.727000   13.646000 C.ar      1 <1>         0.743300 
      7 N          11.437000    4.514000   14.758000 N.pl3     1 <1>        -0.805900 
      8 H          12.088000    5.246000   15.009000 H         1 <1>         0.357000 
      9 H          10.632000    4.360000   15.351000 H         1 <1>         0.347900 
     10 C          13.845000    4.699000   12.651000 C.ar      1 <1>        -0.289100 
     11 C          14.631000    4.411000   11.545000 C.ar      1 <1>        -0.003400 
     12 S          13.976000    3.122000   10.631000 S.3       1 <1>         0.135000 
     13 C          15.902000    5.062000   11.097000 C.3       1 <1>        -0.238500 
     14 H          15.740000    6.129000   10.916000 H         1 <1>         0.069800 
     15 H          16.290000    4.625000   10.171000 H         1 <1>         0.109400 
     16 H          16.675000    4.953000   11.864000 H         1 <1>         0.074800 
     17 C          14.221000    5.766000   13.567000 C.ar      1 <1>         0.500400 
     18 C          15.048000    5.490000   14.663000 C.ar      1 <1>        -0.395000 
     19 H          15.418000    4.481000   14.839000 H         1 <1>         0.172000 
     20 C          15.407000    6.514000   15.543000 C.ar      1 <1>         0.188300 
     21 H          16.050000    6.292000   16.391000 H         1 <1>         0.056700 
     22 C          14.938000    7.809000   15.328000 C.ar      1 <1>        -0.445000 
     23 C          14.111000    8.090000   14.240000 C.ar      1 <1>         0.173400 
     24 H          13.743000    9.099000   14.070000 H         1 <1>         0.059800 
     25 C          13.752000    7.068000   13.358000 C.ar      1 <1>        -0.351200 
     26 H          13.105000    7.295000   12.512000 H         1 <1>         0.171000 
     27 Cl         15.381000    9.070000   16.412000 Cl        1 <1>         0.076800 
     28 N           9.778000    1.050000   12.200000 N.pl3     1 <1>        -0.830300 
     29 H           9.808000    0.420000   11.413000 H         1 <1>         0.379800 
     30 H           9.024000    1.001000   12.869000 H         1 <1>         0.382200 
@<TRIPOS>BOND
     1    1    2 ar   
     2    2    3 ar   
     3    3    4 ar   
     4    4    5 ar   
     5    5    6 ar   
     6    6    1 ar   
     7    6    7 1    
     8    7    8 1    
     9    7    9 1    
    10    5   10 ar   
    11   10   11 ar   
    12   11   12 ar   
    13   12    4 ar   
    14   11   13 1    
    15   13   14 1    
    16   13   15 1    
    17   13   16 1    
    18   10   17 1    
    19   17   18 ar   
    20   18   19 1    
    21   18   20 ar   
    22   20   21 1    
    23   20   22 ar   
    24   22   23 ar   
    25   23   24 1    
    26   23   25 ar   
    27   25   26 1    
    28   25   17 ar   
    29   22   27 1    
    30    2   28 1    
    31   28   29 1    
    32   28   30 1    
@<TRIPOS>SUBSTRUCTURE
     1 ****        1 TEMP              0 ****  ****    0 ROOT 
@<TRIPOS>SET
UNITY_3DHIT     STATIC     ATOMS    <user>   **** Atoms matching 3D or FLEX Search
0
