#	Name:			40-table-2-6
#	Creating user name:	jeff
#	Creation time:		Thu Dec  4 18:13:48 2003

#	Modifying user name:	jeff
#	Modification time:	Thu Dec  4 18:13:48 2003

@<TRIPOS>MOLECULE
40-table-2-6
   27    29     1     0     1
SMALL
USER_CHARGES
****
From 3DB ct
@<TRIPOS>ATOM
      1 N          10.533000    2.821000   13.288000 N.ar      1 <1>        -0.719200 
      2 C          10.718000    1.993000   12.255000 C.ar      1 <1>         0.841500 
      3 N          11.782000    1.972000   11.461000 N.ar      1 <1>        -0.571800 
      4 C          12.712000    2.882000   11.789000 C.ar      1 <1>         0.219900 
      5 C          12.655000    3.790000   12.835000 C.ar      1 <1>        -0.570300 
      6 C          11.477000    3.734000   13.602000 C.ar      1 <1>         0.790100 
      7 N          11.197000    4.558000   14.664000 N.pl3     1 <1>        -0.761700 
      8 H          11.806000    5.309000   14.954000 H         1 <1>         0.327900 
      9 H          10.312000    4.450000   15.144000 H         1 <1>         0.330000 
     10 C          13.860000    4.591000   12.874000 C.ar      1 <1>         0.174100 
     11 C          14.722000    4.269000   11.839000 C.ar      1 <1>        -0.248300 
     12 S          14.139000    3.004000   10.868000 S.3       1 <1>         0.164000 
     13 C          16.052000    4.911000   11.581000 C.3       1 <1>        -0.022800 
     14 H          16.202000    5.091000   10.511000 H         1 <1>         0.063900 
     15 H          16.845000    4.233000   11.919000 H         1 <1>         0.064600 
     16 C          16.161000    6.240000   12.341000 C.3       1 <1>        -0.119600 
     17 H          15.562000    7.007000   11.833000 H         1 <1>         0.051900 
     18 H          17.201000    6.585000   12.328000 H         1 <1>         0.034800 
     19 C          15.674000    6.097000   13.787000 C.3       1 <1>        -0.024500 
     20 H          16.289000    5.346000   14.300000 H         1 <1>         0.036900 
     21 H          15.811000    7.042000   14.325000 H         1 <1>         0.015100 
     22 C          14.196000    5.681000   13.856000 C.3       1 <1>        -0.064300 
     23 H          13.976000    5.353000   14.877000 H         1 <1>         0.035800 
     24 H          13.564000    6.551000   13.639000 H         1 <1>         0.043200 
     25 N           9.726000    1.096000   11.996000 N.pl3     1 <1>        -0.873800 
     26 H           9.821000    0.451000   11.225000 H         1 <1>         0.389100 
     27 H           8.901000    1.083000   12.578000 H         1 <1>         0.393800 
@<TRIPOS>BOND
     1    1    2 ar   
     2    2    3 ar   
     3    3    4 ar   
     4    4    5 ar   
     5    5    6 ar   
     6    6    1 ar   
     7    6    7 1    
     8    7    8 1    
     9    7    9 1    
    10    5   10 ar   
    11   10   11 ar   
    12   11   12 ar   
    13   12    4 ar   
    14   11   13 1    
    15   13   14 1    
    16   13   15 1    
    17   13   16 1    
    18   16   17 1    
    19   16   18 1    
    20   16   19 1    
    21   19   20 1    
    22   19   21 1    
    23   19   22 1    
    24   22   23 1    
    25   22   24 1    
    26   22   10 1    
    27    2   25 1    
    28   25   26 1    
    29   25   27 1    
@<TRIPOS>SUBSTRUCTURE
     1 ****        1 TEMP              0 ****  ****    0 ROOT 
@<TRIPOS>SET
UNITY_3DHIT     STATIC     ATOMS    <user>   **** Atoms matching 3D or FLEX Search
0
