#	Name:			40-table2-1
#	Creating user name:	jeff
#	Creation time:		Thu Dec  4 18:13:48 2003

#	Modifying user name:	jeff
#	Modification time:	Thu Dec  4 18:13:48 2003

@<TRIPOS>MOLECULE
40-table2-1
   30    32     1     0     1
SMALL
USER_CHARGES
****
From 3DB ct
@<TRIPOS>ATOM
      1 N          10.550000    2.826000   13.283000 N.ar      1 <1>        -0.703400 
      2 C          10.755000    2.007000   12.248000 C.ar      1 <1>         0.820500 
      3 N          11.835000    1.992000   11.478000 N.ar      1 <1>        -0.582300 
      4 C          12.754000    2.905000   11.826000 C.ar      1 <1>         0.237500 
      5 C          12.673000    3.815000   12.867000 C.ar      1 <1>        -0.540000 
      6 C          11.486000    3.740000   13.621000 C.ar      1 <1>         0.766800 
      7 N          11.191000    4.532000   14.702000 N.pl3     1 <1>        -0.776900 
      8 H          11.818000    5.236000   15.062000 H         1 <1>         0.340100 
      9 H          10.309000    4.392000   15.181000 H         1 <1>         0.333200 
     10 C          13.867000    4.647000   12.921000 C.ar      1 <1>         0.254400 
     11 C          14.774000    4.297000   11.928000 C.ar      1 <1>        -0.423300 
     12 S          14.201000    3.020000   10.947000 S.3       1 <1>         0.177800 
     13 C          16.101000    4.849000   11.641000 C.ar      1 <1>         0.285400 
     14 C          16.310000    5.661000   10.518000 C.ar      1 <1>        -0.145500 
     15 H          15.489000    5.891000    9.841000 H         1 <1>         0.122500 
     16 C          17.576000    6.190000   10.256000 C.ar      1 <1>        -0.138100 
     17 H          17.731000    6.819000    9.381000 H         1 <1>         0.116400 
     18 C          18.640000    5.913000   11.113000 C.ar      1 <1>        -0.084700 
     19 H          19.626000    6.326000   10.908000 H         1 <1>         0.102700 
     20 C          18.441000    5.109000   12.234000 C.ar      1 <1>        -0.122500 
     21 H          19.271000    4.893000   12.905000 H         1 <1>         0.110500 
     22 C          17.175000    4.579000   12.499000 C.ar      1 <1>        -0.166600 
     23 H          17.035000    3.952000   13.378000 H         1 <1>         0.120100 
     24 C          14.086000    5.744000   13.917000 C.3       1 <1>        -0.197100 
     25 H          14.136000    5.332000   14.930000 H         1 <1>         0.055900 
     26 H          13.269000    6.471000   13.867000 H         1 <1>         0.072900 
     27 H          15.015000    6.293000   13.737000 H         1 <1>         0.044900 
     28 N           9.769000    1.111000   11.962000 N.pl3     1 <1>        -0.853300 
     29 H           9.881000    0.471000   11.189000 H         1 <1>         0.385600 
     30 H           8.933000    1.093000   12.527000 H         1 <1>         0.386200 
@<TRIPOS>BOND
     1    1    2 ar   
     2    2    3 ar   
     3    3    4 ar   
     4    4    5 ar   
     5    5    6 ar   
     6    6    1 ar   
     7    6    7 1    
     8    7    8 1    
     9    7    9 1    
    10    5   10 ar   
    11   10   11 ar   
    12   11   12 ar   
    13   12    4 ar   
    14   11   13 1    
    15   13   14 ar   
    16   14   15 1    
    17   14   16 ar   
    18   16   17 1    
    19   16   18 ar   
    20   18   19 1    
    21   18   20 ar   
    22   20   21 1    
    23   20   22 ar   
    24   22   23 1    
    25   22   13 ar   
    26   10   24 1    
    27   24   25 1    
    28   24   26 1    
    29   24   27 1    
    30    2   28 1    
    31   28   29 1    
    32   28   30 1    
@<TRIPOS>SUBSTRUCTURE
     1 ****        1 TEMP              0 ****  ****    0 ROOT 
@<TRIPOS>SET
UNITY_3DHIT     STATIC     ATOMS    <user>   **** Atoms matching 3D or FLEX Search
0
