#	Name:			40-table-2-5
#	Creating user name:	jeff
#	Creation time:		Thu Dec  4 18:13:48 2003

#	Modifying user name:	jeff
#	Modification time:	Thu Dec  4 18:13:48 2003

@<TRIPOS>MOLECULE
40-table-2-5
   33    35     1     0     1
SMALL
USER_CHARGES
****
From 3DB ct
@<TRIPOS>ATOM
      1 N          10.235000    2.627000   13.021000 N.ar      1 <1>        -0.707800 
      2 C          10.833000    1.839000   12.126000 C.ar      1 <1>         0.810200 
      3 N          12.062000    2.005000   11.660000 N.ar      1 <1>        -0.541900 
      4 C          12.695000    3.068000   12.178000 C.ar      1 <1>         0.142100 
      5 C          12.202000    3.971000   13.109000 C.ar      1 <1>        -0.461500 
      6 C          10.881000    3.700000   13.529000 C.ar      1 <1>         0.776400 
      7 N          10.152000    4.436000   14.429000 N.pl3     1 <1>        -0.774300 
      8 H          10.464000    5.295000   14.851000 H         1 <1>         0.346700 
      9 H           9.206000    4.134000   14.633000 H         1 <1>         0.325600 
     10 C          13.210000    4.990000   13.417000 C.ar      1 <1>         0.107400 
     11 C          14.393000    4.755000   12.716000 C.ar      1 <1>        -0.154300 
     12 S          14.281000    3.402000   11.684000 S.3       1 <1>         0.162400 
     13 C          15.677000    5.526000   12.745000 C.3       1 <1>        -0.158800 
     14 H          15.902000    5.875000   13.758000 H         1 <1>         0.052900 
     15 H          15.609000    6.395000   12.084000 H         1 <1>         0.072600 
     16 H          16.528000    4.918000   12.420000 H         1 <1>         0.089000 
     17 C          13.043000    6.128000   14.394000 C.3       1 <1>        -0.191100 
     18 H          13.311000    5.795000   15.404000 H         1 <1>         0.091900 
     19 H          12.016000    6.482000   14.476000 H         1 <1>         0.074500 
     20 C          13.956000    7.247000   13.940000 C.ar      1 <1>         0.108400 
     21 C          13.475000    8.334000   13.193000 C.ar      1 <1>        -0.142800 
     22 H          12.426000    8.393000   12.910000 H         1 <1>         0.093100 
     23 C          14.332000    9.364000   12.797000 C.ar      1 <1>        -0.096600 
     24 H          13.945000   10.198000   12.215000 H         1 <1>         0.107400 
     25 C          15.680000    9.326000   13.147000 C.ar      1 <1>        -0.121000 
     26 H          16.347000   10.129000   12.838000 H         1 <1>         0.107800 
     27 C          16.171000    8.260000   13.896000 C.ar      1 <1>        -0.080900 
     28 H          17.223000    8.230000   14.175000 H         1 <1>         0.101800 
     29 C          15.315000    7.231000   14.294000 C.ar      1 <1>        -0.173900 
     30 H          15.721000    6.410000   14.885000 H         1 <1>         0.118300 
     31 N          10.120000    0.778000   11.656000 N.pl3     1 <1>        -0.854200 
     32 H          10.534000    0.156000   10.978000 H         1 <1>         0.381700 
     33 H           9.181000    0.622000   11.990000 H         1 <1>         0.388800 
@<TRIPOS>BOND
     1    1    2 ar   
     2    2    3 ar   
     3    3    4 ar   
     4    4    5 ar   
     5    5    6 ar   
     6    6    1 ar   
     7    6    7 1    
     8    7    8 1    
     9    7    9 1    
    10    5   10 ar   
    11   10   11 ar   
    12   11   12 ar   
    13   12    4 ar   
    14   11   13 1    
    15   13   14 1    
    16   13   15 1    
    17   13   16 1    
    18   10   17 1    
    19   17   18 1    
    20   17   19 1    
    21   17   20 1    
    22   20   21 ar   
    23   21   22 1    
    24   21   23 ar   
    25   23   24 1    
    26   23   25 ar   
    27   25   26 1    
    28   25   27 ar   
    29   27   28 1    
    30   27   29 ar   
    31   29   30 1    
    32   29   20 ar   
    33    2   31 1    
    34   31   32 1    
    35   31   33 1    
@<TRIPOS>SUBSTRUCTURE
     1 ****        1 TEMP              0 ****  ****    0 ROOT 
@<TRIPOS>SET
UNITY_3DHIT     STATIC     ATOMS    <user>   **** Atoms matching 3D or FLEX Search
0
