#	Name:			40-table2-3
#	Creating user name:	jeff
#	Creation time:		Thu Dec  4 18:13:48 2003

#	Modifying user name:	jeff
#	Modification time:	Thu Dec  4 18:13:48 2003

@<TRIPOS>MOLECULE
40-table2-3
   33    35     1     0     1
SMALL
USER_CHARGES
****
From 3DB ct
@<TRIPOS>ATOM
      1 N          10.233000    2.643000   13.018000 N.ar      1 <1>        -0.721100 
      2 C          10.825000    1.853000   12.118000 C.ar      1 <1>         0.842700 
      3 N          12.061000    1.999000   11.658000 N.ar      1 <1>        -0.563900 
      4 C          12.706000    3.054000   12.179000 C.ar      1 <1>         0.177500 
      5 C          12.215000    3.957000   13.106000 C.ar      1 <1>        -0.538600 
      6 C          10.897000    3.699000   13.536000 C.ar      1 <1>         0.795800 
      7 N          10.214000    4.441000   14.466000 N.pl3     1 <1>        -0.780100 
      8 H          10.621000    5.221000   14.960000 H         1 <1>         0.339600 
      9 H           9.274000    4.160000   14.716000 H         1 <1>         0.331500 
     10 C          13.208000    4.980000   13.408000 C.ar      1 <1>         0.187000 
     11 C          14.402000    4.753000   12.729000 C.ar      1 <1>        -0.189000 
     12 S          14.299000    3.385000   11.703000 S.3       1 <1>         0.174100 
     13 C          15.694000    5.537000   12.767000 C.3       1 <1>        -0.216700 
     14 H          16.514000    4.894000   12.420000 H         1 <1>         0.106500 
     15 H          15.963000    5.803000   13.798000 H         1 <1>         0.080700 
     16 C          15.646000    6.808000   11.943000 C.ar      1 <1>         0.147400 
     17 C          16.812000    7.324000   11.355000 C.ar      1 <1>        -0.150500 
     18 H          17.765000    6.812000   11.480000 H         1 <1>         0.120500 
     19 C          16.768000    8.498000   10.601000 C.ar      1 <1>        -0.119700 
     20 H          17.678000    8.889000   10.150000 H         1 <1>         0.109000 
     21 C          15.559000    9.168000   10.422000 C.ar      1 <1>        -0.093000 
     22 H          15.526000   10.084000    9.834000 H         1 <1>         0.100900 
     23 C          14.394000    8.665000   10.996000 C.ar      1 <1>        -0.101300 
     24 H          13.449000    9.186000   10.855000 H         1 <1>         0.105100 
     25 C          14.436000    7.490000   11.750000 C.ar      1 <1>        -0.175000 
     26 H          13.512000    7.112000   12.185000 H         1 <1>         0.128800 
     27 C          12.970000    6.125000   14.343000 C.3       1 <1>        -0.196500 
     28 H          13.770000    6.868000   14.303000 H         1 <1>         0.065700 
     29 H          12.896000    5.764000   15.374000 H         1 <1>         0.053200 
     30 H          12.046000    6.648000   14.080000 H         1 <1>         0.071700 
     31 N          10.095000    0.809000   11.633000 N.pl3     1 <1>        -0.875700 
     32 H          10.501000    0.189000   10.949000 H         1 <1>         0.388600 
     33 H           9.150000    0.669000   11.958000 H         1 <1>         0.394700 
@<TRIPOS>BOND
     1    1    2 ar   
     2    2    3 ar   
     3    3    4 ar   
     4    4    5 ar   
     5    5    6 ar   
     6    6    1 ar   
     7    6    7 1    
     8    7    8 1    
     9    7    9 1    
    10    5   10 ar   
    11   10   11 ar   
    12   11   12 ar   
    13   12    4 ar   
    14   11   13 1    
    15   13   14 1    
    16   13   15 1    
    17   13   16 1    
    18   16   17 ar   
    19   17   18 1    
    20   17   19 ar   
    21   19   20 1    
    22   19   21 ar   
    23   21   22 1    
    24   21   23 ar   
    25   23   24 1    
    26   23   25 ar   
    27   25   26 1    
    28   25   16 ar   
    29   10   27 1    
    30   27   28 1    
    31   27   29 1    
    32   27   30 1    
    33    2   31 1    
    34   31   32 1    
    35   31   33 1    
@<TRIPOS>SUBSTRUCTURE
     1 ****        1 TEMP              0 ****  ****    0 ROOT 
@<TRIPOS>SET
UNITY_3DHIT     STATIC     ATOMS    <user>   **** Atoms matching 3D or FLEX Search
0
