#	Name:			40-table2-2
#	Creating user name:	jeff
#	Creation time:		Thu Dec  4 18:13:48 2003

#	Modifying user name:	jeff
#	Modification time:	Thu Dec  4 18:13:48 2003

@<TRIPOS>MOLECULE
40-table2-2
   30    32     1     0     1
SMALL
USER_CHARGES
****
From 3DB ct
@<TRIPOS>ATOM
      1 N          10.553000    2.822000   13.287000 N.ar      1 <1>        -0.703100 
      2 C          10.756000    2.005000   12.250000 C.ar      1 <1>         0.823500 
      3 N          11.835000    1.992000   11.478000 N.ar      1 <1>        -0.590600 
      4 C          12.758000    2.901000   11.831000 C.ar      1 <1>         0.266600 
      5 C          12.681000    3.803000   12.878000 C.ar      1 <1>        -0.564100 
      6 C          11.490000    3.732000   13.628000 C.ar      1 <1>         0.769000 
      7 N          11.191000    4.532000   14.702000 N.pl3     1 <1>        -0.773700 
      8 H          11.802000    5.261000   15.039000 H         1 <1>         0.339200 
      9 H          10.302000    4.404000   15.170000 H         1 <1>         0.335500 
     10 C          13.884000    4.621000   12.945000 C.ar      1 <1>         0.299200 
     11 C          14.779000    4.289000   11.935000 C.ar      1 <1>        -0.485800 
     12 S          14.200000    3.022000   10.945000 S.3       1 <1>         0.183300 
     13 C          16.084000    4.873000   11.619000 C.ar      1 <1>         0.324900 
     14 C          16.177000    6.152000   11.056000 C.ar      1 <1>        -0.195800 
     15 H          15.278000    6.731000   10.847000 H         1 <1>         0.132900 
     16 C          17.425000    6.700000   10.749000 C.ar      1 <1>         0.053600 
     17 H          17.476000    7.695000   10.312000 H         1 <1>         0.072300 
     18 C          18.592000    5.975000   11.000000 C.ar      1 <1>        -0.180700 
     19 C          18.507000    4.695000   11.560000 C.ar      1 <1>        -0.246400 
     20 C          17.257000    4.147000   11.867000 C.ar      1 <1>         0.025200 
     21 H          17.195000    3.152000   12.303000 H         1 <1>         0.084600 
     22 Cl         19.909000    3.739000   11.896000 Cl        1 <1>         0.073900 
     23 Cl         20.104000    6.710000   10.597000 Cl        1 <1>         0.060300 
     24 C          14.127000    5.681000   13.976000 C.3       1 <1>        -0.226600 
     25 H          15.122000    6.127000   13.890000 H         1 <1>         0.045800 
     26 H          14.051000    5.256000   14.982000 H         1 <1>         0.084200 
     27 H          13.392000    6.486000   13.872000 H         1 <1>         0.066600 
     28 N           9.769000    1.111000   11.962000 N.pl3     1 <1>        -0.850500 
     29 H           9.879000    0.474000   11.187000 H         1 <1>         0.388800 
     30 H           8.933000    1.093000   12.527000 H         1 <1>         0.388200 
@<TRIPOS>BOND
     1    1    2 ar   
     2    2    3 ar   
     3    3    4 ar   
     4    4    5 ar   
     5    5    6 ar   
     6    6    1 ar   
     7    6    7 1    
     8    7    8 1    
     9    7    9 1    
    10    5   10 ar   
    11   10   11 ar   
    12   11   12 ar   
    13   12    4 ar   
    14   11   13 1    
    15   13   14 ar   
    16   14   15 1    
    17   14   16 ar   
    18   16   17 1    
    19   16   18 ar   
    20   18   19 ar   
    21   19   20 ar   
    22   20   21 1    
    23   20   13 ar   
    24   19   22 1    
    25   18   23 1    
    26   10   24 1    
    27   24   25 1    
    28   24   26 1    
    29   24   27 1    
    30    2   28 1    
    31   28   29 1    
    32   28   30 1    
@<TRIPOS>SUBSTRUCTURE
     1 ****        1 TEMP              0 ****  ****    0 ROOT 
@<TRIPOS>SET
UNITY_3DHIT     STATIC     ATOMS    <user>   **** Atoms matching 3D or FLEX Search
0
