#	Name:			41-4i
#	Creating user name:	jeff
#	Creation time:		Thu Dec  4 18:13:49 2003

#	Modifying user name:	jeff
#	Modification time:	Thu Dec  4 18:13:49 2003

@<TRIPOS>MOLECULE
41-4i
   42    46     1     0     1
SMALL
USER_CHARGES
****
From 3DB ct
@<TRIPOS>ATOM
      1 N          10.487000    2.776000   13.258000 N.ar      1 <1>        -0.720400 
      2 C          10.739000    1.972000   12.214000 C.ar      1 <1>         0.820800 
      3 N          11.839000    1.985000   11.464000 N.ar      1 <1>        -0.671600 
      4 C          12.715000    2.914000   11.862000 C.ar      1 <1>         0.570300 
      5 C          12.585000    3.803000   12.917000 C.ar      1 <1>        -0.681700 
      6 C          11.391000    3.708000   13.637000 C.ar      1 <1>         0.817000 
      7 N          11.061000    4.498000   14.708000 N.pl3     1 <1>        -0.785700 
      8 H          11.655000    5.231000   15.068000 H         1 <1>         0.337600 
      9 H          10.167000    4.350000   15.161000 H         1 <1>         0.332800 
     10 C          13.784000    4.590000   12.935000 C.ar      1 <1>         0.110500 
     11 C          14.540000    4.117000   11.879000 C.ar      1 <1>        -0.104200 
     12 H          15.508000    4.389000   11.478000 H         1 <1>         0.212200 
     13 O          13.906000    3.107000   11.232000 O.3       1 <1>        -0.158600 
     14 C          14.122000    5.694000   13.887000 C.3       1 <1>         0.056800 
     15 H          14.197000    5.264000   14.893000 H         1 <1>         0.070000 
     16 H          13.264000    6.378000   13.910000 H         1 <1>         0.066600 
     17 N          15.303000    6.508000   13.589000 N.pl3     1 <1>        -0.670600 
     18 H          15.995000    6.525000   14.164000 H         1 <1>         0.353700 
     19 C          15.337000    7.250000   12.411000 C.ar      1 <1>         0.443300 
     20 C          16.552000    7.676000   11.785000 C.ar      1 <1>        -0.281700 
     21 C          16.458000    8.281000   10.541000 C.ar      1 <1>        -0.023800 
     22 C          15.268000    8.533000    9.874000 C.ar      1 <1>        -0.160500 
     23 H          15.259000    9.019000    8.903000 H         1 <1>         0.135100 
     24 C          14.087000    8.153000   10.498000 C.ar      1 <1>        -0.029500 
     25 H          13.130000    8.336000   10.013000 H         1 <1>         0.106300 
     26 C          14.123000    7.517000   11.749000 C.ar      1 <1>        -0.285500 
     27 H          13.179000    7.211000   12.198000 H         1 <1>         0.133700 
     28 C          17.811000    8.619000   10.078000 C.2       1 <1>         0.431300 
     29 C          18.694000    8.196000   11.168000 C.ar      1 <1>        -0.157600 
     30 C          17.908000    7.657000   12.171000 C.ar      1 <1>         0.123700 
     31 C          18.566000    7.238000   13.354000 C.ar      1 <1>        -0.160700 
     32 H          18.000000    6.847000   14.195000 H         1 <1>         0.104400 
     33 C          19.958000    7.350000   13.455000 C.ar      1 <1>        -0.066000 
     34 H          20.462000    7.025000   14.365000 H         1 <1>         0.104700 
     35 C          20.709000    7.885000   12.399000 C.ar      1 <1>        -0.139800 
     36 H          21.790000    7.970000   12.493000 H         1 <1>         0.111500 
     37 C          20.075000    8.322000   11.238000 C.ar      1 <1>        -0.046800 
     38 H          20.641000    8.754000   10.419000 H         1 <1>         0.123600 
     39 O          18.127000    9.140000    9.027000 O.2       1 <1>        -0.361200 
     40 N           9.777000    1.061000   11.893000 N.pl3     1 <1>        -0.818500 
     41 H           9.918000    0.435000   11.114000 H         1 <1>         0.381100 
     42 H           8.927000    1.023000   12.435000 H         1 <1>         0.377700 
@<TRIPOS>BOND
     1    1    2 ar   
     2    2    3 ar   
     3    3    4 ar   
     4    4    5 ar   
     5    5    6 ar   
     6    6    1 ar   
     7    6    7 1    
     8    7    8 1    
     9    7    9 1    
    10    5   10 ar   
    11   10   11 ar   
    12   11   12 1    
    13   11   13 ar   
    14   13    4 ar   
    15   10   14 1    
    16   14   15 1    
    17   14   16 1    
    18   14   17 1    
    19   17   18 1    
    20   17   19 1    
    21   19   20 ar   
    22   20   21 ar   
    23   21   22 ar   
    24   22   23 1    
    25   22   24 ar   
    26   24   25 1    
    27   24   26 ar   
    28   26   27 1    
    29   26   19 ar   
    30   21   28 1    
    31   28   29 1    
    32   29   30 ar   
    33   30   20 1    
    34   30   31 ar   
    35   31   32 1    
    36   31   33 ar   
    37   33   34 1    
    38   33   35 ar   
    39   35   36 1    
    40   35   37 ar   
    41   37   38 1    
    42   37   29 ar   
    43   28   39 2    
    44    2   40 1    
    45   40   41 1    
    46   40   42 1    
@<TRIPOS>SUBSTRUCTURE
     1 ****        1 TEMP              0 ****  ****    0 ROOT 
@<TRIPOS>SET
UNITY_3DHIT     STATIC     ATOMS    <user>   **** Atoms matching 3D or FLEX Search
0
