#	Name:			41-4g
#	Creating user name:	jeff
#	Creation time:		Thu Dec  4 18:13:48 2003

#	Modifying user name:	jeff
#	Modification time:	Thu Dec  4 18:13:49 2003

@<TRIPOS>MOLECULE
41-4g
   44    48     1     0     1
SMALL
USER_CHARGES
****
From 3DB ct
@<TRIPOS>ATOM
      1 N          10.479000    2.776000   13.255000 N.ar      1 <1>        -0.715800 
      2 C          10.731000    1.996000   12.190000 C.ar      1 <1>         0.825400 
      3 N          11.841000    2.009000   11.451000 N.ar      1 <1>        -0.683000 
      4 C          12.723000    2.919000   11.877000 C.ar      1 <1>         0.595000 
      5 C          12.588000    3.785000   12.949000 C.ar      1 <1>        -0.675800 
      6 C          11.396000    3.679000   13.667000 C.ar      1 <1>         0.794200 
      7 N          11.104000    4.432000   14.776000 N.pl3     1 <1>        -0.758600 
      8 H          11.806000    5.027000   15.205000 H         1 <1>         0.331900 
      9 H          10.238000    4.268000   15.274000 H         1 <1>         0.327600 
     10 C          13.783000    4.569000   12.990000 C.ar      1 <1>         0.051100 
     11 C          14.561000    4.107000   11.946000 C.ar      1 <1>        -0.114600 
     12 H          15.540000    4.379000   11.571000 H         1 <1>         0.216000 
     13 O          13.928000    3.114000   11.271000 O.3       1 <1>        -0.162500 
     14 C          14.119000    5.672000   13.940000 C.3       1 <1>         0.177700 
     15 H          14.344000    5.209000   14.910000 H         1 <1>         0.036000 
     16 H          13.232000    6.302000   14.083000 H         1 <1>         0.054600 
     17 N          15.235000    6.512000   13.532000 N.pl3     1 <1>        -0.725500 
     18 H          16.085000    6.431000   14.086000 H         1 <1>         0.344500 
     19 C          15.294000    7.218000   12.346000 C.ar      1 <1>         0.487000 
     20 C          16.546000    7.656000   11.888000 C.ar      1 <1>        -0.390400 
     21 H          17.451000    7.425000   12.446000 H         1 <1>         0.167500 
     22 C          16.643000    8.391000   10.707000 C.ar      1 <1>         0.057800 
     23 C          15.524000    8.720000    9.962000 C.ar      1 <1>        -0.211900 
     24 C          14.255000    8.301000   10.409000 C.ar      1 <1>        -0.003200 
     25 H          13.357000    8.549000    9.847000 H         1 <1>         0.112800 
     26 C          14.155000    7.561000   11.595000 C.ar      1 <1>        -0.331000 
     27 H          13.161000    7.256000   11.916000 H         1 <1>         0.150400 
     28 C          15.910000    9.453000    8.845000 C.ar      1 <1>         0.178900 
     29 C          17.290000    9.611000    8.853000 C.ar      1 <1>        -0.249800 
     30 C          17.892000    8.944000   10.068000 C.3       1 <1>         0.308800 
     31 H          18.386000    9.672000   10.719000 H         1 <1>         0.042800 
     32 O          18.773000    7.883000    9.732000 O.3       1 <1>        -0.489000 
     33 H          19.184000    8.129000    8.880000 H         1 <1>         0.306000 
     34 C          17.949000   10.323000    7.855000 C.ar      1 <1>        -0.036100 
     35 H          19.029000   10.452000    7.878000 H         1 <1>         0.106000 
     36 C          17.197000   10.876000    6.816000 C.ar      1 <1>        -0.150700 
     37 H          17.695000   11.435000    6.025000 H         1 <1>         0.107100 
     38 C          15.805000   10.721000    6.784000 C.ar      1 <1>        -0.051800 
     39 H          15.230000   11.158000    5.968000 H         1 <1>         0.096200 
     40 C          15.150000   10.014000    7.795000 C.ar      1 <1>        -0.192000 
     41 H          14.069000    9.900000    7.769000 H         1 <1>         0.129300 
     42 N           9.760000    1.108000   11.837000 N.pl3     1 <1>        -0.824000 
     43 H           9.900000    0.497000   11.046000 H         1 <1>         0.383200 
     44 H           8.906000    1.066000   12.373000 H         1 <1>         0.377800 
@<TRIPOS>BOND
     1    1    2 ar   
     2    2    3 ar   
     3    3    4 ar   
     4    4    5 ar   
     5    5    6 ar   
     6    6    1 ar   
     7    6    7 1    
     8    7    8 1    
     9    7    9 1    
    10    5   10 ar   
    11   10   11 ar   
    12   11   12 1    
    13   11   13 ar   
    14   13    4 ar   
    15   10   14 1    
    16   14   15 1    
    17   14   16 1    
    18   14   17 1    
    19   17   18 1    
    20   17   19 1    
    21   19   20 ar   
    22   20   21 1    
    23   20   22 ar   
    24   22   23 ar   
    25   23   24 ar   
    26   24   25 1    
    27   24   26 ar   
    28   26   27 1    
    29   26   19 ar   
    30   23   28 1    
    31   28   29 ar   
    32   29   30 1    
    33   30   31 1    
    34   30   22 1    
    35   30   32 1    
    36   32   33 1    
    37   29   34 ar   
    38   34   35 1    
    39   34   36 ar   
    40   36   37 1    
    41   36   38 ar   
    42   38   39 1    
    43   38   40 ar   
    44   40   41 1    
    45   40   28 ar   
    46    2   42 1    
    47   42   43 1    
    48   42   44 1    
@<TRIPOS>SUBSTRUCTURE
     1 ****        1 TEMP              0 ****  ****    0 ROOT 
@<TRIPOS>SET
UNITY_3DHIT     STATIC     ATOMS    <user>   **** Atoms matching 3D or FLEX Search
0
