#	Name:			41-4h
#	Creating user name:	jeff
#	Creation time:		Thu Dec  4 18:13:49 2003

#	Modifying user name:	jeff
#	Modification time:	Thu Dec  4 18:13:49 2003

@<TRIPOS>MOLECULE
41-4h
   42    46     1     0     1
SMALL
USER_CHARGES
****
From 3DB ct
@<TRIPOS>ATOM
      1 N          10.479000    2.772000   13.257000 N.ar      1 <1>        -0.711800 
      2 C          10.730000    1.997000   12.188000 C.ar      1 <1>         0.819200 
      3 N          11.840000    2.010000   11.451000 N.ar      1 <1>        -0.677100 
      4 C          12.724000    2.917000   11.880000 C.ar      1 <1>         0.583300 
      5 C          12.590000    3.780000   12.954000 C.ar      1 <1>        -0.659100 
      6 C          11.398000    3.673000   13.671000 C.ar      1 <1>         0.789500 
      7 N          11.107000    4.424000   14.783000 N.pl3     1 <1>        -0.760800 
      8 H          11.812000    5.018000   15.210000 H         1 <1>         0.334000 
      9 H          10.245000    4.256000   15.286000 H         1 <1>         0.327900 
     10 C          13.783000    4.567000   12.994000 C.ar      1 <1>         0.050200 
     11 C          14.562000    4.105000   11.951000 C.ar      1 <1>        -0.102900 
     12 H          15.540000    4.379000   11.575000 H         1 <1>         0.210400 
     13 O          13.929000    3.112000   11.274000 O.3       1 <1>        -0.161300 
     14 C          14.115000    5.674000   13.939000 C.3       1 <1>         0.113000 
     15 H          14.339000    5.216000   14.911000 H         1 <1>         0.050300 
     16 H          13.225000    6.302000   14.077000 H         1 <1>         0.070200 
     17 N          15.229000    6.519000   13.533000 N.pl3     1 <1>        -0.692000 
     18 H          16.088000    6.416000   14.071000 H         1 <1>         0.347000 
     19 C          15.286000    7.219000   12.343000 C.ar      1 <1>         0.457700 
     20 C          16.536000    7.654000   11.880000 C.ar      1 <1>        -0.322800 
     21 H          17.446000    7.434000   12.430000 H         1 <1>         0.151800 
     22 C          16.602000    8.370000   10.693000 C.ar      1 <1>        -0.016500 
     23 C          15.498000    8.695000    9.934000 C.ar      1 <1>        -0.152000 
     24 C          14.232000    8.286000   10.393000 C.ar      1 <1>        -0.018500 
     25 H          13.331000    8.525000    9.833000 H         1 <1>         0.117000 
     26 C          14.142000    7.559000   11.591000 C.ar      1 <1>        -0.311300 
     27 H          13.150000    7.258000   11.922000 H         1 <1>         0.154500 
     28 C          15.894000    9.405000    8.801000 C.ar      1 <1>         0.121600 
     29 C          17.268000    9.557000    8.804000 C.ar      1 <1>        -0.210800 
     30 C          17.794000    8.906000   10.015000 C.2       1 <1>         0.464300 
     31 O          18.951000    8.827000   10.373000 O.2       1 <1>        -0.365800 
     32 C          17.970000   10.216000    7.807000 C.ar      1 <1>        -0.022200 
     33 H          19.050000   10.313000    7.848000 H         1 <1>         0.114900 
     34 C          17.238000   10.750000    6.745000 C.ar      1 <1>        -0.142100 
     35 H          17.753000   11.273000    5.941000 H         1 <1>         0.108000 
     36 C          15.840000   10.617000    6.704000 C.ar      1 <1>        -0.060300 
     37 H          15.283000   11.039000    5.868000 H         1 <1>         0.101100 
     38 C          15.157000    9.948000    7.726000 C.ar      1 <1>        -0.163800 
     39 H          14.075000    9.849000    7.686000 H         1 <1>         0.124700 
     40 N           9.754000    1.117000   11.827000 N.pl3     1 <1>        -0.819000 
     41 H           9.890000    0.518000   11.025000 H         1 <1>         0.382200 
     42 H           8.895000    1.081000   12.355000 H         1 <1>         0.377200 
@<TRIPOS>BOND
     1    1    2 ar   
     2    2    3 ar   
     3    3    4 ar   
     4    4    5 ar   
     5    5    6 ar   
     6    6    1 ar   
     7    6    7 1    
     8    7    8 1    
     9    7    9 1    
    10    5   10 ar   
    11   10   11 ar   
    12   11   12 1    
    13   11   13 ar   
    14   13    4 ar   
    15   10   14 1    
    16   14   15 1    
    17   14   16 1    
    18   14   17 1    
    19   17   18 1    
    20   17   19 1    
    21   19   20 ar   
    22   20   21 1    
    23   20   22 ar   
    24   22   23 ar   
    25   23   24 ar   
    26   24   25 1    
    27   24   26 ar   
    28   26   27 1    
    29   26   19 ar   
    30   23   28 1    
    31   28   29 ar   
    32   29   30 1    
    33   30   22 1    
    34   30   31 2    
    35   29   32 ar   
    36   32   33 1    
    37   32   34 ar   
    38   34   35 1    
    39   34   36 ar   
    40   36   37 1    
    41   36   38 ar   
    42   38   39 1    
    43   38   28 ar   
    44    2   40 1    
    45   40   41 1    
    46   40   42 1    
@<TRIPOS>SUBSTRUCTURE
     1 ****        1 TEMP              0 ****  ****    0 ROOT 
@<TRIPOS>SET
UNITY_3DHIT     STATIC     ATOMS    <user>   **** Atoms matching 3D or FLEX Search
0
