#	Name:			41-4e
#	Creating user name:	jeff
#	Creation time:		Thu Dec  4 18:13:48 2003

#	Modifying user name:	jeff
#	Modification time:	Thu Dec  4 18:13:48 2003

@<TRIPOS>MOLECULE
41-4e
   45    49     1     0     1
SMALL
USER_CHARGES
****
From 3DB ct
@<TRIPOS>ATOM
      1 N          10.459000    2.740000   13.235000 N.ar      1 <1>        -0.714000 
      2 C          10.742000    1.961000   12.179000 C.ar      1 <1>         0.809200 
      3 N          11.855000    2.005000   11.450000 N.ar      1 <1>        -0.680800 
      4 C          12.709000    2.939000   11.881000 C.ar      1 <1>         0.579800 
      5 C          12.543000    3.808000   12.948000 C.ar      1 <1>        -0.649300 
      6 C          11.342000    3.675000   13.650000 C.ar      1 <1>         0.807800 
      7 N          10.990000    4.426000   14.742000 N.pl3     1 <1>        -0.776200 
      8 H          11.582000    5.136000   15.148000 H         1 <1>         0.354900 
      9 H          10.095000    4.248000   15.184000 H         1 <1>         0.325400 
     10 C          13.728000    4.612000   13.001000 C.ar      1 <1>         0.055500 
     11 C          14.524000    4.154000   11.967000 C.ar      1 <1>        -0.097700 
     12 H          15.508000    4.433000   11.610000 H         1 <1>         0.199100 
     13 O          13.914000    3.152000   11.286000 O.3       1 <1>        -0.166600 
     14 C          14.053000    5.697000   13.978000 C.3       1 <1>         0.140000 
     15 H          14.185000    5.214000   14.950000 H         1 <1>         0.033400 
     16 H          13.181000    6.356000   14.071000 H         1 <1>         0.051100 
     17 N          15.195000    6.538000   13.626000 N.pl3     1 <1>        -0.597600 
     18 H          16.076000    6.222000   14.033000 H         1 <1>         0.319100 
     19 C          15.289000    7.177000   12.391000 C.ar      1 <1>         0.346600 
     20 C          16.577000    7.473000   11.909000 C.ar      1 <1>        -0.425600 
     21 H          17.468000    7.241000   12.485000 H         1 <1>         0.174000 
     22 C          16.690000    8.051000   10.645000 C.ar      1 <1>         0.268200 
     23 C          15.610000    8.360000    9.829000 C.ar      1 <1>        -0.217600 
     24 C          14.318000    8.084000   10.306000 C.ar      1 <1>        -0.101200 
     25 H          13.442000    8.318000    9.707000 H         1 <1>         0.148200 
     26 C          14.180000    7.519000   11.587000 C.ar      1 <1>         0.017300 
     27 O          12.885000    7.314000   12.007000 O.3       1 <1>        -0.216200 
     28 C          11.968000    7.684000   10.971000 C.3       1 <1>        -0.023700 
     29 H          10.962000    7.421000   11.309000 H         1 <1>         0.051400 
     30 H          12.171000    7.132000   10.046000 H         1 <1>         0.065400 
     31 H          11.990000    8.763000   10.784000 H         1 <1>         0.042200 
     32 C          16.162000    8.921000    8.640000 C.ar      1 <1>         0.001000 
     33 C          17.541000    8.911000    8.819000 C.ar      1 <1>         0.141000 
     34 O          17.861000    8.384000   10.033000 O.3       1 <1>        -0.172700 
     35 C          18.455000    9.379000    7.877000 C.ar      1 <1>        -0.198400 
     36 H          19.524000    9.351000    8.059000 H         1 <1>         0.140600 
     37 C          17.922000    9.887000    6.688000 C.ar      1 <1>        -0.066000 
     38 H          18.595000   10.266000    5.919000 H         1 <1>         0.106400 
     39 C          16.542000    9.916000    6.469000 C.ar      1 <1>        -0.148700 
     40 H          16.154000   10.318000    5.533000 H         1 <1>         0.113900 
     41 C          15.647000    9.437000    7.436000 C.ar      1 <1>        -0.098700 
     42 H          14.575000    9.466000    7.253000 H         1 <1>         0.121200 
     43 N           9.802000    1.040000   11.825000 N.pl3     1 <1>        -0.817400 
     44 H           9.970000    0.428000   11.040000 H         1 <1>         0.380900 
     45 H           8.945000    0.974000   12.354000 H         1 <1>         0.374800 
@<TRIPOS>BOND
     1    1    2 ar   
     2    2    3 ar   
     3    3    4 ar   
     4    4    5 ar   
     5    5    6 ar   
     6    6    1 ar   
     7    6    7 1    
     8    7    8 1    
     9    7    9 1    
    10    5   10 ar   
    11   10   11 ar   
    12   11   12 1    
    13   11   13 ar   
    14   13    4 ar   
    15   10   14 1    
    16   14   15 1    
    17   14   16 1    
    18   14   17 1    
    19   17   18 1    
    20   17   19 1    
    21   19   20 ar   
    22   20   21 1    
    23   20   22 ar   
    24   22   23 ar   
    25   23   24 ar   
    26   24   25 1    
    27   24   26 ar   
    28   26   19 ar   
    29   26   27 1    
    30   27   28 1    
    31   28   29 1    
    32   28   30 1    
    33   28   31 1    
    34   23   32 ar   
    35   32   33 ar   
    36   33   34 ar   
    37   34   22 ar   
    38   33   35 ar   
    39   35   36 1    
    40   35   37 ar   
    41   37   38 1    
    42   37   39 ar   
    43   39   40 1    
    44   39   41 ar   
    45   41   42 1    
    46   41   32 ar   
    47    2   43 1    
    48   43   44 1    
    49   43   45 1    
@<TRIPOS>SUBSTRUCTURE
     1 ****        1 TEMP              0 ****  ****    0 ROOT 
@<TRIPOS>SET
UNITY_3DHIT     STATIC     ATOMS    <user>   **** Atoms matching 3D or FLEX Search
0
