#	Name:			41-4c
#	Creating user name:	jeff
#	Creation time:		Thu Dec  4 18:13:48 2003

#	Modifying user name:	jeff
#	Modification time:	Thu Dec  4 18:13:48 2003

@<TRIPOS>MOLECULE
41-4c
   43    47     1     0     1
SMALL
USER_CHARGES
****
From 3DB ct
@<TRIPOS>ATOM
      1 N          10.482000    2.771000   13.258000 N.ar      1 <1>        -0.719900 
      2 C          10.726000    2.006000   12.182000 C.ar      1 <1>         0.828300 
      3 N          11.833000    2.026000   11.445000 N.ar      1 <1>        -0.682000 
      4 C          12.721000    2.925000   11.883000 C.ar      1 <1>         0.588400 
      5 C          12.595000    3.783000   12.965000 C.ar      1 <1>        -0.685900 
      6 C          11.400000    3.669000   13.682000 C.ar      1 <1>         0.806800 
      7 N          11.083000    4.396000   14.800000 N.pl3     1 <1>        -0.770900 
      8 H          11.708000    5.058000   15.236000 H         1 <1>         0.336200 
      9 H          10.191000    4.226000   15.250000 H         1 <1>         0.330800 
     10 C          13.804000    4.554000   13.007000 C.ar      1 <1>         0.091500 
     11 C          14.577000    4.074000   11.965000 C.ar      1 <1>        -0.123600 
     12 H          15.566000    4.323000   11.602000 H         1 <1>         0.216500 
     13 O          13.927000    3.103000   11.279000 O.3       1 <1>        -0.159000 
     14 C          14.182000    5.630000   13.976000 C.3       1 <1>         0.083500 
     15 H          14.489000    5.130000   14.903000 H         1 <1>         0.046000 
     16 H          13.297000    6.235000   14.199000 H         1 <1>         0.079300 
     17 N          15.236000    6.537000   13.537000 N.pl3     1 <1>        -0.608500 
     18 H          16.101000    6.502000   14.072000 H         1 <1>         0.325800 
     19 C          15.245000    7.198000   12.327000 C.ar      1 <1>         0.299400 
     20 C          16.453000    7.615000   11.759000 C.ar      1 <1>        -0.115400 
     21 C          16.523000    8.311000   10.553000 C.ar      1 <1>         0.019000 
     22 C          15.339000    8.630000    9.861000 C.ar      1 <1>        -0.173800 
     23 H          15.369000    9.173000    8.920000 H         1 <1>         0.122000 
     24 C          14.120000    8.242000   10.409000 C.ar      1 <1>        -0.063700 
     25 H          13.191000    8.484000    9.895000 H         1 <1>         0.108500 
     26 C          14.078000    7.542000   11.627000 C.ar      1 <1>        -0.259400 
     27 H          13.097000    7.267000   12.010000 H         1 <1>         0.138800 
     28 C          17.850000    8.581000   10.239000 C.ar      1 <1>        -0.005300 
     29 C          18.665000    8.069000   11.235000 C.ar      1 <1>         0.096200 
     30 C          17.846000    7.402000   12.309000 C.3       1 <1>        -0.206900 
     31 H          18.084000    6.336000   12.376000 H         1 <1>         0.086600 
     32 H          17.971000    7.910000   13.270000 H         1 <1>         0.090100 
     33 C          20.049000    8.190000   11.187000 C.ar      1 <1>        -0.190200 
     34 H          20.673000    7.782000   11.978000 H         1 <1>         0.129400 
     35 C          20.626000    8.848000   10.099000 C.ar      1 <1>        -0.079300 
     36 H          21.709000    8.953000   10.042000 H         1 <1>         0.100200 
     37 C          19.823000    9.374000    9.078000 C.ar      1 <1>        -0.124700 
     38 H          20.286000    9.885000    8.235000 H         1 <1>         0.106300 
     39 C          18.434000    9.247000    9.138000 C.ar      1 <1>        -0.119200 
     40 H          17.814000    9.656000    8.344000 H         1 <1>         0.122700 
     41 N           9.749000    1.129000   11.819000 N.pl3     1 <1>        -0.826300 
     42 H           9.885000    0.530000   11.018000 H         1 <1>         0.383200 
     43 H           8.895000    1.083000   12.355000 H         1 <1>         0.378900 
@<TRIPOS>BOND
     1    1    2 ar   
     2    2    3 ar   
     3    3    4 ar   
     4    4    5 ar   
     5    5    6 ar   
     6    6    1 ar   
     7    6    7 1    
     8    7    8 1    
     9    7    9 1    
    10    5   10 ar   
    11   10   11 ar   
    12   11   12 1    
    13   11   13 ar   
    14   13    4 ar   
    15   10   14 1    
    16   14   15 1    
    17   14   16 1    
    18   14   17 1    
    19   17   18 1    
    20   17   19 1    
    21   19   20 ar   
    22   20   21 ar   
    23   21   22 ar   
    24   22   23 1    
    25   22   24 ar   
    26   24   25 1    
    27   24   26 ar   
    28   26   27 1    
    29   26   19 ar   
    30   21   28 1    
    31   28   29 ar   
    32   29   30 1    
    33   30   31 1    
    34   30   32 1    
    35   30   20 1    
    36   29   33 ar   
    37   33   34 1    
    38   33   35 ar   
    39   35   36 1    
    40   35   37 ar   
    41   37   38 1    
    42   37   39 ar   
    43   39   40 1    
    44   39   28 ar   
    45    2   41 1    
    46   41   42 1    
    47   41   43 1    
@<TRIPOS>SUBSTRUCTURE
     1 ****        1 TEMP              0 ****  ****    0 ROOT 
@<TRIPOS>SET
UNITY_3DHIT     STATIC     ATOMS    <user>   **** Atoms matching 3D or FLEX Search
0
