#	Name:			41-4d
#	Creating user name:	jeff
#	Creation time:		Thu Dec  4 18:13:48 2003

#	Modifying user name:	jeff
#	Modification time:	Thu Dec  4 18:13:48 2003

@<TRIPOS>MOLECULE
41-4d
   43    47     1     0     1
SMALL
USER_CHARGES
****
From 3DB ct
@<TRIPOS>ATOM
      1 N          10.479000    2.774000   13.255000 N.ar      1 <1>        -0.717800 
      2 C          10.730000    1.996000   12.189000 C.ar      1 <1>         0.826600 
      3 N          11.840000    2.010000   11.450000 N.ar      1 <1>        -0.682500 
      4 C          12.723000    2.919000   11.878000 C.ar      1 <1>         0.589900 
      5 C          12.589000    3.783000   12.950000 C.ar      1 <1>        -0.678900 
      6 C          11.396000    3.677000   13.668000 C.ar      1 <1>         0.800700 
      7 N          11.106000    4.430000   14.778000 N.pl3     1 <1>        -0.765900 
      8 H          11.811000    5.024000   15.205000 H         1 <1>         0.334200 
      9 H          10.244000    4.264000   15.281000 H         1 <1>         0.329700 
     10 C          13.783000    4.569000   12.991000 C.ar      1 <1>         0.070600 
     11 C          14.561000    4.106000   11.948000 C.ar      1 <1>        -0.116400 
     12 H          15.540000    4.379000   11.572000 H         1 <1>         0.213200 
     13 O          13.928000    3.113000   11.272000 O.3       1 <1>        -0.160100 
     14 C          14.118000    5.674000   13.938000 C.3       1 <1>         0.124000 
     15 H          14.339000    5.214000   14.910000 H         1 <1>         0.042900 
     16 H          13.230000    6.304000   14.076000 H         1 <1>         0.067400 
     17 N          15.234000    6.516000   13.533000 N.pl3     1 <1>        -0.672800 
     18 H          16.088000    6.424000   14.080000 H         1 <1>         0.334900 
     19 C          15.293000    7.218000   12.345000 C.ar      1 <1>         0.446800 
     20 C          16.545000    7.654000   11.884000 C.ar      1 <1>        -0.427700 
     21 H          17.450000    7.425000   12.444000 H         1 <1>         0.158200 
     22 C          16.639000    8.382000   10.700000 C.ar      1 <1>         0.200700 
     23 C          15.521000    8.706000    9.953000 C.ar      1 <1>        -0.173100 
     24 C          14.252000    8.293000   10.403000 C.ar      1 <1>        -0.015600 
     25 H          13.355000    8.537000    9.840000 H         1 <1>         0.117200 
     26 C          14.153000    7.560000   11.594000 C.ar      1 <1>        -0.333500 
     27 H          13.160000    7.258000   11.918000 H         1 <1>         0.151300 
     28 C          15.911000    9.425000    8.828000 C.ar      1 <1>         0.044600 
     29 C          17.290000    9.574000    8.838000 C.ar      1 <1>         0.032200 
     30 C          17.892000    8.915000   10.054000 C.3       1 <1>        -0.208400 
     31 H          18.566000    8.102000    9.768000 H         1 <1>         0.091000 
     32 H          18.386000    9.649000   10.697000 H         1 <1>         0.093200 
     33 C          17.961000   10.253000    7.828000 C.ar      1 <1>        -0.155300 
     34 H          19.043000   10.361000    7.849000 H         1 <1>         0.125000 
     35 C          17.218000   10.795000    6.778000 C.ar      1 <1>        -0.104100 
     36 H          17.725000   11.329000    5.975000 H         1 <1>         0.101800 
     37 C          15.823000   10.659000    6.746000 C.ar      1 <1>        -0.113400 
     38 H          15.256000   11.087000    5.921000 H         1 <1>         0.104200 
     39 C          15.158000    9.976000    7.767000 C.ar      1 <1>        -0.132400 
     40 H          14.076000    9.871000    7.740000 H         1 <1>         0.120800 
     41 N           9.759000    1.109000   11.834000 N.pl3     1 <1>        -0.824600 
     42 H           9.898000    0.501000   11.041000 H         1 <1>         0.383100 
     43 H           8.905000    1.066000   12.371000 H         1 <1>         0.378200 
@<TRIPOS>BOND
     1    1    2 ar   
     2    2    3 ar   
     3    3    4 ar   
     4    4    5 ar   
     5    5    6 ar   
     6    6    1 ar   
     7    6    7 1    
     8    7    8 1    
     9    7    9 1    
    10    5   10 ar   
    11   10   11 ar   
    12   11   12 1    
    13   11   13 ar   
    14   13    4 ar   
    15   10   14 1    
    16   14   15 1    
    17   14   16 1    
    18   14   17 1    
    19   17   18 1    
    20   17   19 1    
    21   19   20 ar   
    22   20   21 1    
    23   20   22 ar   
    24   22   23 ar   
    25   23   24 ar   
    26   24   25 1    
    27   24   26 ar   
    28   26   27 1    
    29   26   19 ar   
    30   23   28 1    
    31   28   29 ar   
    32   29   30 1    
    33   30   31 1    
    34   30   32 1    
    35   30   22 1    
    36   29   33 ar   
    37   33   34 1    
    38   33   35 ar   
    39   35   36 1    
    40   35   37 ar   
    41   37   38 1    
    42   37   39 ar   
    43   39   40 1    
    44   39   28 ar   
    45    2   41 1    
    46   41   42 1    
    47   41   43 1    
@<TRIPOS>SUBSTRUCTURE
     1 ****        1 TEMP              0 ****  ****    0 ROOT 
@<TRIPOS>SET
UNITY_3DHIT     STATIC     ATOMS    <user>   **** Atoms matching 3D or FLEX Search
0
