#	Name:			41-4f
#	Creating user name:	jeff
#	Creation time:		Thu Dec  4 18:13:48 2003

#	Modifying user name:	jeff
#	Modification time:	Thu Dec  4 18:13:48 2003

@<TRIPOS>MOLECULE
41-4f
   48    52     1     0     1
SMALL
USER_CHARGES
****
From 3DB ct
@<TRIPOS>ATOM
      1 N          10.486000    2.775000   13.257000 N.ar      1 <1>        -0.724600 
      2 C          10.748000    1.979000   12.207000 C.ar      1 <1>         0.827000 
      3 N          11.845000    2.012000   11.454000 N.ar      1 <1>        -0.679200 
      4 C          12.716000    2.941000   11.864000 C.ar      1 <1>         0.581500 
      5 C          12.580000    3.813000   12.931000 C.ar      1 <1>        -0.701400 
      6 C          11.382000    3.713000   13.641000 C.ar      1 <1>         0.824300 
      7 N          11.049000    4.511000   14.707000 N.pl3     1 <1>        -0.789900 
      8 H          11.613000    5.305000   14.980000 H         1 <1>         0.339400 
      9 H          10.140000    4.397000   15.141000 H         1 <1>         0.334700 
     10 C          13.786000    4.582000   12.978000 C.ar      1 <1>         0.126800 
     11 C          14.548000    4.134000   11.916000 C.ar      1 <1>        -0.128300 
     12 H          15.525000    4.407000   11.536000 H         1 <1>         0.216500 
     13 O          13.911000    3.143000   11.242000 O.3       1 <1>        -0.158300 
     14 C          14.171000    5.635000   13.965000 C.3       1 <1>         0.067800 
     15 H          14.443000    5.140000   14.907000 H         1 <1>         0.065300 
     16 H          13.285000    6.245000   14.178000 H         1 <1>         0.076700 
     17 N          15.268000    6.494000   13.549000 N.pl3     1 <1>        -0.662800 
     18 H          15.992000    6.674000   14.242000 H         1 <1>         0.335500 
     19 C          15.309000    7.185000   12.354000 C.ar      1 <1>         0.325000 
     20 C          16.560000    7.550000   11.827000 C.ar      1 <1>        -0.263800 
     21 H          17.471000    7.287000   12.363000 H         1 <1>         0.139300 
     22 C          16.667000    8.266000   10.612000 C.ar      1 <1>        -0.066300 
     23 C          15.500000    8.602000    9.928000 C.ar      1 <1>         0.204600 
     24 C          14.236000    8.241000   10.416000 C.ar      1 <1>        -0.184200 
     25 H          13.324000    8.493000    9.882000 H         1 <1>         0.146400 
     26 C          14.168000    7.536000   11.628000 C.ar      1 <1>        -0.220400 
     27 H          13.177000    7.269000   11.989000 H         1 <1>         0.122400 
     28 N          15.879000    9.290000    8.790000 N.pl3     1 <1>        -0.467000 
     29 C          17.256000    9.401000    8.723000 C.ar      1 <1>         0.280300 
     30 C          17.772000    8.768000    9.855000 C.ar      1 <1>        -0.087000 
     31 C          19.172000    8.736000   10.036000 C.ar      1 <1>        -0.061800 
     32 H          19.603000    8.251000   10.909000 H         1 <1>         0.117500 
     33 C          20.008000    9.332000    9.085000 C.ar      1 <1>        -0.181500 
     34 H          21.087000    9.305000    9.226000 H         1 <1>         0.110000 
     35 C          19.471000    9.955000    7.964000 C.ar      1 <1>        -0.034500 
     36 H          20.134000   10.415000    7.232000 H         1 <1>         0.096100 
     37 C          18.088000   10.001000    7.762000 C.ar      1 <1>        -0.269200 
     38 H          17.681000   10.491000    6.880000 H         1 <1>         0.145900 
     39 C          14.959000    9.827000    7.795000 C.3       1 <1>         0.268900 
     40 H          15.382000   10.761000    7.411000 H         1 <1>         0.006400 
     41 H          14.023000   10.088000    8.300000 H         1 <1>         0.006000 
     42 C          14.703000    8.844000    6.666000 C.3       1 <1>        -0.131800 
     43 H          14.007000    9.275000    5.940000 H         1 <1>         0.024900 
     44 H          14.271000    7.912000    7.044000 H         1 <1>         0.043500 
     45 H          15.631000    8.592000    6.140000 H         1 <1>         0.043800 
     46 N           9.803000    1.050000   11.889000 N.pl3     1 <1>        -0.825400 
     47 H           9.963000    0.415000   11.120000 H         1 <1>         0.382100 
     48 H           8.965000    0.979000   12.445000 H         1 <1>         0.378500 
@<TRIPOS>BOND
     1    1    2 ar   
     2    2    3 ar   
     3    3    4 ar   
     4    4    5 ar   
     5    5    6 ar   
     6    6    1 ar   
     7    6    7 1    
     8    7    8 1    
     9    7    9 1    
    10    5   10 ar   
    11   10   11 ar   
    12   11   12 1    
    13   11   13 ar   
    14   13    4 ar   
    15   10   14 1    
    16   14   15 1    
    17   14   16 1    
    18   14   17 1    
    19   17   18 1    
    20   17   19 1    
    21   19   20 ar   
    22   20   21 1    
    23   20   22 ar   
    24   22   23 ar   
    25   23   24 ar   
    26   24   25 1    
    27   24   26 ar   
    28   26   27 1    
    29   26   19 ar   
    30   23   28 ar   
    31   28   29 ar   
    32   29   30 ar   
    33   30   22 ar   
    34   30   31 ar   
    35   31   32 1    
    36   31   33 ar   
    37   33   34 1    
    38   33   35 ar   
    39   35   36 1    
    40   35   37 ar   
    41   37   38 1    
    42   37   29 ar   
    43   28   39 1    
    44   39   40 1    
    45   39   41 1    
    46   39   42 1    
    47   42   43 1    
    48   42   44 1    
    49   42   45 1    
    50    2   46 1    
    51   46   47 1    
    52   46   48 1    
@<TRIPOS>SUBSTRUCTURE
     1 ****        1 TEMP              0 ****  ****    0 ROOT 
@<TRIPOS>SET
UNITY_3DHIT     STATIC     ATOMS    <user>   **** Atoms matching 3D or FLEX Search
0
