#	Name:			41-5a
#	Creating user name:	jeff
#	Creation time:		Thu Dec  4 18:13:49 2003

#	Modifying user name:	jeff
#	Modification time:	Thu Dec  4 18:13:49 2003

@<TRIPOS>MOLECULE
41-5a
   48    52     1     0     1
SMALL
USER_CHARGES
****
From 3DB ct
@<TRIPOS>ATOM
      1 N          10.460000    2.744000   13.236000 N.ar      1 <1>        -0.708000 
      2 C          10.748000    1.950000   12.193000 C.ar      1 <1>         0.825400 
      3 N          11.863000    1.987000   11.466000 N.ar      1 <1>        -0.686100 
      4 C          12.712000    2.932000   11.884000 C.ar      1 <1>         0.598900 
      5 C          12.544000    3.813000   12.941000 C.ar      1 <1>        -0.684600 
      6 C          11.341000    3.687000   13.639000 C.ar      1 <1>         0.765000 
      7 N          10.984000    4.460000   14.713000 N.pl3     1 <1>        -0.724000 
      8 H          11.617000    5.126000   15.140000 H         1 <1>         0.341300 
      9 H          10.098000    4.284000   15.169000 H         1 <1>         0.317100 
     10 C          13.721000    4.627000   12.976000 C.ar      1 <1>         0.094700 
     11 C          14.509000    4.175000   11.933000 C.ar      1 <1>        -0.113400 
     12 H          15.480000    4.470000   11.555000 H         1 <1>         0.207600 
     13 O          13.909000    3.152000   11.275000 O.3       1 <1>        -0.169800 
     14 C          14.057000    5.748000   13.909000 C.3       1 <1>         0.095900 
     15 H          14.086000    5.336000   14.926000 H         1 <1>         0.041100 
     16 H          13.215000    6.456000   13.906000 H         1 <1>         0.044700 
     17 N          15.298000    6.507000   13.638000 N.pl3     1 <1>        -0.335400 
     18 C          15.287000    7.162000   12.391000 C.ar      1 <1>         0.228700 
     19 C          16.486000    7.534000   11.756000 C.ar      1 <1>        -0.313800 
     20 H          17.458000    7.349000   12.200000 H         1 <1>         0.162400 
     21 C          16.397000    8.130000   10.496000 C.ar      1 <1>         0.206200 
     22 C          15.204000    8.377000    9.828000 C.ar      1 <1>        -0.203100 
     23 C          14.001000    8.015000   10.456000 C.ar      1 <1>        -0.095200 
     24 H          13.045000    8.187000    9.971000 H         1 <1>         0.150600 
     25 C          14.065000    7.433000   11.734000 C.ar      1 <1>         0.053400 
     26 O          12.874000    7.093000   12.336000 O.3       1 <1>        -0.241000 
     27 C          11.786000    7.454000   11.474000 C.3       1 <1>        -0.055000 
     28 H          10.855000    7.173000   11.975000 H         1 <1>         0.083500 
     29 H          11.834000    6.911000   10.524000 H         1 <1>         0.068400 
     30 H          11.765000    8.535000   11.298000 H         1 <1>         0.047300 
     31 C          15.566000    8.978000    8.587000 C.ar      1 <1>        -0.021500 
     32 C          16.955000    9.053000    8.590000 C.ar      1 <1>         0.197300 
     33 O          17.458000    8.539000    9.746000 O.3       1 <1>        -0.184700 
     34 C          17.710000    9.583000    7.546000 C.ar      1 <1>        -0.233600 
     35 H          18.793000    9.621000    7.590000 H         1 <1>         0.146600 
     36 C          16.999000   10.060000    6.440000 C.ar      1 <1>        -0.046300 
     37 H          17.544000   10.483000    5.596000 H         1 <1>         0.103400 
     38 C          15.604000   10.002000    6.397000 C.ar      1 <1>        -0.159800 
     39 H          15.076000   10.381000    5.522000 H         1 <1>         0.116000 
     40 C          14.870000    9.464000    7.464000 C.ar      1 <1>        -0.092100 
     41 H          13.784000    9.425000    7.418000 H         1 <1>         0.122500 
     42 C          16.564000    5.899000   14.048000 C.3       1 <1>        -0.069200 
     43 H          17.410000    6.556000   13.816000 H         1 <1>         0.077900 
     44 H          16.721000    4.931000   13.559000 H         1 <1>         0.038700 
     45 H          16.581000    5.742000   15.131000 H         1 <1>         0.068800 
     46 N           9.810000    1.023000   11.849000 N.pl3     1 <1>        -0.828900 
     47 H           9.980000    0.401000   11.072000 H         1 <1>         0.384400 
     48 H           8.952000    0.964000   12.377000 H         1 <1>         0.377700 
@<TRIPOS>BOND
     1    1    2 ar   
     2    2    3 ar   
     3    3    4 ar   
     4    4    5 ar   
     5    5    6 ar   
     6    6    1 ar   
     7    6    7 1    
     8    7    8 1    
     9    7    9 1    
    10    5   10 ar   
    11   10   11 ar   
    12   11   12 1    
    13   11   13 ar   
    14   13    4 ar   
    15   10   14 1    
    16   14   15 1    
    17   14   16 1    
    18   14   17 1    
    19   17   18 1    
    20   18   19 ar   
    21   19   20 1    
    22   19   21 ar   
    23   21   22 ar   
    24   22   23 ar   
    25   23   24 1    
    26   23   25 ar   
    27   25   18 ar   
    28   25   26 1    
    29   26   27 1    
    30   27   28 1    
    31   27   29 1    
    32   27   30 1    
    33   22   31 ar   
    34   31   32 ar   
    35   32   33 ar   
    36   33   21 ar   
    37   32   34 ar   
    38   34   35 1    
    39   34   36 ar   
    40   36   37 1    
    41   36   38 ar   
    42   38   39 1    
    43   38   40 ar   
    44   40   41 1    
    45   40   31 ar   
    46   17   42 1    
    47   42   43 1    
    48   42   44 1    
    49   42   45 1    
    50    2   46 1    
    51   46   47 1    
    52   46   48 1    
@<TRIPOS>SUBSTRUCTURE
     1 ****        1 TEMP              0 ****  ****    0 ROOT 
@<TRIPOS>SET
UNITY_3DHIT     STATIC     ATOMS    <user>   **** Atoms matching 3D or FLEX Search
0
