#	Name:			41-5b
#	Creating user name:	jeff
#	Creation time:		Thu Dec  4 18:13:49 2003

#	Modifying user name:	jeff
#	Modification time:	Thu Dec  4 18:13:49 2003

@<TRIPOS>MOLECULE
41-5b
   51    55     1     0     1
SMALL
USER_CHARGES
****
From 3DB ct
@<TRIPOS>ATOM
      1 N          10.475000    2.773000   13.253000 N.ar      1 <1>        -0.717700 
      2 C          10.725000    1.993000   12.189000 C.ar      1 <1>         0.822100 
      3 N          11.834000    2.005000   11.450000 N.ar      1 <1>        -0.675500 
      4 C          12.719000    2.913000   11.876000 C.ar      1 <1>         0.583400 
      5 C          12.588000    3.777000   12.950000 C.ar      1 <1>        -0.687800 
      6 C          11.394000    3.674000   13.665000 C.ar      1 <1>         0.801900 
      7 N          11.099000    4.430000   14.771000 N.pl3     1 <1>        -0.758600 
      8 H          11.807000    5.016000   15.203000 H         1 <1>         0.334900 
      9 H          10.232000    4.270000   15.267000 H         1 <1>         0.326200 
     10 C          13.787000    4.557000   12.991000 C.ar      1 <1>         0.127800 
     11 C          14.557000    4.098000   11.939000 C.ar      1 <1>        -0.119900 
     12 H          15.534000    4.370000   11.557000 H         1 <1>         0.219500 
     13 O          13.921000    3.105000   11.265000 O.3       1 <1>        -0.166900 
     14 C          14.141000    5.661000   13.941000 C.3       1 <1>        -0.049600 
     15 H          14.361000    5.159000   14.893000 H         1 <1>         0.082100 
     16 H          13.255000    6.286000   14.114000 H         1 <1>         0.086300 
     17 N          15.262000    6.549000   13.578000 N.pl3     1 <1>        -0.334200 
     18 C          15.291000    7.226000   12.360000 C.ar      1 <1>         0.208600 
     19 C          16.490000    7.699000   11.795000 C.ar      1 <1>        -0.167600 
     20 H          17.438000    7.575000   12.311000 H         1 <1>         0.133300 
     21 C          16.514000    8.386000   10.556000 C.ar      1 <1>        -0.148400 
     22 C          15.313000    8.589000    9.879000 C.ar      1 <1>         0.269000 
     23 C          14.096000    8.136000   10.401000 C.ar      1 <1>        -0.196900 
     24 H          13.155000    8.290000    9.879000 H         1 <1>         0.145400 
     25 C          14.115000    7.463000   11.633000 C.ar      1 <1>        -0.219000 
     26 H          13.156000    7.103000   12.007000 H         1 <1>         0.138000 
     27 N          15.612000    9.268000    8.713000 N.pl3     1 <1>        -0.495500 
     28 C          16.969000    9.526000    8.633000 C.ar      1 <1>         0.278800 
     29 C          17.556000    8.976000    9.775000 C.ar      1 <1>        -0.056200 
     30 C          18.953000    9.093000    9.945000 C.ar      1 <1>        -0.073900 
     31 H          19.438000    8.674000   10.824000 H         1 <1>         0.115800 
     32 C          19.715000    9.756000    8.978000 C.ar      1 <1>        -0.172600 
     33 H          20.792000    9.847000    9.111000 H         1 <1>         0.110400 
     34 C          19.108000   10.301000    7.852000 C.ar      1 <1>        -0.055100 
     35 H          19.715000   10.817000    7.109000 H         1 <1>         0.101900 
     36 C          17.728000   10.197000    7.659000 C.ar      1 <1>        -0.258500 
     37 H          17.266000   10.630000    6.775000 H         1 <1>         0.144100 
     38 C          14.634000    9.649000    7.702000 C.3       1 <1>         0.295400 
     39 H          13.850000    8.884000    7.683000 H         1 <1>        -0.000900 
     40 H          15.126000    9.620000    6.724000 H         1 <1>         0.000200 
     41 C          14.039000   11.022000    7.963000 C.3       1 <1>        -0.137800 
     42 H          13.304000   11.269000    7.190000 H         1 <1>         0.025300 
     43 H          14.813000   11.796000    7.959000 H         1 <1>         0.044900 
     44 H          13.536000   11.058000    8.935000 H         1 <1>         0.042500 
     45 C          16.486000    6.486000   14.381000 C.3       1 <1>        -0.029000 
     46 H          16.609000    7.405000   14.963000 H         1 <1>         0.052200 
     47 H          17.370000    6.340000   13.749000 H         1 <1>         0.034300 
     48 H          16.472000    5.646000   15.083000 H         1 <1>         0.061100 
     49 N           9.754000    1.104000   11.838000 N.pl3     1 <1>        -0.824700 
     50 H           9.898000    0.488000   11.051000 H         1 <1>         0.381900 
     51 H           8.902000    1.058000   12.378000 H         1 <1>         0.378700 
@<TRIPOS>BOND
     1    1    2 ar   
     2    2    3 ar   
     3    3    4 ar   
     4    4    5 ar   
     5    5    6 ar   
     6    6    1 ar   
     7    6    7 1    
     8    7    8 1    
     9    7    9 1    
    10    5   10 ar   
    11   10   11 ar   
    12   11   12 1    
    13   11   13 ar   
    14   13    4 ar   
    15   10   14 1    
    16   14   15 1    
    17   14   16 1    
    18   14   17 1    
    19   17   18 1    
    20   18   19 ar   
    21   19   20 1    
    22   19   21 ar   
    23   21   22 ar   
    24   22   23 ar   
    25   23   24 1    
    26   23   25 ar   
    27   25   26 1    
    28   25   18 ar   
    29   22   27 ar   
    30   27   28 ar   
    31   28   29 ar   
    32   29   21 ar   
    33   29   30 ar   
    34   30   31 1    
    35   30   32 ar   
    36   32   33 1    
    37   32   34 ar   
    38   34   35 1    
    39   34   36 ar   
    40   36   37 1    
    41   36   28 ar   
    42   27   38 1    
    43   38   39 1    
    44   38   40 1    
    45   38   41 1    
    46   41   42 1    
    47   41   43 1    
    48   41   44 1    
    49   17   45 1    
    50   45   46 1    
    51   45   47 1    
    52   45   48 1    
    53    2   49 1    
    54   49   50 1    
    55   49   51 1    
@<TRIPOS>SUBSTRUCTURE
     1 ****        1 TEMP              0 ****  ****    0 ROOT 
@<TRIPOS>SET
UNITY_3DHIT     STATIC     ATOMS    <user>   **** Atoms matching 3D or FLEX Search
0
