#	Name:			41-7c
#	Creating user name:	jeff
#	Creation time:		Thu Dec  4 18:13:49 2003

#	Modifying user name:	jeff
#	Modification time:	Thu Dec  4 18:13:49 2003

@<TRIPOS>MOLECULE
41-7c
   41    44     1     0     1
SMALL
USER_CHARGES
****
From 3DB ct
@<TRIPOS>ATOM
      1 N          10.423000    2.696000   13.216000 N.ar      1 <1>        -0.699400 
      2 C          10.741000    1.925000   12.164000 C.ar      1 <1>         0.817200 
      3 N          11.871000    1.987000   11.463000 N.ar      1 <1>        -0.670700 
      4 C          12.699000    2.935000   11.913000 C.ar      1 <1>         0.551900 
      5 C          12.496000    3.799000   12.977000 C.ar      1 <1>        -0.600800 
      6 C          11.284000    3.642000   13.655000 C.ar      1 <1>         0.734800 
      7 N          10.899000    4.385000   14.741000 N.pl3     1 <1>        -0.700600 
      8 H          11.508000    5.057000   15.187000 H         1 <1>         0.312800 
      9 H          10.009000    4.183000   15.180000 H         1 <1>         0.310900 
     10 C          13.662000    4.631000   13.048000 C.ar      1 <1>         0.049400 
     11 C          14.482000    4.197000   12.024000 C.ar      1 <1>        -0.072800 
     12 H          15.459000    4.508000   11.673000 H         1 <1>         0.187400 
     13 O          13.909000    3.178000   11.337000 O.3       1 <1>        -0.155400 
     14 C          13.949000    5.749000   13.990000 C.3       1 <1>        -0.149500 
     15 H          13.789000    5.421000   15.022000 H         1 <1>         0.114400 
     16 H          13.266000    6.583000   13.798000 H         1 <1>         0.082500 
     17 S          15.671000    6.330000   13.781000 S.3       1 <1>        -0.074100 
     18 C          15.523000    7.226000   12.245000 C.ar      1 <1>        -0.069900 
     19 C          16.633000    7.724000   11.562000 C.ar      1 <1>        -0.014300 
     20 H          17.640000    7.581000   11.947000 H         1 <1>         0.101200 
     21 C          16.471000    8.431000   10.363000 C.ar      1 <1>        -0.182700 
     22 H          17.364000    8.791000    9.852000 H         1 <1>         0.122600 
     23 C          15.198000    8.669000    9.819000 C.ar      1 <1>         0.035600 
     24 C          14.090000    8.175000   10.527000 C.ar      1 <1>        -0.132300 
     25 H          13.079000    8.346000   10.158000 H         1 <1>         0.110100 
     26 C          14.249000    7.467000   11.726000 C.ar      1 <1>        -0.077700 
     27 H          13.361000    7.105000   12.242000 H         1 <1>         0.114100 
     28 C          15.031000    9.413000    8.555000 C.ar      1 <1>         0.024000 
     29 C          15.729000   10.610000    8.316000 C.ar      1 <1>        -0.111500 
     30 H          16.400000   11.017000    9.072000 H         1 <1>         0.107600 
     31 C          15.572000   11.315000    7.118000 C.ar      1 <1>        -0.113100 
     32 H          16.120000   12.241000    6.957000 H         1 <1>         0.102500 
     33 C          14.711000   10.835000    6.135000 C.ar      1 <1>        -0.073700 
     34 H          14.587000   11.384000    5.202000 H         1 <1>         0.096800 
     35 C          14.009000    9.652000    6.347000 C.ar      1 <1>        -0.132100 
     36 H          13.336000    9.273000    5.580000 H         1 <1>         0.108900 
     37 C          14.168000    8.949000    7.545000 C.ar      1 <1>        -0.103100 
     38 H          13.613000    8.021000    7.679000 H         1 <1>         0.111700 
     39 N           9.819000    0.998000   11.779000 N.pl3     1 <1>        -0.821000 
     40 H          10.007000    0.401000   10.988000 H         1 <1>         0.381900 
     41 H           8.948000    0.923000   12.284000 H         1 <1>         0.376200 
@<TRIPOS>BOND
     1    1    2 ar   
     2    2    3 ar   
     3    3    4 ar   
     4    4    5 ar   
     5    5    6 ar   
     6    6    1 ar   
     7    6    7 1    
     8    7    8 1    
     9    7    9 1    
    10    5   10 ar   
    11   10   11 ar   
    12   11   12 1    
    13   11   13 ar   
    14   13    4 ar   
    15   10   14 1    
    16   14   15 1    
    17   14   16 1    
    18   14   17 1    
    19   17   18 1    
    20   18   19 ar   
    21   19   20 1    
    22   19   21 ar   
    23   21   22 1    
    24   21   23 ar   
    25   23   24 ar   
    26   24   25 1    
    27   24   26 ar   
    28   26   27 1    
    29   26   18 ar   
    30   23   28 1    
    31   28   29 ar   
    32   29   30 1    
    33   29   31 ar   
    34   31   32 1    
    35   31   33 ar   
    36   33   34 1    
    37   33   35 ar   
    38   35   36 1    
    39   35   37 ar   
    40   37   38 1    
    41   37   28 ar   
    42    2   39 1    
    43   39   40 1    
    44   39   41 1    
@<TRIPOS>SUBSTRUCTURE
     1 ****        1 TEMP              0 ****  ****    0 ROOT 
@<TRIPOS>SET
UNITY_3DHIT     STATIC     ATOMS    <user>   **** Atoms matching 3D or FLEX Search
0
