#	Name:			41-7a
#	Creating user name:	jeff
#	Creation time:		Thu Dec  4 18:13:49 2003

#	Modifying user name:	jeff
#	Modification time:	Thu Dec  4 18:13:49 2003

@<TRIPOS>MOLECULE
41-7a
   41    44     1     0     1
SMALL
USER_CHARGES
****
From 3DB ct
@<TRIPOS>ATOM
      1 N          10.425000    2.694000   13.219000 N.ar      1 <1>        -0.706500 
      2 C          10.746000    1.916000   12.173000 C.ar      1 <1>         0.813000 
      3 N          11.877000    1.975000   11.473000 N.ar      1 <1>        -0.666500 
      4 C          12.699000    2.933000   11.912000 C.ar      1 <1>         0.549800 
      5 C          12.489000    3.810000   12.965000 C.ar      1 <1>        -0.616600 
      6 C          11.280000    3.650000   13.647000 C.ar      1 <1>         0.763400 
      7 N          10.893000    4.396000   14.731000 N.pl3     1 <1>        -0.728100 
      8 H          11.498000    5.072000   15.176000 H         1 <1>         0.318600 
      9 H          10.005000    4.191000   15.173000 H         1 <1>         0.319000 
     10 C          13.644000    4.655000   13.018000 C.ar      1 <1>         0.072100 
     11 C          14.471000    4.211000   12.003000 C.ar      1 <1>        -0.054100 
     12 H          15.446000    4.526000   11.650000 H         1 <1>         0.183800 
     13 O          13.908000    3.175000   11.334000 O.3       1 <1>        -0.161200 
     14 C          13.925000    5.792000   13.936000 C.3       1 <1>        -0.260200 
     15 H          13.710000    5.516000   14.973000 H         1 <1>         0.147100 
     16 H          13.269000    6.631000   13.686000 H         1 <1>         0.118500 
     17 S          15.671000    6.305000   13.789000 S.3       1 <1>        -0.052800 
     18 C          15.556000    7.232000   12.255000 C.ar      1 <1>        -0.094500 
     19 C          16.682000    7.737000   11.562000 C.ar      1 <1>         0.068700 
     20 C          16.462000    8.436000   10.358000 C.ar      1 <1>        -0.196600 
     21 H          17.308000    8.838000    9.799000 H         1 <1>         0.122800 
     22 C          15.174000    8.640000    9.859000 C.ar      1 <1>        -0.037200 
     23 H          15.032000    9.185000    8.928000 H         1 <1>         0.098400 
     24 C          14.076000    8.149000   10.555000 C.ar      1 <1>        -0.150600 
     25 H          13.070000    8.309000   10.171000 H         1 <1>         0.113600 
     26 C          14.265000    7.451000   11.748000 C.ar      1 <1>        -0.053300 
     27 H          13.390000    7.075000   12.276000 H         1 <1>         0.111700 
     28 C          18.068000    7.569000   12.033000 C.ar      1 <1>         0.074500 
     29 C          18.957000    6.718000   11.354000 C.ar      1 <1>        -0.153200 
     30 H          18.624000    6.169000   10.473000 H         1 <1>         0.122400 
     31 C          20.270000    6.548000   11.799000 C.ar      1 <1>        -0.105600 
     32 H          20.943000    5.879000   11.265000 H         1 <1>         0.104700 
     33 C          20.719000    7.235000   12.925000 C.ar      1 <1>        -0.102300 
     34 H          21.742000    7.103000   13.272000 H         1 <1>         0.102900 
     35 C          19.857000    8.093000   13.604000 C.ar      1 <1>        -0.096100 
     36 H          20.207000    8.634000   14.481000 H         1 <1>         0.102600 
     37 C          18.543000    8.261000   13.160000 C.ar      1 <1>        -0.122400 
     38 H          17.885000    8.938000   13.703000 H         1 <1>         0.111200 
     39 N           9.828000    0.983000   11.795000 N.pl3     1 <1>        -0.817500 
     40 H          10.014000    0.386000   11.003000 H         1 <1>         0.380300 
     41 H           8.949000    0.922000   12.289000 H         1 <1>         0.376400 
@<TRIPOS>BOND
     1    1    2 ar   
     2    2    3 ar   
     3    3    4 ar   
     4    4    5 ar   
     5    5    6 ar   
     6    6    1 ar   
     7    6    7 1    
     8    7    8 1    
     9    7    9 1    
    10    5   10 ar   
    11   10   11 ar   
    12   11   12 1    
    13   11   13 ar   
    14   13    4 ar   
    15   10   14 1    
    16   14   15 1    
    17   14   16 1    
    18   14   17 1    
    19   17   18 1    
    20   18   19 ar   
    21   19   20 ar   
    22   20   21 1    
    23   20   22 ar   
    24   22   23 1    
    25   22   24 ar   
    26   24   25 1    
    27   24   26 ar   
    28   26   27 1    
    29   26   18 ar   
    30   19   28 1    
    31   28   29 ar   
    32   29   30 1    
    33   29   31 ar   
    34   31   32 1    
    35   31   33 ar   
    36   33   34 1    
    37   33   35 ar   
    38   35   36 1    
    39   35   37 ar   
    40   37   38 1    
    41   37   28 ar   
    42    2   39 1    
    43   39   40 1    
    44   39   41 1    
@<TRIPOS>SUBSTRUCTURE
     1 ****        1 TEMP              0 ****  ****    0 ROOT 
@<TRIPOS>SET
UNITY_3DHIT     STATIC     ATOMS    <user>   **** Atoms matching 3D or FLEX Search
0
