#	Name:			41-7b
#	Creating user name:	jeff
#	Creation time:		Thu Dec  4 18:13:49 2003

#	Modifying user name:	jeff
#	Modification time:	Thu Dec  4 18:13:49 2003

@<TRIPOS>MOLECULE
41-7b
   41    44     1     0     1
SMALL
USER_CHARGES
****
From 3DB ct
@<TRIPOS>ATOM
      1 N          10.439000    2.717000   13.225000 N.ar      1 <1>        -0.723400 
      2 C          10.736000    1.931000   12.180000 C.ar      1 <1>         0.817700 
      3 N          11.853000    1.980000   11.456000 N.ar      1 <1>        -0.664300 
      4 C          12.697000    2.922000   11.887000 C.ar      1 <1>         0.540900 
      5 C          12.524000    3.792000   12.951000 C.ar      1 <1>        -0.660000 
      6 C          11.311000    3.666000   13.636000 C.ar      1 <1>         0.829000 
      7 N          10.930000    4.444000   14.699000 N.pl3     1 <1>        -0.808800 
      8 H          11.485000    5.205000   15.061000 H         1 <1>         0.350900 
      9 H          10.022000    4.280000   15.119000 H         1 <1>         0.339800 
     10 C          13.712000    4.600000   13.017000 C.ar      1 <1>         0.133400 
     11 C          14.494000    4.165000   11.962000 C.ar      1 <1>        -0.053500 
     12 H          15.464000    4.461000   11.581000 H         1 <1>         0.177900 
     13 O          13.896000    3.152000   11.287000 O.3       1 <1>        -0.156400 
     14 C          13.990000    5.684000   14.010000 C.3       1 <1>        -0.356600 
     15 H          13.911000    5.270000   15.020000 H         1 <1>         0.183200 
     16 H          13.235000    6.470000   13.898000 H         1 <1>         0.131400 
     17 S          15.651000    6.433000   13.848000 S.3       1 <1>        -0.028100 
     18 C          15.456000    7.267000   12.282000 C.ar      1 <1>        -0.121000 
     19 C          16.596000    7.722000   11.604000 C.ar      1 <1>         0.045600 
     20 H          17.580000    7.537000   12.035000 H         1 <1>         0.091000 
     21 C          16.499000    8.393000   10.371000 C.ar      1 <1>        -0.138600 
     22 C          15.215000    8.604000    9.840000 C.ar      1 <1>        -0.007200 
     23 H          15.091000    9.129000    8.893000 H         1 <1>         0.090000 
     24 C          14.074000    8.167000   10.515000 C.ar      1 <1>        -0.164100 
     25 H          13.088000    8.351000   10.090000 H         1 <1>         0.114800 
     26 C          14.194000    7.504000   11.735000 C.ar      1 <1>        -0.068600 
     27 H          13.290000    7.186000   12.251000 H         1 <1>         0.118600 
     28 C          17.704000    8.861000    9.659000 C.ar      1 <1>         0.050600 
     29 C          18.711000    9.580000   10.327000 C.ar      1 <1>        -0.095400 
     30 H          18.610000    9.815000   11.386000 H         1 <1>         0.104900 
     31 C          19.854000   10.022000    9.653000 C.ar      1 <1>        -0.137500 
     32 H          20.619000   10.579000   10.191000 H         1 <1>         0.110700 
     33 C          20.012000    9.752000    8.297000 C.ar      1 <1>        -0.066400 
     34 H          20.901000   10.096000    7.771000 H         1 <1>         0.097000 
     35 C          19.029000    9.042000    7.614000 C.ar      1 <1>        -0.135400 
     36 H          19.149000    8.827000    6.554000 H         1 <1>         0.109100 
     37 C          17.887000    8.601000    8.290000 C.ar      1 <1>        -0.094700 
     38 H          17.138000    8.039000    7.732000 H         1 <1>         0.104700 
     39 N           9.806000    1.000000   11.827000 N.pl3     1 <1>        -0.819600 
     40 H           9.980000    0.385000   11.046000 H         1 <1>         0.379800 
     41 H           8.945000    0.934000   12.350000 H         1 <1>         0.378300 
@<TRIPOS>BOND
     1    1    2 ar   
     2    2    3 ar   
     3    3    4 ar   
     4    4    5 ar   
     5    5    6 ar   
     6    6    1 ar   
     7    6    7 1    
     8    7    8 1    
     9    7    9 1    
    10    5   10 ar   
    11   10   11 ar   
    12   11   12 1    
    13   11   13 ar   
    14   13    4 ar   
    15   10   14 1    
    16   14   15 1    
    17   14   16 1    
    18   14   17 1    
    19   17   18 1    
    20   18   19 ar   
    21   19   20 1    
    22   19   21 ar   
    23   21   22 ar   
    24   22   23 1    
    25   22   24 ar   
    26   24   25 1    
    27   24   26 ar   
    28   26   27 1    
    29   26   18 ar   
    30   21   28 1    
    31   28   29 ar   
    32   29   30 1    
    33   29   31 ar   
    34   31   32 1    
    35   31   33 ar   
    36   33   34 1    
    37   33   35 ar   
    38   35   36 1    
    39   35   37 ar   
    40   37   38 1    
    41   37   28 ar   
    42    2   39 1    
    43   39   40 1    
    44   39   41 1    
@<TRIPOS>SUBSTRUCTURE
     1 ****        1 TEMP              0 ****  ****    0 ROOT 
@<TRIPOS>SET
UNITY_3DHIT     STATIC     ATOMS    <user>   **** Atoms matching 3D or FLEX Search
0
