#	Name:			42-10
#	Creating user name:	jeff
#	Creation time:		Thu Dec  4 18:13:49 2003

#	Modifying user name:	jeff
#	Modification time:	Thu Dec  4 18:13:49 2003

@<TRIPOS>MOLECULE
42-10
   33    35     1     0     1
SMALL
USER_CHARGES
****
From 3DB ct
@<TRIPOS>ATOM
      1 N          12.007000    1.940000   11.679000 N.pl3     1 <1>        -0.783100 
      2 H          12.162000    1.113000   11.124000 H         1 <1>         0.348200 
      3 C          10.734000    2.202000   12.143000 C.2       1 <1>         0.879400 
      4 N          10.436000    3.247000   12.868000 N.2       1 <1>        -0.631700 
      5 C          11.491000    4.054000   13.126000 C.ar      1 <1>         0.411000 
      6 C          12.799000    3.898000   12.721000 C.ar      1 <1>        -0.511700 
      7 C          13.113000    2.738000   11.919000 C.2       1 <1>         0.803200 
      8 O          14.232000    2.470000   11.486000 O.2       1 <1>        -0.476400 
      9 C          13.533000    4.994000   13.231000 C.ar      1 <1>        -0.012300 
     10 C          12.653000    5.785000   13.956000 C.ar      1 <1>         0.065200 
     11 N          11.405000    5.199000   13.867000 N.pl3     1 <1>        -0.378600 
     12 H          10.554000    5.549000   14.292000 H         1 <1>         0.357100 
     13 C          12.850000    7.042000   14.728000 C.3       1 <1>        -0.162600 
     14 H          13.796000    7.020000   15.277000 H         1 <1>         0.062700 
     15 H          12.048000    7.189000   15.458000 H         1 <1>         0.076000 
     16 H          12.857000    7.904000   14.053000 H         1 <1>         0.056100 
     17 S          15.249000    5.259000   13.008000 S.3       1 <1>         0.062100 
     18 C          15.293000    6.763000   12.049000 C.ar      1 <1>        -0.054900 
     19 C          14.130000    7.504000   11.802000 C.ar      1 <1>        -0.047000 
     20 H          13.170000    7.179000   12.200000 H         1 <1>         0.105600 
     21 C          14.182000    8.676000   11.039000 C.ar      1 <1>        -0.158100 
     22 H          13.264000    9.233000   10.867000 H         1 <1>         0.162600 
     23 C          15.407000    9.105000   10.512000 C.ar      1 <1>         0.058400 
     24 C          16.573000    8.366000   10.744000 C.ar      1 <1>        -0.180900 
     25 H          17.534000    8.680000   10.341000 H         1 <1>         0.165300 
     26 C          16.510000    7.196000   11.509000 C.ar      1 <1>        -0.015300 
     27 H          17.424000    6.629000   11.680000 H         1 <1>         0.104700 
     28 N          15.467000   10.334000    9.710000 N.2       1 <1>         0.549200 
     29 O          16.573000   10.695000    9.264000 O.2       1 <1>        -0.373400 
     30 O          14.410000   10.962000    9.509000 O.3       1 <1>        -0.377100 
     31 N           9.783000    1.307000   11.805000 N.pl3     1 <1>        -0.883100 
     32 H           8.825000    1.437000   12.112000 H         1 <1>         0.383900 
     33 H           9.967000    0.482000   11.246000 H         1 <1>         0.395400 
@<TRIPOS>BOND
     1    2    1 1    
     2    1    3 1    
     3    3    4 2    
     4    4    5 1    
     5    5    6 ar   
     6    6    7 1    
     7    7    1 1    
     8    7    8 2    
     9    6    9 ar   
    10    9   10 ar   
    11   10   11 ar   
    12   11   12 1    
    13   11    5 ar   
    14   10   13 1    
    15   13   14 1    
    16   13   15 1    
    17   13   16 1    
    18    9   17 1    
    19   17   18 1    
    20   18   19 ar   
    21   19   20 1    
    22   19   21 ar   
    23   21   22 1    
    24   21   23 ar   
    25   23   24 ar   
    26   24   25 1    
    27   24   26 ar   
    28   26   27 1    
    29   26   18 ar   
    30   23   28 1    
    31   28   29 2    
    32   28   30 1    
    33    3   31 1    
    34   31   32 1    
    35   31   33 1    
@<TRIPOS>SUBSTRUCTURE
     1 ****        2 TEMP              0 ****  ****    0 ROOT 
@<TRIPOS>SET
UNITY_3DHIT     STATIC     ATOMS    <user>   **** Atoms matching 3D or FLEX Search
0
@<TRIPOS>UNITY_ATOM_ATTR
28 1
AtomExpr +1
30 1
AtomExpr -1
@<TRIPOS>UNITY_BOND_ATTR
3 1
S I
