#	Name:			42-11
#	Creating user name:	jeff
#	Creation time:		Thu Dec  4 18:13:49 2003

#	Modifying user name:	jeff
#	Modification time:	Thu Dec  4 18:13:49 2003

@<TRIPOS>MOLECULE
42-11
   39    41     1     0     1
SMALL
USER_CHARGES
****
From 3DB ct
@<TRIPOS>ATOM
      1 N          12.006000    1.948000   11.671000 N.pl3     1 <1>        -0.754600 
      2 H          12.159000    1.124000   11.109000 H         1 <1>         0.339700 
      3 C          10.734000    2.208000   12.137000 C.2       1 <1>         0.879200 
      4 N          10.438000    3.249000   12.871000 N.2       1 <1>        -0.638300 
      5 C          11.496000    4.051000   13.135000 C.ar      1 <1>         0.420600 
      6 C          12.803000    3.895000   12.729000 C.ar      1 <1>        -0.527100 
      7 C          13.114000    2.740000   11.918000 C.2       1 <1>         0.757600 
      8 O          14.233000    2.472000   11.484000 O.2       1 <1>        -0.457900 
      9 C          13.541000    4.981000   13.255000 C.ar      1 <1>         0.058200 
     10 C          12.656000    5.789000   13.953000 C.ar      1 <1>         0.043100 
     11 N          11.411000    5.194000   13.880000 N.pl3     1 <1>        -0.384700 
     12 H          10.558000    5.548000   14.297000 H         1 <1>         0.356800 
     13 C          12.842000    7.067000   14.692000 C.3       1 <1>        -0.155600 
     14 H          13.541000    7.725000   14.166000 H         1 <1>         0.061500 
     15 H          13.233000    6.872000   15.696000 H         1 <1>         0.063400 
     16 H          11.895000    7.607000   14.796000 H         1 <1>         0.066900 
     17 S          15.254000    5.253000   13.011000 S.3       1 <1>         0.016600 
     18 C          15.290000    6.749000   12.037000 C.ar      1 <1>        -0.097700 
     19 C          14.132000    7.497000   11.812000 C.ar      1 <1>         0.015500 
     20 H          13.177000    7.181000   12.228000 H         1 <1>         0.085100 
     21 C          14.180000    8.666000   11.048000 C.ar      1 <1>        -0.284700 
     22 H          13.250000    9.208000   10.900000 H         1 <1>         0.153200 
     23 C          15.391000    9.105000   10.507000 C.ar      1 <1>         0.224300 
     24 C          16.569000    8.369000   10.749000 C.ar      1 <1>         0.129700 
     25 C          16.509000    7.196000   11.512000 C.ar      1 <1>        -0.217600 
     26 H          17.401000    6.607000   11.707000 H         1 <1>         0.174900 
     27 O          17.719000    8.876000   10.193000 O.3       1 <1>        -0.230100 
     28 C          18.941000    8.202000   10.487000 C.3       1 <1>        -0.047900 
     29 H          19.751000    8.757000   10.003000 H         1 <1>         0.075300 
     30 H          18.940000    7.188000   10.074000 H         1 <1>         0.064700 
     31 H          19.139000    8.195000   11.563000 H         1 <1>         0.048900 
     32 O          15.535000   10.238000    9.742000 O.3       1 <1>        -0.290500 
     33 C          16.845000   10.542000    9.267000 C.3       1 <1>         0.061200 
     34 H          16.788000   11.487000    8.717000 H         1 <1>         0.046700 
     35 H          17.199000    9.773000    8.573000 H         1 <1>         0.030200 
     36 H          17.543000   10.682000   10.099000 H         1 <1>         0.026800 
     37 N           9.781000    1.318000   11.793000 N.pl3     1 <1>        -0.895700 
     38 H           8.823000    1.447000   12.101000 H         1 <1>         0.386500 
     39 H           9.963000    0.498000   11.226000 H         1 <1>         0.395700 
@<TRIPOS>BOND
     1    2    1 1    
     2    1    3 1    
     3    3    4 2    
     4    4    5 1    
     5    5    6 ar   
     6    6    7 1    
     7    7    1 1    
     8    7    8 2    
     9    6    9 ar   
    10    9   10 ar   
    11   10   11 ar   
    12   11   12 1    
    13   11    5 ar   
    14   10   13 1    
    15   13   14 1    
    16   13   15 1    
    17   13   16 1    
    18    9   17 1    
    19   17   18 1    
    20   18   19 ar   
    21   19   20 1    
    22   19   21 ar   
    23   21   22 1    
    24   21   23 ar   
    25   23   24 ar   
    26   24   25 ar   
    27   25   26 1    
    28   25   18 ar   
    29   24   27 1    
    30   27   28 1    
    31   28   29 1    
    32   28   30 1    
    33   28   31 1    
    34   23   32 1    
    35   32   33 1    
    36   33   34 1    
    37   33   35 1    
    38   33   36 1    
    39    3   37 1    
    40   37   38 1    
    41   37   39 1    
@<TRIPOS>SUBSTRUCTURE
     1 ****        2 TEMP              0 ****  ****    0 ROOT 
@<TRIPOS>SET
UNITY_3DHIT     STATIC     ATOMS    <user>   **** Atoms matching 3D or FLEX Search
0
@<TRIPOS>UNITY_BOND_ATTR
3 1
S I
