#	Name:			42-8
#	Creating user name:	jeff
#	Creation time:		Thu Dec  4 18:13:49 2003

#	Modifying user name:	jeff
#	Modification time:	Thu Dec  4 18:13:49 2003

@<TRIPOS>MOLECULE
42-8
   31    33     1     0     1
SMALL
USER_CHARGES
****
From 3DB ct
@<TRIPOS>ATOM
      1 N          12.007000    1.942000   11.679000 N.pl3     1 <1>        -0.778100 
      2 H          12.161000    1.114000   11.123000 H         1 <1>         0.348900 
      3 C          10.734000    2.209000   12.138000 C.2       1 <1>         0.870100 
      4 N          10.437000    3.255000   12.863000 N.2       1 <1>        -0.626900 
      5 C          11.495000    4.058000   13.124000 C.ar      1 <1>         0.391100 
      6 C          12.803000    3.897000   12.723000 C.ar      1 <1>        -0.466500 
      7 C          13.115000    2.735000   11.923000 C.2       1 <1>         0.778800 
      8 O          14.235000    2.463000   11.494000 O.2       1 <1>        -0.469700 
      9 C          13.538000    4.992000   13.233000 C.ar      1 <1>        -0.025200 
     10 C          12.659000    5.787000   13.953000 C.ar      1 <1>         0.049100 
     11 N          11.410000    5.204000   13.864000 N.pl3     1 <1>        -0.376600 
     12 H          10.559000    5.558000   14.285000 H         1 <1>         0.355800 
     13 C          12.858000    7.048000   14.717000 C.3       1 <1>        -0.130300 
     14 H          12.871000    7.906000   14.037000 H         1 <1>         0.059200 
     15 H          13.802000    7.027000   15.270000 H         1 <1>         0.051000 
     16 H          12.053000    7.204000   15.443000 H         1 <1>         0.061600 
     17 S          15.255000    5.256000   13.012000 S.3       1 <1>         0.051500 
     18 C          15.293000    6.759000   12.052000 C.ar      1 <1>        -0.020100 
     19 C          16.506000    7.197000   11.508000 C.ar      1 <1>        -0.124800 
     20 H          17.424000    6.637000   11.676000 H         1 <1>         0.118900 
     21 C          16.557000    8.367000   10.745000 C.ar      1 <1>         0.094000 
     22 H          17.508000    8.698000   10.333000 H         1 <1>         0.064600 
     23 C          15.392000    9.097000   10.517000 C.ar      1 <1>        -0.377900 
     24 C          14.177000    8.665000   11.044000 C.ar      1 <1>         0.112300 
     25 H          13.264000    9.228000   10.866000 H         1 <1>         0.061100 
     26 C          14.127000    7.495000   11.808000 C.ar      1 <1>        -0.134300 
     27 H          13.169000    7.168000   12.207000 H         1 <1>         0.102500 
     28 Cl         15.454000   10.537000    9.576000 Cl        1 <1>         0.065700 
     29 N           9.780000    1.318000   11.797000 N.pl3     1 <1>        -0.880200 
     30 H           8.822000    1.452000   12.101000 H         1 <1>         0.381000 
     31 H           9.963000    0.493000   11.237000 H         1 <1>         0.393200 
@<TRIPOS>BOND
     1    2    1 1    
     2    1    3 1    
     3    3    4 2    
     4    4    5 1    
     5    5    6 ar   
     6    6    7 1    
     7    7    1 1    
     8    7    8 2    
     9    6    9 ar   
    10    9   10 ar   
    11   10   11 ar   
    12   11   12 1    
    13   11    5 ar   
    14   10   13 1    
    15   13   14 1    
    16   13   15 1    
    17   13   16 1    
    18    9   17 1    
    19   17   18 1    
    20   18   19 ar   
    21   19   20 1    
    22   19   21 ar   
    23   21   22 1    
    24   21   23 ar   
    25   23   24 ar   
    26   24   25 1    
    27   24   26 ar   
    28   26   27 1    
    29   26   18 ar   
    30   23   28 1    
    31    3   29 1    
    32   29   30 1    
    33   29   31 1    
@<TRIPOS>SUBSTRUCTURE
     1 ****        2 TEMP              0 ****  ****    0 ROOT 
@<TRIPOS>SET
UNITY_3DHIT     STATIC     ATOMS    <user>   **** Atoms matching 3D or FLEX Search
0
@<TRIPOS>UNITY_BOND_ATTR
3 1
S I
