#	Name:			42-9
#	Creating user name:	jeff
#	Creation time:		Thu Dec  4 18:13:49 2003

#	Modifying user name:	jeff
#	Modification time:	Thu Dec  4 18:13:49 2003

@<TRIPOS>MOLECULE
42-9
   31    33     1     0     1
SMALL
USER_CHARGES
****
From 3DB ct
@<TRIPOS>ATOM
      1 N          12.007000    1.941000   11.680000 N.pl3     1 <1>        -0.796700 
      2 H          12.162000    1.113000   11.124000 H         1 <1>         0.348300 
      3 C          10.734000    2.206000   12.140000 C.2       1 <1>         0.894500 
      4 N          10.437000    3.252000   12.864000 N.2       1 <1>        -0.645300 
      5 C          11.494000    4.057000   13.125000 C.ar      1 <1>         0.444900 
      6 C          12.801000    3.897000   12.723000 C.ar      1 <1>        -0.587300 
      7 C          13.114000    2.736000   11.922000 C.2       1 <1>         0.836500 
      8 O          14.234000    2.466000   11.491000 O.2       1 <1>        -0.483700 
      9 C          13.536000    4.992000   13.233000 C.ar      1 <1>         0.056300 
     10 C          12.657000    5.786000   13.954000 C.ar      1 <1>         0.032800 
     11 N          11.408000    5.203000   13.865000 N.pl3     1 <1>        -0.394500 
     12 H          10.557000    5.556000   14.286000 H         1 <1>         0.361800 
     13 C          12.854000    7.045000   14.722000 C.3       1 <1>        -0.117100 
     14 H          12.863000    7.905000   14.045000 H         1 <1>         0.038600 
     15 H          13.800000    7.024000   15.273000 H         1 <1>         0.054900 
     16 H          12.051000    7.196000   15.452000 H         1 <1>         0.064900 
     17 S          15.253000    5.257000   13.011000 S.3       1 <1>         0.020600 
     18 C          15.292000    6.759000   12.049000 C.ar      1 <1>         0.005600 
     19 C          14.104000    7.464000   11.830000 C.ar      1 <1>        -0.159100 
     20 H          13.160000    7.098000   12.231000 H         1 <1>         0.129400 
     21 C          14.110000    8.646000   11.084000 C.ar      1 <1>         0.083400 
     22 H          13.174000    9.176000   10.920000 H         1 <1>         0.068600 
     23 C          15.307000    9.137000   10.558000 C.ar      1 <1>        -0.223600 
     24 C          16.500000    8.443000   10.784000 C.ar      1 <1>        -0.192700 
     25 C          16.492000    7.260000   11.531000 C.ar      1 <1>         0.106100 
     26 H          17.425000    6.730000   11.707000 H         1 <1>         0.045800 
     27 Cl         18.020000    8.995000   10.168000 Cl        1 <1>         0.054200 
     28 Cl         15.247000   10.603000    9.644000 Cl        1 <1>         0.062900 
     29 N           9.782000    1.314000   11.800000 N.pl3     1 <1>        -0.895900 
     30 H           8.823000    1.447000   12.105000 H         1 <1>         0.387700 
     31 H           9.964000    0.489000   11.241000 H         1 <1>         0.398100 
@<TRIPOS>BOND
     1    2    1 1    
     2    1    3 1    
     3    3    4 2    
     4    4    5 1    
     5    5    6 ar   
     6    6    7 1    
     7    7    1 1    
     8    7    8 2    
     9    6    9 ar   
    10    9   10 ar   
    11   10   11 ar   
    12   11   12 1    
    13   11    5 ar   
    14   10   13 1    
    15   13   14 1    
    16   13   15 1    
    17   13   16 1    
    18    9   17 1    
    19   17   18 1    
    20   18   19 ar   
    21   19   20 1    
    22   19   21 ar   
    23   21   22 1    
    24   21   23 ar   
    25   23   24 ar   
    26   24   25 ar   
    27   25   26 1    
    28   25   18 ar   
    29   24   27 1    
    30   23   28 1    
    31    3   29 1    
    32   29   30 1    
    33   29   31 1    
@<TRIPOS>SUBSTRUCTURE
     1 ****        2 TEMP              0 ****  ****    0 ROOT 
@<TRIPOS>SET
UNITY_3DHIT     STATIC     ATOMS    <user>   **** Atoms matching 3D or FLEX Search
0
@<TRIPOS>UNITY_BOND_ATTR
3 1
S I
