#	Name:			43-15
#	Creating user name:	jeff
#	Creation time:		Thu Dec  4 18:13:50 2003

#	Modifying user name:	jeff
#	Modification time:	Thu Dec  4 18:13:50 2003

@<TRIPOS>MOLECULE
43-15
   46    48     1     0     1
SMALL
USER_CHARGES
****
From 3DB ct
@<TRIPOS>ATOM
      1 N          12.069000    2.159000   11.707000 N.pl3     1 <1>        -0.733600 
      2 H          12.259000    1.426000   11.041000 H         1 <1>         0.333200 
      3 C          10.764000    2.390000   12.090000 C.2       1 <1>         0.849900 
      4 N          10.419000    3.314000   12.948000 N.2       1 <1>        -0.623500 
      5 C          11.461000    4.029000   13.431000 C.ar      1 <1>         0.407900 
      6 C          12.796000    3.891000   13.127000 C.ar      1 <1>        -0.457800 
      7 C          13.161000    2.865000   12.175000 C.2       1 <1>         0.721000 
      8 O          14.315000    2.639000   11.817000 O.2       1 <1>        -0.460200 
      9 C          13.525000    4.860000   13.876000 C.ar      1 <1>        -0.093300 
     10 C          12.579000    5.557000   14.627000 C.ar      1 <1>         0.098200 
     11 N          11.332000    5.042000   14.338000 N.pl3     1 <1>        -0.404600 
     12 H          10.453000    5.357000   14.731000 H         1 <1>         0.359800 
     13 C          12.745000    6.680000   15.589000 C.3       1 <1>        -0.154900 
     14 H          13.620000    6.516000   16.226000 H         1 <1>         0.060500 
     15 H          11.871000    6.780000   16.241000 H         1 <1>         0.050600 
     16 H          12.881000    7.622000   15.050000 H         1 <1>         0.065500 
     17 C          15.019000    5.082000   13.869000 C.3       1 <1>         0.186400 
     18 H          15.476000    4.508000   13.057000 H         1 <1>         0.031300 
     19 H          15.385000    4.646000   14.809000 H         1 <1>         0.027000 
     20 N          15.456000    6.485000   13.764000 N.pl3     1 <1>        -0.315700 
     21 C          15.400000    7.142000   12.532000 C.ar      1 <1>         0.180200 
     22 C          16.515000    7.358000   11.696000 C.ar      1 <1>         0.144400 
     23 C          16.397000    8.059000   10.491000 C.ar      1 <1>        -0.214100 
     24 H          17.271000    8.242000    9.871000 H         1 <1>         0.137200 
     25 C          15.150000    8.521000   10.077000 C.ar      1 <1>        -0.230100 
     26 H          15.064000    9.057000    9.133000 H         1 <1>         0.129800 
     27 C          14.020000    8.300000   10.863000 C.ar      1 <1>         0.300100 
     28 C          14.153000    7.617000   12.078000 C.ar      1 <1>        -0.297600 
     29 H          13.289000    7.462000   12.719000 H         1 <1>         0.155000 
     30 O          12.857000    8.803000   10.347000 O.3       1 <1>        -0.301000 
     31 C          12.947000    9.471000    9.089000 C.3       1 <1>         0.068100 
     32 H          11.945000    9.820000    8.825000 H         1 <1>         0.052000 
     33 H          13.280000    8.785000    8.303000 H         1 <1>         0.024100 
     34 H          13.600000   10.348000    9.156000 H         1 <1>         0.021100 
     35 O          17.761000    6.907000   12.060000 O.3       1 <1>        -0.197300 
     36 C          18.720000    7.233000   11.048000 C.3       1 <1>        -0.063300 
     37 H          19.651000    6.713000   11.291000 H         1 <1>         0.073800 
     38 H          18.924000    8.309000   11.036000 H         1 <1>         0.051100 
     39 H          18.391000    6.894000   10.059000 H         1 <1>         0.063400 
     40 C          15.295000    7.332000   14.947000 C.3       1 <1>        -0.135200 
     41 H          15.488000    6.772000   15.867000 H         1 <1>         0.079600 
     42 H          14.273000    7.722000   15.000000 H         1 <1>         0.074000 
     43 H          15.991000    8.177000   14.941000 H         1 <1>         0.049500 
     44 N           9.831000    1.597000   11.523000 N.pl3     1 <1>        -0.884900 
     45 H           8.850000    1.712000   11.758000 H         1 <1>         0.381500 
     46 H          10.049000    0.871000   10.852000 H         1 <1>         0.391000 
@<TRIPOS>BOND
     1    2    1 1    
     2    1    3 1    
     3    3    4 2    
     4    4    5 1    
     5    5    6 ar   
     6    6    7 1    
     7    7    1 1    
     8    7    8 2    
     9    6    9 ar   
    10    9   10 ar   
    11   10   11 ar   
    12   11   12 1    
    13   11    5 ar   
    14   10   13 1    
    15   13   14 1    
    16   13   15 1    
    17   13   16 1    
    18    9   17 1    
    19   17   18 1    
    20   17   19 1    
    21   17   20 1    
    22   20   21 1    
    23   21   22 ar   
    24   22   23 ar   
    25   23   24 1    
    26   23   25 ar   
    27   25   26 1    
    28   25   27 ar   
    29   27   28 ar   
    30   28   29 1    
    31   28   21 ar   
    32   27   30 1    
    33   30   31 1    
    34   31   32 1    
    35   31   33 1    
    36   31   34 1    
    37   22   35 1    
    38   35   36 1    
    39   36   37 1    
    40   36   38 1    
    41   36   39 1    
    42   20   40 1    
    43   40   41 1    
    44   40   42 1    
    45   40   43 1    
    46    3   44 1    
    47   44   45 1    
    48   44   46 1    
@<TRIPOS>SUBSTRUCTURE
     1 ****        2 TEMP              0 ****  ****    0 ROOT 
@<TRIPOS>SET
UNITY_3DHIT     STATIC     ATOMS    <user>   **** Atoms matching 3D or FLEX Search
0
@<TRIPOS>UNITY_BOND_ATTR
3 1
S I
