#	Name:			43-11
#	Creating user name:	jeff
#	Creation time:		Thu Dec  4 18:13:50 2003

#	Modifying user name:	jeff
#	Modification time:	Thu Dec  4 18:13:50 2003

@<TRIPOS>MOLECULE
43-11
   35    37     1     0     1
SMALL
USER_CHARGES
****
From 3DB ct
@<TRIPOS>ATOM
      1 N          12.105000    2.160000   11.723000 N.pl3     1 <1>        -0.732200 
      2 H          12.318000    1.442000   11.046000 H         1 <1>         0.337300 
      3 C          10.788000    2.373000   12.078000 C.2       1 <1>         0.847400 
      4 N          10.414000    3.282000   12.939000 N.2       1 <1>        -0.633400 
      5 C          11.438000    4.000000   13.457000 C.ar      1 <1>         0.458800 
      6 C          12.781000    3.877000   13.186000 C.ar      1 <1>        -0.457300 
      7 C          13.180000    2.870000   12.227000 C.2       1 <1>         0.719700 
      8 O          14.342000    2.662000   11.884000 O.2       1 <1>        -0.450500 
      9 C          13.483000    4.837000   13.973000 C.ar      1 <1>        -0.234000 
     10 C          12.509000    5.528000   14.693000 C.ar      1 <1>         0.220500 
     11 N          11.275000    5.002000   14.370000 N.pl3     1 <1>        -0.460400 
     12 H          10.384000    5.306000   14.745000 H         1 <1>         0.372800 
     13 C          12.638000    6.640000   15.676000 C.3       1 <1>        -0.257800 
     14 H          13.471000    7.298000   15.408000 H         1 <1>         0.086200 
     15 H          12.824000    6.239000   16.677000 H         1 <1>         0.094700 
     16 H          11.729000    7.248000   15.709000 H         1 <1>         0.074500 
     17 C          14.972000    5.064000   14.025000 C.3       1 <1>         0.324700 
     18 H          15.434000    4.277000   13.416000 H         1 <1>         0.044700 
     19 H          15.314000    4.940000   15.056000 H         1 <1>         0.039000 
     20 N          15.386000    6.367000   13.532000 N.pl3     1 <1>        -0.886600 
     21 H          15.890000    6.928000   14.217000 H         1 <1>         0.374600 
     22 C          15.234000    7.133000   12.389000 C.ar      1 <1>         0.724000 
     23 C          14.050000    7.726000   11.896000 C.ar      1 <1>        -0.114100 
     24 H          13.091000    7.584000   12.430000 H         1 <1>         0.091100 
     25 C          14.062000    8.501000   10.723000 C.ar      1 <1>        -0.256400 
     26 C          15.241000    8.702000   10.011000 C.ar      1 <1>        -0.085100 
     27 H          15.231000    9.307000    9.108000 H         1 <1>         0.085800 
     28 C          16.414000    8.124000   10.471000 C.ar      1 <1>         0.163600 
     29 H          17.364000    8.268000    9.917000 H         1 <1>         0.066100 
     30 C          16.410000    7.354000   11.638000 C.ar      1 <1>        -0.594900 
     31 Cl         17.958000    6.704000   12.104000 Cl        1 <1>         0.070200 
     32 Cl         12.588000    9.208000   10.164000 Cl        1 <1>         0.067500 
     33 N           9.877000    1.578000   11.479000 N.pl3     1 <1>        -0.876200 
     34 H           8.890000    1.683000   11.686000 H         1 <1>         0.383200 
     35 H          10.120000    0.864000   10.801000 H         1 <1>         0.392300 
@<TRIPOS>BOND
     1    2    1 1    
     2    1    3 1    
     3    3    4 2    
     4    4    5 1    
     5    5    6 ar   
     6    6    7 1    
     7    7    1 1    
     8    7    8 2    
     9    6    9 ar   
    10    9   10 ar   
    11   10   11 ar   
    12   11   12 1    
    13   11    5 ar   
    14   10   13 1    
    15   13   14 1    
    16   13   15 1    
    17   13   16 1    
    18    9   17 1    
    19   17   18 1    
    20   17   19 1    
    21   17   20 1    
    22   20   21 1    
    23   20   22 1    
    24   22   23 ar   
    25   23   24 1    
    26   23   25 ar   
    27   25   26 ar   
    28   26   27 1    
    29   26   28 ar   
    30   28   29 1    
    31   28   30 ar   
    32   30   22 ar   
    33   30   31 1    
    34   25   32 1    
    35    3   33 1    
    36   33   34 1    
    37   33   35 1    
@<TRIPOS>SUBSTRUCTURE
     1 ****        2 TEMP              0 ****  ****    0 ROOT 
@<TRIPOS>SET
UNITY_3DHIT     STATIC     ATOMS    <user>   **** Atoms matching 3D or FLEX Search
0
@<TRIPOS>UNITY_BOND_ATTR
3 1
S I
