#	Name:			43-10
#	Creating user name:	jeff
#	Creation time:		Thu Dec  4 18:13:49 2003

#	Modifying user name:	jeff
#	Modification time:	Thu Dec  4 18:13:50 2003

@<TRIPOS>MOLECULE
43-10
   47    49     1     0     1
SMALL
USER_CHARGES
****
From 3DB ct
@<TRIPOS>ATOM
      1 N          12.085000    2.151000   11.710000 N.pl3     1 <1>        -0.742400 
      2 H          12.284000    1.417000   11.046000 H         1 <1>         0.337800 
      3 C          10.778000    2.371000   12.091000 C.2       1 <1>         0.866900 
      4 N          10.425000    3.289000   12.953000 N.2       1 <1>        -0.641000 
      5 C          11.461000    4.012000   13.437000 C.ar      1 <1>         0.457100 
      6 C          12.796000    3.894000   13.127000 C.ar      1 <1>        -0.513400 
      7 C          13.171000    2.868000   12.177000 C.2       1 <1>         0.744700 
      8 O          14.328000    2.645000   11.825000 O.2       1 <1>        -0.467400 
      9 C          13.514000    4.876000   13.872000 C.ar      1 <1>        -0.113600 
     10 C          12.562000    5.543000   14.644000 C.ar      1 <1>         0.126700 
     11 N          11.322000    5.011000   14.356000 N.pl3     1 <1>        -0.424000 
     12 H          10.441000    5.304000   14.762000 H         1 <1>         0.363400 
     13 C          12.706000    6.650000   15.629000 C.3       1 <1>        -0.189100 
     14 H          12.629000    7.618000   15.124000 H         1 <1>         0.067600 
     15 H          13.675000    6.601000   16.136000 H         1 <1>         0.074300 
     16 H          11.926000    6.598000   16.397000 H         1 <1>         0.061600 
     17 C          14.998000    5.132000   13.843000 C.3       1 <1>         0.291500 
     18 H          15.461000    4.532000   13.053000 H         1 <1>         0.038300 
     19 H          15.409000    4.780000   14.799000 H         1 <1>        -0.004300 
     20 N          15.366000    6.528000   13.644000 N.pl3     1 <1>        -0.625200 
     21 H          15.684000    7.025000   14.473000 H         1 <1>         0.307900 
     22 C          15.334000    7.193000   12.438000 C.ar      1 <1>         0.246500 
     23 C          16.471000    7.413000   11.648000 C.ar      1 <1>        -0.319700 
     24 H          17.444000    7.040000   11.957000 H         1 <1>         0.156900 
     25 C          16.376000    8.100000   10.432000 C.ar      1 <1>         0.107000 
     26 C          15.143000    8.558000    9.967000 C.ar      1 <1>         0.100000 
     27 C          14.013000    8.391000   10.766000 C.ar      1 <1>         0.068600 
     28 C          14.108000    7.694000   11.975000 C.ar      1 <1>        -0.135900 
     29 H          13.207000    7.548000   12.566000 H         1 <1>         0.139900 
     30 O          12.770000    8.821000   10.377000 O.3       1 <1>        -0.279100 
     31 C          12.838000    9.481000    9.108000 C.3       1 <1>         0.090300 
     32 H          11.877000    9.975000    8.938000 H         1 <1>         0.033400 
     33 H          12.994000    8.761000    8.298000 H         1 <1>         0.020900 
     34 H          13.621000   10.248000    9.095000 H         1 <1>         0.021500 
     35 O          15.070000    9.213000    8.765000 O.3       1 <1>        -0.201600 
     36 C          16.357000    9.231000    8.138000 C.3       1 <1>        -0.035600 
     37 H          16.264000    9.798000    7.208000 H         1 <1>         0.059500 
     38 H          16.691000    8.219000    7.886000 H         1 <1>         0.064200 
     39 H          17.100000    9.731000    8.770000 H         1 <1>         0.057200 
     40 O          17.499000    8.244000    9.657000 O.3       1 <1>        -0.241900 
     41 C          18.645000    7.747000   10.357000 C.3       1 <1>        -0.044100 
     42 H          19.529000    7.981000    9.757000 H         1 <1>         0.065900 
     43 H          18.590000    6.659000   10.473000 H         1 <1>         0.066500 
     44 H          18.759000    8.230000   11.334000 H         1 <1>         0.054000 
     45 N           9.847000    1.578000   11.523000 N.pl3     1 <1>        -0.889800 
     46 H           8.866000    1.698000   11.754000 H         1 <1>         0.385300 
     47 H          10.065000    0.850000   10.851000 H         1 <1>         0.392800 
@<TRIPOS>BOND
     1    2    1 1    
     2    1    3 1    
     3    3    4 2    
     4    4    5 1    
     5    5    6 ar   
     6    6    7 1    
     7    7    1 1    
     8    7    8 2    
     9    6    9 ar   
    10    9   10 ar   
    11   10   11 ar   
    12   11   12 1    
    13   11    5 ar   
    14   10   13 1    
    15   13   14 1    
    16   13   15 1    
    17   13   16 1    
    18    9   17 1    
    19   17   18 1    
    20   17   19 1    
    21   17   20 1    
    22   20   21 1    
    23   20   22 1    
    24   22   23 ar   
    25   23   24 1    
    26   23   25 ar   
    27   25   26 ar   
    28   26   27 ar   
    29   27   28 ar   
    30   28   29 1    
    31   28   22 ar   
    32   27   30 1    
    33   30   31 1    
    34   31   32 1    
    35   31   33 1    
    36   31   34 1    
    37   26   35 1    
    38   35   36 1    
    39   36   37 1    
    40   36   38 1    
    41   36   39 1    
    42   25   40 1    
    43   40   41 1    
    44   41   42 1    
    45   41   43 1    
    46   41   44 1    
    47    3   45 1    
    48   45   46 1    
    49   45   47 1    
@<TRIPOS>SUBSTRUCTURE
     1 ****        2 TEMP              0 ****  ****    0 ROOT 
@<TRIPOS>SET
UNITY_3DHIT     STATIC     ATOMS    <user>   **** Atoms matching 3D or FLEX Search
0
@<TRIPOS>UNITY_BOND_ATTR
3 1
S I
