#	Name:			43-16
#	Creating user name:	jeff
#	Creation time:		Thu Dec  4 18:13:50 2003

#	Modifying user name:	jeff
#	Modification time:	Thu Dec  4 18:13:50 2003

@<TRIPOS>MOLECULE
43-16
   46    48     1     0     1
SMALL
USER_CHARGES
****
From 3DB ct
@<TRIPOS>ATOM
      1 N          12.084000    2.159000   11.700000 N.pl3     1 <1>        -0.767400 
      2 H          12.280000    1.435000   11.024000 H         1 <1>         0.341300 
      3 C          10.779000    2.364000   12.098000 C.2       1 <1>         0.873100 
      4 N          10.427000    3.276000   12.966000 N.2       1 <1>        -0.642300 
      5 C          11.462000    4.006000   13.443000 C.ar      1 <1>         0.461500 
      6 C          12.796000    3.894000   13.123000 C.ar      1 <1>        -0.530000 
      7 C          13.169000    2.881000   12.161000 C.2       1 <1>         0.775700 
      8 O          14.322000    2.678000   11.787000 O.2       1 <1>        -0.471600 
      9 C          13.515000    4.872000   13.870000 C.ar      1 <1>        -0.032100 
     10 C          12.565000    5.549000   14.634000 C.ar      1 <1>         0.096400 
     11 N          11.325000    5.011000   14.357000 N.pl3     1 <1>        -0.433400 
     12 H          10.444000    5.308000   14.762000 H         1 <1>         0.365200 
     13 C          12.722000    6.672000   15.598000 C.3       1 <1>        -0.125500 
     14 H          13.617000    6.532000   16.212000 H         1 <1>         0.050700 
     15 H          11.861000    6.744000   16.271000 H         1 <1>         0.045900 
     16 H          12.817000    7.620000   15.059000 H         1 <1>         0.058400 
     17 C          15.004000    5.125000   13.846000 C.3       1 <1>         0.023600 
     18 H          15.478000    4.531000   13.057000 H         1 <1>         0.094800 
     19 H          15.375000    4.720000   14.797000 H         1 <1>         0.057900 
     20 N          15.440000    6.527000   13.687000 N.pl3     1 <1>        -0.218000 
     21 C          15.324000    7.197000   12.475000 C.ar      1 <1>         0.310900 
     22 C          16.432000    7.424000   11.641000 C.ar      1 <1>        -0.402000 
     23 H          17.416000    7.050000   11.919000 H         1 <1>         0.140100 
     24 C          16.325000    8.098000   10.416000 C.ar      1 <1>         0.379000 
     25 C          15.083000    8.565000   10.001000 C.ar      1 <1>        -0.470700 
     26 H          14.957000    9.093000    9.060000 H         1 <1>         0.152800 
     27 C          13.956000    8.357000   10.798000 C.ar      1 <1>         0.456900 
     28 C          14.084000    7.681000   12.018000 C.ar      1 <1>        -0.449200 
     29 H          13.208000    7.541000   12.645000 H         1 <1>         0.154500 
     30 O          12.794000    8.866000   10.281000 O.3       1 <1>        -0.298100 
     31 C          12.879000    9.523000    9.017000 C.3       1 <1>         0.023700 
     32 H          11.878000    9.883000    8.762000 H         1 <1>         0.057600 
     33 H          13.194000    8.827000    8.233000 H         1 <1>         0.044100 
     34 H          13.543000   10.392000    9.069000 H         1 <1>         0.040000 
     35 O          17.502000    8.226000    9.729000 O.3       1 <1>        -0.289800 
     36 C          18.677000    7.724000   10.366000 C.3       1 <1>         0.048200 
     37 H          19.522000    7.909000    9.695000 H         1 <1>         0.054800 
     38 H          18.606000    6.643000   10.525000 H         1 <1>         0.031300 
     39 H          18.873000    8.253000   11.304000 H         1 <1>         0.031400 
     40 C          15.911000    7.236000   14.876000 C.3       1 <1>        -0.161200 
     41 H          15.582000    6.744000   15.797000 H         1 <1>         0.094400 
     42 H          15.510000    8.256000   14.917000 H         1 <1>         0.081400 
     43 H          17.005000    7.281000   14.887000 H         1 <1>         0.056900 
     44 N           9.853000    1.558000   11.537000 N.pl3     1 <1>        -0.887400 
     45 H           8.874000    1.654000   11.784000 H         1 <1>         0.383100 
     46 H          10.078000    0.837000   10.862000 H         1 <1>         0.393200 
@<TRIPOS>BOND
     1    2    1 1    
     2    1    3 1    
     3    3    4 2    
     4    4    5 1    
     5    5    6 ar   
     6    6    7 1    
     7    7    1 1    
     8    7    8 2    
     9    6    9 ar   
    10    9   10 ar   
    11   10   11 ar   
    12   11   12 1    
    13   11    5 ar   
    14   10   13 1    
    15   13   14 1    
    16   13   15 1    
    17   13   16 1    
    18    9   17 1    
    19   17   18 1    
    20   17   19 1    
    21   17   20 1    
    22   20   21 1    
    23   21   22 ar   
    24   22   23 1    
    25   22   24 ar   
    26   24   25 ar   
    27   25   26 1    
    28   25   27 ar   
    29   27   28 ar   
    30   28   29 1    
    31   28   21 ar   
    32   27   30 1    
    33   30   31 1    
    34   31   32 1    
    35   31   33 1    
    36   31   34 1    
    37   24   35 1    
    38   35   36 1    
    39   36   37 1    
    40   36   38 1    
    41   36   39 1    
    42   20   40 1    
    43   40   41 1    
    44   40   42 1    
    45   40   43 1    
    46    3   44 1    
    47   44   45 1    
    48   44   46 1    
@<TRIPOS>SUBSTRUCTURE
     1 ****        2 TEMP              0 ****  ****    0 ROOT 
@<TRIPOS>SET
UNITY_3DHIT     STATIC     ATOMS    <user>   **** Atoms matching 3D or FLEX Search
0
@<TRIPOS>UNITY_BOND_ATTR
3 1
S I
