#	Name:			43-17
#	Creating user name:	jeff
#	Creation time:		Thu Dec  4 18:13:50 2003

#	Modifying user name:	jeff
#	Modification time:	Thu Dec  4 18:13:50 2003

@<TRIPOS>MOLECULE
43-17
   50    52     1     0     1
SMALL
USER_CHARGES
****
From 3DB ct
@<TRIPOS>ATOM
      1 N          12.078000    2.158000   11.697000 N.pl3     1 <1>        -0.748700 
      2 H          12.283000    1.440000   11.018000 H         1 <1>         0.338200 
      3 C          10.771000    2.346000   12.096000 C.2       1 <1>         0.867600 
      4 N          10.408000    3.251000   12.966000 N.2       1 <1>        -0.641300 
      5 C          11.434000    3.990000   13.449000 C.ar      1 <1>         0.460500 
      6 C          12.769000    3.893000   13.132000 C.ar      1 <1>        -0.532800 
      7 C          13.154000    2.890000   12.163000 C.2       1 <1>         0.755700 
      8 O          14.310000    2.704000   11.787000 O.2       1 <1>        -0.471400 
      9 C          13.478000    4.874000   13.886000 C.ar      1 <1>        -0.049800 
     10 C          12.518000    5.542000   14.646000 C.ar      1 <1>         0.083900 
     11 N          11.284000    4.993000   14.364000 N.pl3     1 <1>        -0.425500 
     12 H          10.400000    5.281000   14.767000 H         1 <1>         0.364600 
     13 C          12.657000    6.668000   15.608000 C.3       1 <1>        -0.121200 
     14 H          13.600000    6.596000   16.160000 H         1 <1>         0.049300 
     15 H          11.841000    6.671000   16.338000 H         1 <1>         0.046700 
     16 H          12.644000    7.623000   15.073000 H         1 <1>         0.053800 
     17 C          14.965000    5.134000   13.869000 C.3       1 <1>         0.163900 
     18 H          15.441000    4.541000   13.081000 H         1 <1>         0.052800 
     19 H          15.333000    4.728000   14.821000 H         1 <1>         0.025700 
     20 N          15.410000    6.533000   13.720000 N.pl3     1 <1>        -0.285700 
     21 C          15.334000    7.201000   12.502000 C.ar      1 <1>         0.224300 
     22 C          16.471000    7.411000   11.693000 C.ar      1 <1>        -0.316400 
     23 H          17.439000    7.061000   12.020000 H         1 <1>         0.169600 
     24 C          16.403000    8.071000   10.454000 C.ar      1 <1>         0.124700 
     25 C          15.161000    8.524000    9.997000 C.ar      1 <1>         0.039700 
     26 C          14.029000    8.368000   10.795000 C.ar      1 <1>         0.199400 
     27 C          14.111000    7.695000   12.017000 C.ar      1 <1>        -0.244700 
     28 H          13.198000    7.579000   12.595000 H         1 <1>         0.143200 
     29 O          12.807000    8.811000   10.354000 O.3       1 <1>        -0.294300 
     30 C          12.953000    9.469000    9.091000 C.3       1 <1>         0.091900 
     31 H          11.951000    9.723000    8.730000 H         1 <1>         0.034300 
     32 H          13.424000    8.812000    8.352000 H         1 <1>         0.024600 
     33 H          13.523000   10.399000    9.195000 H         1 <1>         0.018100 
     34 O          15.062000    9.189000    8.799000 O.3       1 <1>        -0.229600 
     35 C          16.341000    9.225000    8.157000 C.3       1 <1>         0.027300 
     36 H          16.221000    9.744000    7.202000 H         1 <1>         0.045200 
     37 H          16.710000    8.214000    7.950000 H         1 <1>         0.051100 
     38 H          17.070000    9.781000    8.757000 H         1 <1>         0.038400 
     39 O          17.471000    8.305000    9.626000 O.3       1 <1>        -0.241100 
     40 C          18.751000    7.856000   10.063000 C.3       1 <1>        -0.011800 
     41 H          19.486000    8.168000    9.315000 H         1 <1>         0.061600 
     42 H          18.782000    6.763000   10.126000 H         1 <1>         0.052500 
     43 H          19.028000    8.319000   11.016000 H         1 <1>         0.042800 
     44 C          15.846000    7.249000   14.920000 C.3       1 <1>        -0.164000 
     45 H          15.490000    6.764000   15.835000 H         1 <1>         0.095900 
     46 H          15.443000    8.269000   14.945000 H         1 <1>         0.087700 
     47 H          16.939000    7.295000   14.962000 H         1 <1>         0.054800 
     48 N           9.856000    1.532000   11.530000 N.pl3     1 <1>        -0.888600 
     49 H           8.876000    1.612000   11.777000 H         1 <1>         0.384400 
     50 H          10.090000    0.818000   10.850000 H         1 <1>         0.393200 
@<TRIPOS>BOND
     1    2    1 1    
     2    1    3 1    
     3    3    4 2    
     4    4    5 1    
     5    5    6 ar   
     6    6    7 1    
     7    7    1 1    
     8    7    8 2    
     9    6    9 ar   
    10    9   10 ar   
    11   10   11 ar   
    12   11   12 1    
    13   11    5 ar   
    14   10   13 1    
    15   13   14 1    
    16   13   15 1    
    17   13   16 1    
    18    9   17 1    
    19   17   18 1    
    20   17   19 1    
    21   17   20 1    
    22   20   21 1    
    23   21   22 ar   
    24   22   23 1    
    25   22   24 ar   
    26   24   25 ar   
    27   25   26 ar   
    28   26   27 ar   
    29   27   28 1    
    30   27   21 ar   
    31   26   29 1    
    32   29   30 1    
    33   30   31 1    
    34   30   32 1    
    35   30   33 1    
    36   25   34 1    
    37   34   35 1    
    38   35   36 1    
    39   35   37 1    
    40   35   38 1    
    41   24   39 1    
    42   39   40 1    
    43   40   41 1    
    44   40   42 1    
    45   40   43 1    
    46   20   44 1    
    47   44   45 1    
    48   44   46 1    
    49   44   47 1    
    50    3   48 1    
    51   48   49 1    
    52   48   50 1    
@<TRIPOS>SUBSTRUCTURE
     1 ****        2 TEMP              0 ****  ****    0 ROOT 
@<TRIPOS>SET
UNITY_3DHIT     STATIC     ATOMS    <user>   **** Atoms matching 3D or FLEX Search
0
@<TRIPOS>UNITY_BOND_ATTR
3 1
S I
