#	Name:			43-13
#	Creating user name:	jeff
#	Creation time:		Thu Dec  4 18:13:50 2003

#	Modifying user name:	jeff
#	Modification time:	Thu Dec  4 18:13:50 2003

@<TRIPOS>MOLECULE
43-13
   35    37     1     0     1
SMALL
USER_CHARGES
****
From 3DB ct
@<TRIPOS>ATOM
      1 N          12.095000    2.157000   11.716000 N.pl3     1 <1>        -0.718800 
      2 H          12.301000    1.434000   11.043000 H         1 <1>         0.334800 
      3 C          10.783000    2.372000   12.083000 C.2       1 <1>         0.845600 
      4 N          10.418000    3.287000   12.943000 N.2       1 <1>        -0.633800 
      5 C          11.447000    4.006000   13.447000 C.ar      1 <1>         0.459900 
      6 C          12.787000    3.884000   13.160000 C.ar      1 <1>        -0.458200 
      7 C          13.175000    2.870000   12.203000 C.2       1 <1>         0.703200 
      8 O          14.333000    2.661000   11.849000 O.2       1 <1>        -0.451000 
      9 C          13.497000    4.850000   13.931000 C.ar      1 <1>        -0.237500 
     10 C          12.533000    5.538000   14.667000 C.ar      1 <1>         0.191300 
     11 N          11.297000    5.008000   14.362000 N.pl3     1 <1>        -0.448500 
     12 H          10.410000    5.307000   14.753000 H         1 <1>         0.370800 
     13 C          12.678000    6.649000   15.647000 C.3       1 <1>        -0.214500 
     14 H          13.371000    7.408000   15.270000 H         1 <1>         0.074400 
     15 H          13.066000    6.267000   16.596000 H         1 <1>         0.082900 
     16 H          11.719000    7.139000   15.842000 H         1 <1>         0.066500 
     17 C          14.986000    5.082000   13.957000 C.3       1 <1>         0.400900 
     18 H          15.429000    4.378000   13.242000 H         1 <1>         0.026300 
     19 H          15.366000    4.835000   14.953000 H         1 <1>         0.019400 
     20 N          15.378000    6.438000   13.615000 N.pl3     1 <1>        -0.950300 
     21 H          15.796000    6.956000   14.387000 H         1 <1>         0.372400 
     22 C          15.221000    7.157000   12.445000 C.ar      1 <1>         0.973100 
     23 C          14.036000    7.726000   11.927000 C.ar      1 <1>        -0.570000 
     24 H          13.078000    7.598000   12.468000 H         1 <1>         0.208200 
     25 C          14.043000    8.452000   10.723000 C.ar      1 <1>         0.328700 
     26 H          13.118000    8.878000   10.340000 H         1 <1>         0.040800 
     27 C          15.225000    8.627000   10.015000 C.ar      1 <1>        -0.610600 
     28 C          16.406000    8.083000   10.492000 C.ar      1 <1>         0.496900 
     29 H          17.340000    8.213000    9.951000 H         1 <1>         0.001800 
     30 C          16.396000    7.358000   11.689000 C.ar      1 <1>        -0.768500 
     31 Cl         17.948000    6.735000   12.184000 Cl        1 <1>         0.086700 
     32 Cl         15.222000    9.518000    8.543000 Cl        1 <1>         0.079600 
     33 N           9.867000    1.573000   11.499000 N.pl3     1 <1>        -0.879700 
     34 H           8.883000    1.670000   11.725000 H         1 <1>         0.384800 
     35 H          10.103000    0.850000   10.830000 H         1 <1>         0.392700 
@<TRIPOS>BOND
     1    2    1 1    
     2    1    3 1    
     3    3    4 2    
     4    4    5 1    
     5    5    6 ar   
     6    6    7 1    
     7    7    1 1    
     8    7    8 2    
     9    6    9 ar   
    10    9   10 ar   
    11   10   11 ar   
    12   11   12 1    
    13   11    5 ar   
    14   10   13 1    
    15   13   14 1    
    16   13   15 1    
    17   13   16 1    
    18    9   17 1    
    19   17   18 1    
    20   17   19 1    
    21   17   20 1    
    22   20   21 1    
    23   20   22 1    
    24   22   23 ar   
    25   23   24 1    
    26   23   25 ar   
    27   25   26 1    
    28   25   27 ar   
    29   27   28 ar   
    30   28   29 1    
    31   28   30 ar   
    32   30   22 ar   
    33   30   31 1    
    34   27   32 1    
    35    3   33 1    
    36   33   34 1    
    37   33   35 1    
@<TRIPOS>SUBSTRUCTURE
     1 ****        2 TEMP              0 ****  ****    0 ROOT 
@<TRIPOS>SET
UNITY_3DHIT     STATIC     ATOMS    <user>   **** Atoms matching 3D or FLEX Search
0
@<TRIPOS>UNITY_BOND_ATTR
3 1
S I
