#	Name:			43-14
#	Creating user name:	jeff
#	Creation time:		Thu Dec  4 18:13:50 2003

#	Modifying user name:	jeff
#	Modification time:	Thu Dec  4 18:13:50 2003

@<TRIPOS>MOLECULE
43-14
   35    37     1     0     1
SMALL
USER_CHARGES
****
From 3DB ct
@<TRIPOS>ATOM
      1 N          12.081000    2.158000   11.700000 N.pl3     1 <1>        -0.726200 
      2 H          12.286000    1.443000   11.017000 H         1 <1>         0.334700 
      3 C          10.772000    2.347000   12.093000 C.2       1 <1>         0.864100 
      4 N          10.408000    3.250000   12.966000 N.2       1 <1>        -0.636600 
      5 C          11.434000    3.987000   13.452000 C.ar      1 <1>         0.445100 
      6 C          12.771000    3.892000   13.139000 C.ar      1 <1>        -0.474900 
      7 C          13.157000    2.888000   12.171000 C.2       1 <1>         0.709100 
      8 O          14.313000    2.700000   11.796000 O.2       1 <1>        -0.454600 
      9 C          13.476000    4.873000   13.895000 C.ar      1 <1>        -0.145400 
     10 C          12.511000    5.546000   14.646000 C.ar      1 <1>         0.133100 
     11 N          11.280000    4.986000   14.369000 N.pl3     1 <1>        -0.432500 
     12 H          10.396000    5.269000   14.775000 H         1 <1>         0.371100 
     13 C          12.646000    6.667000   15.616000 C.3       1 <1>        -0.211500 
     14 H          13.371000    7.404000   15.256000 H         1 <1>         0.076500 
     15 H          12.990000    6.289000   16.584000 H         1 <1>         0.081100 
     16 H          11.692000    7.182000   15.767000 H         1 <1>         0.066700 
     17 C          14.960000    5.145000   13.888000 C.3       1 <1>         0.358600 
     18 H          15.390000    4.527000   13.091000 H         1 <1>         0.034200 
     19 H          15.392000    4.813000   14.838000 H         1 <1>        -0.009300 
     20 N          15.311000    6.540000   13.668000 N.pl3     1 <1>        -0.819700 
     21 H          15.484000    7.078000   14.515000 H         1 <1>         0.367500 
     22 C          15.370000    7.199000   12.451000 C.ar      1 <1>         0.452200 
     23 C          16.532000    7.396000   11.671000 C.ar      1 <1>        -0.212200 
     24 H          17.509000    7.008000   12.016000 H         1 <1>         0.151600 
     25 C          16.441000    8.069000   10.442000 C.ar      1 <1>        -0.150100 
     26 H          17.312000    8.227000    9.810000 H         1 <1>         0.121600 
     27 C          15.218000    8.559000    9.972000 C.ar      1 <1>         0.068200 
     28 H          15.208000    9.070000    9.013000 H         1 <1>         0.056000 
     29 C          14.067000    8.383000   10.727000 C.ar      1 <1>        -0.344800 
     30 C          14.154000    7.709000   11.950000 C.ar      1 <1>        -0.101600 
     31 H          13.242000    7.574000   12.531000 H         1 <1>         0.074400 
     32 Cl         12.548000    8.978000   10.172000 Cl        1 <1>         0.063700 
     33 N           9.855000    1.540000   11.521000 N.pl3     1 <1>        -0.892300 
     34 H           8.874000    1.632000   11.763000 H         1 <1>         0.387500 
     35 H          10.084000    0.829000   10.837000 H         1 <1>         0.394800 
@<TRIPOS>BOND
     1    2    1 1    
     2    1    3 1    
     3    3    4 2    
     4    4    5 1    
     5    5    6 ar   
     6    6    7 1    
     7    7    1 1    
     8    7    8 2    
     9    6    9 ar   
    10    9   10 ar   
    11   10   11 ar   
    12   11   12 1    
    13   11    5 ar   
    14   10   13 1    
    15   13   14 1    
    16   13   15 1    
    17   13   16 1    
    18    9   17 1    
    19   17   18 1    
    20   17   19 1    
    21   17   20 1    
    22   20   21 1    
    23   20   22 1    
    24   22   23 ar   
    25   23   24 1    
    26   23   25 ar   
    27   25   26 1    
    28   25   27 ar   
    29   27   28 1    
    30   27   29 ar   
    31   29   30 ar   
    32   30   31 1    
    33   30   22 ar   
    34   29   32 1    
    35    3   33 1    
    36   33   34 1    
    37   33   35 1    
@<TRIPOS>SUBSTRUCTURE
     1 ****        2 TEMP              0 ****  ****    0 ROOT 
@<TRIPOS>SET
UNITY_3DHIT     STATIC     ATOMS    <user>   **** Atoms matching 3D or FLEX Search
0
@<TRIPOS>UNITY_BOND_ATTR
3 1
S I
