#	Name:			43-7
#	Creating user name:	jeff
#	Creation time:		Thu Dec  4 18:13:50 2003

#	Modifying user name:	jeff
#	Modification time:	Thu Dec  4 18:13:50 2003

@<TRIPOS>MOLECULE
43-7
   43    45     1     0     1
SMALL
USER_CHARGES
****
From 3DB ct
@<TRIPOS>ATOM
      1 N          12.081000    2.158000   11.700000 N.pl3     1 <1>        -0.763200 
      2 H          12.286000    1.443000   11.017000 H         1 <1>         0.339200 
      3 C          10.772000    2.347000   12.093000 C.2       1 <1>         0.878100 
      4 N          10.408000    3.250000   12.966000 N.2       1 <1>        -0.648700 
      5 C          11.434000    3.987000   13.452000 C.ar      1 <1>         0.495100 
      6 C          12.771000    3.892000   13.139000 C.ar      1 <1>        -0.566900 
      7 C          13.157000    2.888000   12.171000 C.2       1 <1>         0.777600 
      8 O          14.313000    2.700000   11.796000 O.2       1 <1>        -0.468500 
      9 C          13.476000    4.873000   13.895000 C.ar      1 <1>        -0.024800 
     10 C          12.511000    5.546000   14.646000 C.ar      1 <1>         0.126300 
     11 N          11.280000    4.986000   14.369000 N.pl3     1 <1>        -0.472400 
     12 H          10.396000    5.269000   14.775000 H         1 <1>         0.377200 
     13 C          12.646000    6.667000   15.616000 C.3       1 <1>        -0.147400 
     14 H          13.371000    7.404000   15.256000 H         1 <1>         0.055200 
     15 H          12.990000    6.289000   16.584000 H         1 <1>         0.066700 
     16 H          11.692000    7.182000   15.767000 H         1 <1>         0.049600 
     17 C          14.960000    5.145000   13.888000 C.3       1 <1>         0.076600 
     18 H          15.390000    4.527000   13.091000 H         1 <1>         0.093700 
     19 H          15.392000    4.813000   14.838000 H         1 <1>         0.052700 
     20 N          15.311000    6.540000   13.668000 N.pl3     1 <1>        -0.551300 
     21 H          15.484000    7.078000   14.515000 H         1 <1>         0.319500 
     22 C          15.370000    7.199000   12.451000 C.ar      1 <1>         0.378000 
     23 C          16.532000    7.396000   11.671000 C.ar      1 <1>        -0.054200 
     24 C          16.441000    8.069000   10.442000 C.ar      1 <1>        -0.099000 
     25 H          17.312000    8.227000    9.810000 H         1 <1>         0.141200 
     26 C          15.218000    8.559000    9.972000 C.ar      1 <1>        -0.313500 
     27 H          15.208000    9.070000    9.013000 H         1 <1>         0.126900 
     28 C          14.067000    8.383000   10.727000 C.ar      1 <1>         0.362200 
     29 C          14.154000    7.709000   11.950000 C.ar      1 <1>        -0.410600 
     30 H          13.242000    7.574000   12.531000 H         1 <1>         0.174000 
     31 O          12.812000    8.810000   10.392000 O.3       1 <1>        -0.298600 
     32 C          12.678000    9.495000    9.147000 C.3       1 <1>         0.058500 
     33 H          11.624000    9.766000    9.031000 H         1 <1>         0.052600 
     34 H          12.951000    8.844000    8.310000 H         1 <1>         0.029900 
     35 H          13.264000   10.419000    9.140000 H         1 <1>         0.024700 
     36 O          17.714000    6.901000   12.162000 O.3       1 <1>        -0.273700 
     37 C          18.881000    7.041000   11.355000 C.3       1 <1>         0.038300 
     38 H          19.735000    6.705000   11.950000 H         1 <1>         0.046800 
     39 H          19.054000    8.089000   11.086000 H         1 <1>         0.029200 
     40 H          18.821000    6.404000   10.468000 H         1 <1>         0.038200 
     41 N           9.855000    1.540000   11.521000 N.pl3     1 <1>        -0.893900 
     42 H           8.874000    1.632000   11.763000 H         1 <1>         0.384000 
     43 H          10.084000    0.829000   10.837000 H         1 <1>         0.395000 
@<TRIPOS>BOND
     1    2    1 1    
     2    1    3 1    
     3    3    4 2    
     4    4    5 1    
     5    5    6 ar   
     6    6    7 1    
     7    7    1 1    
     8    7    8 2    
     9    6    9 ar   
    10    9   10 ar   
    11   10   11 ar   
    12   11   12 1    
    13   11    5 ar   
    14   10   13 1    
    15   13   14 1    
    16   13   15 1    
    17   13   16 1    
    18    9   17 1    
    19   17   18 1    
    20   17   19 1    
    21   17   20 1    
    22   20   21 1    
    23   20   22 1    
    24   22   23 ar   
    25   23   24 ar   
    26   24   25 1    
    27   24   26 ar   
    28   26   27 1    
    29   26   28 ar   
    30   28   29 ar   
    31   29   30 1    
    32   29   22 ar   
    33   28   31 1    
    34   31   32 1    
    35   32   33 1    
    36   32   34 1    
    37   32   35 1    
    38   23   36 1    
    39   36   37 1    
    40   37   38 1    
    41   37   39 1    
    42   37   40 1    
    43    3   41 1    
    44   41   42 1    
    45   41   43 1    
@<TRIPOS>SUBSTRUCTURE
     1 ****        2 TEMP              0 ****  ****    0 ROOT 
@<TRIPOS>SET
UNITY_3DHIT     STATIC     ATOMS    <user>   **** Atoms matching 3D or FLEX Search
0
@<TRIPOS>UNITY_BOND_ATTR
3 1
S I
