#	Name:			43-8
#	Creating user name:	jeff
#	Creation time:		Thu Dec  4 18:13:50 2003

#	Modifying user name:	jeff
#	Modification time:	Thu Dec  4 18:13:50 2003

@<TRIPOS>MOLECULE
43-8
   43    45     1     0     1
SMALL
USER_CHARGES
****
From 3DB ct
@<TRIPOS>ATOM
      1 N          12.086000    2.160000   11.702000 N.pl3     1 <1>        -0.755400 
      2 H          12.280000    1.430000   11.033000 H         1 <1>         0.339200 
      3 C          10.780000    2.374000   12.097000 C.2       1 <1>         0.876400 
      4 N          10.433000    3.291000   12.961000 N.2       1 <1>        -0.643600 
      5 C          11.472000    4.017000   13.438000 C.ar      1 <1>         0.462000 
      6 C          12.805000    3.898000   13.120000 C.ar      1 <1>        -0.536600 
      7 C          13.174000    2.877000   12.165000 C.2       1 <1>         0.764000 
      8 O          14.327000    2.657000   11.800000 O.2       1 <1>        -0.472300 
      9 C          13.529000    4.873000   13.869000 C.ar      1 <1>        -0.085000 
     10 C          12.580000    5.552000   14.632000 C.ar      1 <1>         0.115000 
     11 N          11.338000    5.021000   14.353000 N.pl3     1 <1>        -0.430400 
     12 H          10.459000    5.319000   14.760000 H         1 <1>         0.367200 
     13 C          12.738000    6.672000   15.599000 C.3       1 <1>        -0.167500 
     14 H          12.856000    7.618000   15.062000 H         1 <1>         0.065200 
     15 H          13.621000    6.519000   16.228000 H         1 <1>         0.068400 
     16 H          11.868000    6.756000   16.257000 H         1 <1>         0.054600 
     17 C          15.015000    5.118000   13.852000 C.3       1 <1>         0.315200 
     18 H          15.478000    4.507000   13.072000 H         1 <1>         0.032000 
     19 H          15.415000    4.765000   14.811000 H         1 <1>        -0.012000 
     20 N          15.397000    6.509000   13.655000 N.pl3     1 <1>        -0.658300 
     21 H          15.793000    6.981000   14.465000 H         1 <1>         0.316400 
     22 C          15.328000    7.185000   12.453000 C.ar      1 <1>         0.453600 
     23 C          16.440000    7.415000   11.634000 C.ar      1 <1>        -0.503800 
     24 H          17.425000    7.061000   11.931000 H         1 <1>         0.165500 
     25 C          16.327000    8.095000   10.416000 C.ar      1 <1>         0.388900 
     26 C          15.081000    8.566000   10.008000 C.ar      1 <1>        -0.443700 
     27 H          14.953000    9.103000    9.073000 H         1 <1>         0.154600 
     28 C          13.954000    8.354000   10.805000 C.ar      1 <1>         0.405200 
     29 C          14.083000    7.665000   12.015000 C.ar      1 <1>        -0.412500 
     30 H          13.216000    7.490000   12.646000 H         1 <1>         0.159200 
     31 O          12.793000    8.868000   10.292000 O.3       1 <1>        -0.292300 
     32 C          12.875000    9.520000    9.025000 C.3       1 <1>        -0.008600 
     33 H          11.873000    9.881000    8.774000 H         1 <1>         0.068300 
     34 H          13.185000    8.822000    8.241000 H         1 <1>         0.051600 
     35 H          13.540000   10.387000    9.073000 H         1 <1>         0.048500 
     36 O          17.501000    8.234000    9.726000 O.3       1 <1>        -0.309000 
     37 C          18.678000    7.726000   10.354000 C.3       1 <1>         0.085800 
     38 H          19.525000    7.944000    9.696000 H         1 <1>         0.043400 
     39 H          18.619000    6.639000   10.475000 H         1 <1>         0.026200 
     40 H          18.860000    8.224000   11.311000 H         1 <1>         0.018500 
     41 N           9.851000    1.574000   11.535000 N.pl3     1 <1>        -0.894300 
     42 H           8.871000    1.681000   11.775000 H         1 <1>         0.385800 
     43 H          10.069000    0.853000   10.858000 H         1 <1>         0.394400 
@<TRIPOS>BOND
     1    2    1 1    
     2    1    3 1    
     3    3    4 2    
     4    4    5 1    
     5    5    6 ar   
     6    6    7 1    
     7    7    1 1    
     8    7    8 2    
     9    6    9 ar   
    10    9   10 ar   
    11   10   11 ar   
    12   11   12 1    
    13   11    5 ar   
    14   10   13 1    
    15   13   14 1    
    16   13   15 1    
    17   13   16 1    
    18    9   17 1    
    19   17   18 1    
    20   17   19 1    
    21   17   20 1    
    22   20   21 1    
    23   20   22 1    
    24   22   23 ar   
    25   23   24 1    
    26   23   25 ar   
    27   25   26 ar   
    28   26   27 1    
    29   26   28 ar   
    30   28   29 ar   
    31   29   30 1    
    32   29   22 ar   
    33   28   31 1    
    34   31   32 1    
    35   32   33 1    
    36   32   34 1    
    37   32   35 1    
    38   25   36 1    
    39   36   37 1    
    40   37   38 1    
    41   37   39 1    
    42   37   40 1    
    43    3   41 1    
    44   41   42 1    
    45   41   43 1    
@<TRIPOS>SUBSTRUCTURE
     1 ****        2 TEMP              0 ****  ****    0 ROOT 
@<TRIPOS>SET
UNITY_3DHIT     STATIC     ATOMS    <user>   **** Atoms matching 3D or FLEX Search
0
@<TRIPOS>UNITY_BOND_ATTR
3 1
S I
