#	Name:			43-9
#	Creating user name:	jeff
#	Creation time:		Thu Dec  4 18:13:50 2003

#	Modifying user name:	jeff
#	Modification time:	Thu Dec  4 18:13:50 2003

@<TRIPOS>MOLECULE
43-9
   43    45     1     0     1
SMALL
USER_CHARGES
****
From 3DB ct
@<TRIPOS>ATOM
      1 N          12.083000    2.158000   11.703000 N.pl3     1 <1>        -0.756100 
      2 H          12.288000    1.440000   11.024000 H         1 <1>         0.337900 
      3 C          10.773000    2.357000   12.089000 C.2       1 <1>         0.872800 
      4 N          10.411000    3.263000   12.959000 N.2       1 <1>        -0.647800 
      5 C          11.439000    3.993000   13.451000 C.ar      1 <1>         0.493500 
      6 C          12.777000    3.887000   13.144000 C.ar      1 <1>        -0.562500 
      7 C          13.161000    2.879000   12.180000 C.2       1 <1>         0.768200 
      8 O          14.317000    2.682000   11.812000 O.2       1 <1>        -0.467900 
      9 C          13.486000    4.863000   13.903000 C.ar      1 <1>        -0.023500 
     10 C          12.524000    5.543000   14.649000 C.ar      1 <1>         0.092000 
     11 N          11.290000    4.993000   14.369000 N.pl3     1 <1>        -0.467100 
     12 H          10.406000    5.282000   14.772000 H         1 <1>         0.375200 
     13 C          12.666000    6.664000   15.618000 C.3       1 <1>        -0.062000 
     14 H          13.450000    7.357000   15.299000 H         1 <1>         0.031800 
     15 H          12.932000    6.275000   16.606000 H         1 <1>         0.042600 
     16 H          11.735000    7.233000   15.711000 H         1 <1>         0.034700 
     17 C          14.971000    5.118000   13.899000 C.3       1 <1>         0.093500 
     18 H          15.396000    4.502000   13.097000 H         1 <1>         0.085400 
     19 H          15.397000    4.772000   14.846000 H         1 <1>         0.041300 
     20 N          15.337000    6.511000   13.689000 N.pl3     1 <1>        -0.532500 
     21 H          15.542000    7.036000   14.536000 H         1 <1>         0.312600 
     22 C          15.349000    7.186000   12.480000 C.ar      1 <1>         0.226300 
     23 C          16.481000    7.405000   11.663000 C.ar      1 <1>         0.021600 
     24 C          16.343000    8.085000   10.440000 C.ar      1 <1>        -0.268000 
     25 H          17.198000    8.255000    9.790000 H         1 <1>         0.159800 
     26 C          15.104000    8.564000   10.007000 C.ar      1 <1>         0.274200 
     27 C          13.987000    8.366000   10.806000 C.ar      1 <1>        -0.257700 
     28 H          13.000000    8.719000   10.522000 H         1 <1>         0.146100 
     29 C          14.115000    7.686000   12.023000 C.ar      1 <1>        -0.138300 
     30 H          13.216000    7.539000   12.623000 H         1 <1>         0.146800 
     31 O          15.123000    9.200000    8.796000 O.3       1 <1>        -0.311900 
     32 C          16.374000    9.241000    8.111000 C.3       1 <1>         0.079200 
     33 H          16.227000    9.805000    7.184000 H         1 <1>         0.050400 
     34 H          16.706000    8.234000    7.840000 H         1 <1>         0.020200 
     35 H          17.132000    9.765000    8.703000 H         1 <1>         0.016700 
     36 O          17.686000    6.926000   12.116000 O.3       1 <1>        -0.259900 
     37 C          18.830000    7.089000   11.281000 C.3       1 <1>         0.008200 
     38 H          19.701000    6.730000   11.838000 H         1 <1>         0.056200 
     39 H          18.999000    8.144000   11.041000 H         1 <1>         0.033100 
     40 H          18.742000    6.481000   10.374000 H         1 <1>         0.047200 
     41 N           9.856000    1.554000   11.511000 N.pl3     1 <1>        -0.891800 
     42 H           8.873000    1.648000   11.743000 H         1 <1>         0.384900 
     43 H          10.090000    0.841000   10.830000 H         1 <1>         0.394600 
@<TRIPOS>BOND
     1    2    1 1    
     2    1    3 1    
     3    3    4 2    
     4    4    5 1    
     5    5    6 ar   
     6    6    7 1    
     7    7    1 1    
     8    7    8 2    
     9    6    9 ar   
    10    9   10 ar   
    11   10   11 ar   
    12   11   12 1    
    13   11    5 ar   
    14   10   13 1    
    15   13   14 1    
    16   13   15 1    
    17   13   16 1    
    18    9   17 1    
    19   17   18 1    
    20   17   19 1    
    21   17   20 1    
    22   20   21 1    
    23   20   22 1    
    24   22   23 ar   
    25   23   24 ar   
    26   24   25 1    
    27   24   26 ar   
    28   26   27 ar   
    29   27   28 1    
    30   27   29 ar   
    31   29   30 1    
    32   29   22 ar   
    33   26   31 1    
    34   31   32 1    
    35   32   33 1    
    36   32   34 1    
    37   32   35 1    
    38   23   36 1    
    39   36   37 1    
    40   37   38 1    
    41   37   39 1    
    42   37   40 1    
    43    3   41 1    
    44   41   42 1    
    45   41   43 1    
@<TRIPOS>SUBSTRUCTURE
     1 ****        2 TEMP              0 ****  ****    0 ROOT 
@<TRIPOS>SET
UNITY_3DHIT     STATIC     ATOMS    <user>   **** Atoms matching 3D or FLEX Search
0
@<TRIPOS>UNITY_BOND_ATTR
3 1
S I
