#	Name:			44-16
#	Creating user name:	jeff
#	Creation time:		Thu Dec  4 18:13:51 2003

#	Modifying user name:	jeff
#	Modification time:	Thu Dec  4 18:13:51 2003

@<TRIPOS>MOLECULE
44-16
   26    28     1     0     1
SMALL
USER_CHARGES
****
From 3DB ct
@<TRIPOS>ATOM
      1 N          10.263000    2.657000   13.028000 N.ar      1 <1>        -0.687900 
      2 C          10.872000    1.873000   12.117000 C.ar      1 <1>         0.750200 
      3 N          12.118000    2.026000   11.644000 N.ar      1 <1>        -0.619000 
      4 C          12.739000    3.083000   12.185000 C.ar      1 <1>         0.420500 
      5 C          12.236000    3.962000   13.121000 C.ar      1 <1>        -0.350600 
      6 C          10.924000    3.719000   13.554000 C.ar      1 <1>         0.710300 
      7 N          10.274000    4.499000   14.481000 N.pl3     1 <1>        -0.775500 
      8 H          10.738000    5.301000   14.894000 H         1 <1>         0.368000 
      9 H           9.326000    4.277000   14.757000 H         1 <1>         0.354800 
     10 N          13.174000    4.924000   13.437000 N.ar      1 <1>        -0.281900 
     11 C          14.245000    4.642000   12.703000 C.ar      1 <1>         0.210600 
     12 N          14.007000    3.522000   11.928000 N.pl3     1 <1>        -0.457300 
     13 H          14.651000    3.091000   11.281000 H         1 <1>         0.352100 
     14 C          15.504000    5.400000   12.705000 C.ar      1 <1>         0.262100 
     15 C          16.596000    5.052000   11.905000 C.ar      1 <1>        -0.409100 
     16 H          16.581000    4.200000   11.233000 H         1 <1>         0.148800 
     17 C          17.747000    5.824000   11.970000 C.ar      1 <1>         0.297500 
     18 H          18.612000    5.575000   11.358000 H         1 <1>         0.070800 
     19 N          17.884000    6.907000   12.769000 N.ar      1 <1>        -0.476200 
     20 C          16.819000    7.230000   13.536000 C.ar      1 <1>         0.262600 
     21 H          16.940000    8.103000   14.174000 H         1 <1>         0.082100 
     22 C          15.630000    6.518000   13.536000 C.ar      1 <1>        -0.328300 
     23 H          14.816000    6.838000   14.181000 H         1 <1>         0.144400 
     24 N          10.152000    0.824000   11.630000 N.pl3     1 <1>        -0.787600 
     25 H          10.565000    0.208000   10.946000 H         1 <1>         0.369700 
     26 H           9.210000    0.671000   11.958000 H         1 <1>         0.368800 
@<TRIPOS>BOND
     1    1    2 ar   
     2    2    3 ar   
     3    3    4 ar   
     4    4    5 ar   
     5    5    6 ar   
     6    6    1 ar   
     7    6    7 1    
     8    7    8 1    
     9    7    9 1    
    10    5   10 ar   
    11   10   11 ar   
    12   11   12 ar   
    13   12   13 1    
    14   12    4 ar   
    15   11   14 1    
    16   14   15 ar   
    17   15   16 1    
    18   15   17 ar   
    19   17   18 1    
    20   17   19 ar   
    21   19   20 ar   
    22   20   21 1    
    23   20   22 ar   
    24   22   23 1    
    25   22   14 ar   
    26    2   24 1    
    27   24   25 1    
    28   24   26 1    
@<TRIPOS>SUBSTRUCTURE
     1 ****        1 TEMP              0 ****  ****    0 ROOT 
@<TRIPOS>SET
UNITY_3DHIT     STATIC     ATOMS    <user>   **** Atoms matching 3D or FLEX Search
0
