#	Name:			44-18
#	Creating user name:	jeff
#	Creation time:		Thu Dec  4 18:13:51 2003

#	Modifying user name:	jeff
#	Modification time:	Thu Dec  4 18:13:51 2003

@<TRIPOS>MOLECULE
44-18
   37    40     1     0     1
SMALL
USER_CHARGES
****
From 3DB ct
@<TRIPOS>ATOM
      1 N          10.303000    2.636000   13.148000 N.ar      1 <1>        -0.690400 
      2 C          10.872000    1.841000   12.220000 C.ar      1 <1>         0.735400 
      3 N          12.085000    2.003000   11.671000 N.ar      1 <1>        -0.597600 
      4 C          12.718000    3.084000   12.151000 C.ar      1 <1>         0.374700 
      5 C          12.254000    3.976000   13.096000 C.ar      1 <1>        -0.340200 
      6 C          10.974000    3.721000   13.611000 C.ar      1 <1>         0.719500 
      7 N          10.365000    4.511000   14.557000 N.pl3     1 <1>        -0.779000 
      8 H          10.838000    5.329000   14.924000 H         1 <1>         0.369200 
      9 H           9.440000    4.279000   14.893000 H         1 <1>         0.350600 
     10 N          13.191000    4.963000   13.336000 N.ar      1 <1>        -0.343900 
     11 C          14.218000    4.676000   12.548000 C.ar      1 <1>         0.395700 
     12 N          13.959000    3.538000   11.810000 N.pl3     1 <1>        -0.452000 
     13 H          14.584000    3.109000   11.142000 H         1 <1>         0.338000 
     14 C          15.473000    5.434000   12.427000 C.ar      1 <1>        -0.290300 
     15 C          16.643000    4.845000   12.931000 C.ar      1 <1>         0.027400 
     16 H          16.613000    3.858000   13.391000 H         1 <1>         0.096700 
     17 C          17.872000    5.494000   12.839000 C.ar      1 <1>        -0.290600 
     18 H          18.741000    4.982000   13.245000 H         1 <1>         0.130600 
     19 C          17.960000    6.750000   12.241000 C.ar      1 <1>         0.284500 
     20 C          16.796000    7.377000   11.724000 C.ar      1 <1>        -0.156200 
     21 C          15.537000    6.718000   11.816000 C.ar      1 <1>         0.266800 
     22 C          14.400000    7.393000   11.302000 C.ar      1 <1>        -0.230900 
     23 H          13.412000    6.937000   11.357000 H         1 <1>         0.147500 
     24 C          14.486000    8.654000   10.710000 C.ar      1 <1>        -0.039000 
     25 H          13.590000    9.138000   10.326000 H         1 <1>         0.099500 
     26 C          15.714000    9.285000   10.617000 C.ar      1 <1>        -0.140500 
     27 H          15.793000   10.269000   10.157000 H         1 <1>         0.111000 
     28 C          16.852000    8.654000   11.118000 C.ar      1 <1>        -0.048200 
     29 H          17.803000    9.181000   11.032000 H         1 <1>         0.093500 
     30 O          19.137000    7.452000   12.113000 O.3       1 <1>        -0.247300 
     31 C          20.327000    6.849000   12.618000 C.3       1 <1>        -0.004500 
     32 H          21.154000    7.540000   12.431000 H         1 <1>         0.069900 
     33 H          20.548000    5.914000   12.094000 H         1 <1>         0.045900 
     34 H          20.261000    6.696000   13.700000 H         1 <1>         0.048800 
     35 N          10.144000    0.769000   11.800000 N.pl3     1 <1>        -0.786800 
     36 H          10.527000    0.144000   11.107000 H         1 <1>         0.364700 
     37 H           9.225000    0.608000   12.186000 H         1 <1>         0.367900 
@<TRIPOS>BOND
     1    1    2 ar   
     2    2    3 ar   
     3    3    4 ar   
     4    4    5 ar   
     5    5    6 ar   
     6    6    1 ar   
     7    6    7 1    
     8    7    8 1    
     9    7    9 1    
    10    5   10 ar   
    11   10   11 ar   
    12   11   12 ar   
    13   12   13 1    
    14   12    4 ar   
    15   11   14 1    
    16   14   15 ar   
    17   15   16 1    
    18   15   17 ar   
    19   17   18 1    
    20   17   19 ar   
    21   19   20 ar   
    22   20   21 ar   
    23   21   14 ar   
    24   21   22 ar   
    25   22   23 1    
    26   22   24 ar   
    27   24   25 1    
    28   24   26 ar   
    29   26   27 1    
    30   26   28 ar   
    31   28   29 1    
    32   28   20 ar   
    33   19   30 1    
    34   30   31 1    
    35   31   32 1    
    36   31   33 1    
    37   31   34 1    
    38    2   35 1    
    39   35   36 1    
    40   35   37 1    
@<TRIPOS>SUBSTRUCTURE
     1 ****        1 TEMP              0 ****  ****    0 ROOT 
@<TRIPOS>SET
UNITY_3DHIT     STATIC     ATOMS    <user>   **** Atoms matching 3D or FLEX Search
0
