#	Name:			44-19
#	Creating user name:	jeff
#	Creation time:		Thu Dec  4 18:13:51 2003

#	Modifying user name:	jeff
#	Modification time:	Thu Dec  4 18:13:51 2003

@<TRIPOS>MOLECULE
44-19
   38    42     1     0     1
SMALL
USER_CHARGES
****
From 3DB ct
@<TRIPOS>ATOM
      1 N          13.130000    4.990000   13.502000 N.ar      1 <1>        -0.371800 
      2 C          14.233000    4.682000   12.729000 C.ar      1 <1>         0.397300 
      3 N          14.071000    3.629000   11.976000 N.pl3     1 <1>        -0.539400 
      4 H          14.738000    3.354000   11.438000 H         1 <1>         0.373800 
      5 C          12.802000    3.194000   12.241000 C.ar      1 <1>         0.411400 
      6 N          12.239000    2.119000   11.662000 N.ar      1 <1>        -0.606200 
      7 C          10.998000    1.864000   12.056000 C.ar      1 <1>         0.739800 
      8 N          10.285000    2.592000   12.974000 N.ar      1 <1>        -0.686300 
      9 C          10.876000    3.657000   13.531000 C.ar      1 <1>         0.696800 
     10 C          12.187000    4.011000   13.181000 C.ar      1 <1>        -0.287000 
     11 N          10.200000    4.412000   14.452000 N.pl3     1 <1>        -0.801200 
     12 H          10.602000    5.212000   14.892000 H         1 <1>         0.377000 
     13 H           9.263000    4.142000   14.690000 H         1 <1>         0.360600 
     14 N          10.366000    0.802000   11.521000 N.pl3     1 <1>        -0.811400 
     15 H           9.430000    0.586000   11.800000 H         1 <1>         0.377700 
     16 H          10.840000    0.236000   10.846000 H         1 <1>         0.373300 
     17 C          15.483000    5.520000   12.791000 C.3       1 <1>        -0.251000 
     18 H          15.711000    5.748000   13.846000 H         1 <1>         0.141400 
     19 C          16.703000    4.884000   12.154000 C.ar      1 <1>         0.098800 
     20 C          17.286000    3.671000   12.396000 C.ar      1 <1>        -0.171000 
     21 H          16.861000    2.967000   13.140000 H         1 <1>         0.143900 
     22 C          18.455000    3.288000   11.677000 C.ar      1 <1>        -0.092600 
     23 H          18.911000    2.300000   11.883000 H         1 <1>         0.107300 
     24 C          19.023000    4.123000   10.733000 C.ar      1 <1>        -0.108300 
     25 H          19.932000    3.805000   10.187000 H         1 <1>         0.106600 
     26 C          18.438000    5.392000   10.450000 C.ar      1 <1>        -0.113600 
     27 H          18.893000    6.053000    9.685000 H         1 <1>         0.122900 
     28 C          17.321000    5.749000   11.135000 C.ar      1 <1>        -0.045400 
     29 C          16.516000    6.957000   11.048000 C.ar      1 <1>        -0.018000 
     30 C          16.667000    8.051000   10.257000 C.ar      1 <1>        -0.125200 
     31 H          17.502000    8.141000    9.534000 H         1 <1>         0.125100 
     32 C          15.709000    9.100000   10.372000 C.ar      1 <1>        -0.105000 
     33 H          15.806000   10.002000    9.738000 H         1 <1>         0.106800 
     34 C          14.658000    8.990000   11.263000 C.ar      1 <1>        -0.098600 
     35 H          13.913000    9.806000   11.338000 H         1 <1>         0.107800 
     36 C          14.508000    7.842000   12.093000 C.ar      1 <1>        -0.161700 
     37 H          13.647000    7.793000   12.790000 H         1 <1>         0.140800 
     38 C          15.414000    6.821000   12.014000 C.ar      1 <1>         0.084500 
@<TRIPOS>BOND
     1    1    2 ar   
     2    2    3 ar   
     3    3    4 1    
     4    3    5 ar   
     5    5    6 ar   
     6    6    7 ar   
     7    7    8 ar   
     8    8    9 ar   
     9    9   10 ar   
    10   10    1 ar   
    11   10    5 ar   
    12    9   11 1    
    13   11   12 1    
    14   11   13 1    
    15    7   14 1    
    16   14   15 1    
    17   14   16 1    
    18    2   17 1    
    19   17   18 1    
    20   17   19 1    
    21   19   20 ar   
    22   20   21 1    
    23   20   22 ar   
    24   22   23 1    
    25   22   24 ar   
    26   24   25 1    
    27   24   26 ar   
    28   26   27 1    
    29   26   28 ar   
    30   28   19 ar   
    31   28   29 1    
    32   29   30 ar   
    33   30   31 1    
    34   30   32 ar   
    35   32   33 1    
    36   32   34 ar   
    37   34   35 1    
    38   34   36 ar   
    39   36   37 1    
    40   36   38 ar   
    41   38   17 1    
    42   38   29 ar   
@<TRIPOS>SUBSTRUCTURE
     1 ****        1 TEMP              0 ****  ****    0 ROOT 
@<TRIPOS>SET
UNITY_3DHIT     STATIC     ATOMS    <user>   **** Atoms matching 3D or FLEX Search
0
