#	Name:			44-10
#	Creating user name:	jeff
#	Creation time:		Thu Dec  4 18:13:50 2003

#	Modifying user name:	jeff
#	Modification time:	Thu Dec  4 18:13:51 2003

@<TRIPOS>MOLECULE
44-10
   35    37     1     0     1
SMALL
USER_CHARGES
****
From 3DB ct
@<TRIPOS>ATOM
      1 N          10.264000    2.657000   13.028000 N.ar      1 <1>        -0.694100 
      2 C          10.873000    1.873000   12.117000 C.ar      1 <1>         0.744000 
      3 N          12.118000    2.025000   11.643000 N.ar      1 <1>        -0.614900 
      4 C          12.740000    3.083000   12.184000 C.ar      1 <1>         0.412000 
      5 C          12.237000    3.963000   13.121000 C.ar      1 <1>        -0.384600 
      6 C          10.924000    3.719000   13.554000 C.ar      1 <1>         0.734200 
      7 N          10.274000    4.500000   14.481000 N.pl3     1 <1>        -0.789400 
      8 H          10.739000    5.301000   14.894000 H         1 <1>         0.370500 
      9 H           9.326000    4.278000   14.756000 H         1 <1>         0.352900 
     10 N          13.174000    4.925000   13.437000 N.ar      1 <1>        -0.275400 
     11 C          14.243000    4.640000   12.705000 C.ar      1 <1>         0.314200 
     12 N          14.006000    3.522000   11.928000 N.pl3     1 <1>        -0.446600 
     13 H          14.661000    3.090000   11.291000 H         1 <1>         0.334400 
     14 C          15.515000    5.376000   12.685000 C.ar      1 <1>        -0.183300 
     15 C          16.563000    4.950000   11.852000 C.ar      1 <1>        -0.020400 
     16 H          16.442000    4.081000   11.206000 H         1 <1>         0.113900 
     17 C          17.785000    5.636000   11.811000 C.ar      1 <1>        -0.307400 
     18 H          18.555000    5.258000   11.144000 H         1 <1>         0.134700 
     19 C          17.987000    6.759000   12.610000 C.ar      1 <1>         0.405800 
     20 C          16.955000    7.195000   13.442000 C.ar      1 <1>        -0.410900 
     21 H          17.115000    8.058000   14.086000 H         1 <1>         0.176100 
     22 C          15.725000    6.523000   13.467000 C.ar      1 <1>         0.334800 
     23 O          14.760000    6.948000   14.348000 O.3       1 <1>        -0.273400 
     24 C          15.186000    8.130000   15.035000 C.3       1 <1>         0.007300 
     25 H          14.313000    8.553000   15.540000 H         1 <1>         0.063100 
     26 H          15.574000    8.883000   14.340000 H         1 <1>         0.044800 
     27 H          15.934000    7.889000   15.797000 H         1 <1>         0.046300 
     28 O          19.131000    7.505000   12.674000 O.3       1 <1>        -0.314200 
     29 C          20.215000    7.093000   11.842000 C.3       1 <1>         0.068300 
     30 H          21.045000    7.785000   12.010000 H         1 <1>         0.060300 
     31 H          19.941000    7.149000   10.783000 H         1 <1>         0.028200 
     32 H          20.557000    6.088000   12.111000 H         1 <1>         0.025700 
     33 N          10.152000    0.824000   11.630000 N.pl3     1 <1>        -0.791300 
     34 H          10.564000    0.208000   10.945000 H         1 <1>         0.366800 
     35 H           9.209000    0.672000   11.958000 H         1 <1>         0.367800 
@<TRIPOS>BOND
     1    1    2 ar   
     2    2    3 ar   
     3    3    4 ar   
     4    4    5 ar   
     5    5    6 ar   
     6    6    1 ar   
     7    6    7 1    
     8    7    8 1    
     9    7    9 1    
    10    5   10 ar   
    11   10   11 ar   
    12   11   12 ar   
    13   12   13 1    
    14   12    4 ar   
    15   11   14 1    
    16   14   15 ar   
    17   15   16 1    
    18   15   17 ar   
    19   17   18 1    
    20   17   19 ar   
    21   19   20 ar   
    22   20   21 1    
    23   20   22 ar   
    24   22   14 ar   
    25   22   23 1    
    26   23   24 1    
    27   24   25 1    
    28   24   26 1    
    29   24   27 1    
    30   19   28 1    
    31   28   29 1    
    32   29   30 1    
    33   29   31 1    
    34   29   32 1    
    35    2   33 1    
    36   33   34 1    
    37   33   35 1    
@<TRIPOS>SUBSTRUCTURE
     1 ****        1 TEMP              0 ****  ****    0 ROOT 
@<TRIPOS>SET
UNITY_3DHIT     STATIC     ATOMS    <user>   **** Atoms matching 3D or FLEX Search
0
