#	Name:			44-14
#	Creating user name:	jeff
#	Creation time:		Thu Dec  4 18:13:51 2003

#	Modifying user name:	jeff
#	Modification time:	Thu Dec  4 18:13:51 2003

@<TRIPOS>MOLECULE
44-14
   37    39     1     0     1
SMALL
USER_CHARGES
****
From 3DB ct
@<TRIPOS>ATOM
      1 N          10.263000    2.657000   13.027000 N.ar      1 <1>        -0.693900 
      2 C          10.872000    1.873000   12.117000 C.ar      1 <1>         0.749200 
      3 N          12.118000    2.025000   11.644000 N.ar      1 <1>        -0.612700 
      4 C          12.740000    3.083000   12.184000 C.ar      1 <1>         0.417100 
      5 C          12.236000    3.962000   13.121000 C.ar      1 <1>        -0.370300 
      6 C          10.924000    3.719000   13.554000 C.ar      1 <1>         0.737200 
      7 N          10.275000    4.500000   14.481000 N.pl3     1 <1>        -0.774200 
      8 H          10.739000    5.302000   14.892000 H         1 <1>         0.371700 
      9 H           9.327000    4.280000   14.756000 H         1 <1>         0.351400 
     10 N          13.175000    4.924000   13.438000 N.ar      1 <1>        -0.281800 
     11 C          14.242000    4.642000   12.703000 C.ar      1 <1>         0.373700 
     12 N          14.007000    3.522000   11.928000 N.pl3     1 <1>        -0.478500 
     13 H          14.660000    3.088000   11.291000 H         1 <1>         0.351300 
     14 C          15.504000    5.393000   12.693000 C.ar      1 <1>        -0.187200 
     15 C          16.543000    5.011000   11.825000 C.ar      1 <1>        -0.124500 
     16 H          16.427000    4.157000   11.160000 H         1 <1>         0.122500 
     17 C          17.738000    5.743000   11.764000 C.ar      1 <1>         0.177500 
     18 C          17.948000    6.842000   12.605000 C.ar      1 <1>         0.205700 
     19 C          16.923000    7.258000   13.450000 C.ar      1 <1>        -0.235200 
     20 H          17.063000    8.126000   14.090000 H         1 <1>         0.196300 
     21 C          15.723000    6.530000   13.488000 C.ar      1 <1>         0.074500 
     22 N          14.720000    6.979000   14.434000 N.2       1 <1>         0.552200 
     23 O          14.139000    8.051000   14.189000 O.2       1 <1>        -0.353300 
     24 O          14.549000    6.294000   15.460000 O.3       1 <1>        -0.351100 
     25 O          19.085000    7.604000   12.628000 O.3       1 <1>        -0.279300 
     26 C          20.107000    7.135000   11.743000 C.3       1 <1>         0.060100 
     27 H          21.072000    7.422000   12.172000 H         1 <1>         0.056000 
     28 H          20.018000    7.625000   10.770000 H         1 <1>         0.037200 
     29 H          20.099000    6.045000   11.634000 H         1 <1>         0.035000 
     30 O          18.692000    5.320000   10.875000 O.3       1 <1>        -0.250800 
     31 C          18.212000    4.181000   10.148000 C.3       1 <1>        -0.004000 
     32 H          19.006000    3.864000    9.466000 H         1 <1>         0.073200 
     33 H          17.331000    4.436000    9.550000 H         1 <1>         0.054500 
     34 H          17.989000    3.348000   10.824000 H         1 <1>         0.047700 
     35 N          10.152000    0.824000   11.630000 N.pl3     1 <1>        -0.783100 
     36 H          10.565000    0.208000   10.946000 H         1 <1>         0.366900 
     37 H           9.210000    0.671000   11.958000 H         1 <1>         0.368900 
@<TRIPOS>BOND
     1    1    2 ar   
     2    2    3 ar   
     3    3    4 ar   
     4    4    5 ar   
     5    5    6 ar   
     6    6    1 ar   
     7    6    7 1    
     8    7    8 1    
     9    7    9 1    
    10    5   10 ar   
    11   10   11 ar   
    12   11   12 ar   
    13   12   13 1    
    14   12    4 ar   
    15   11   14 1    
    16   14   15 ar   
    17   15   16 1    
    18   15   17 ar   
    19   17   18 ar   
    20   18   19 ar   
    21   19   20 1    
    22   19   21 ar   
    23   21   14 ar   
    24   21   22 1    
    25   22   23 2    
    26   22   24 1    
    27   18   25 1    
    28   25   26 1    
    29   26   27 1    
    30   26   28 1    
    31   26   29 1    
    32   17   30 1    
    33   30   31 1    
    34   31   32 1    
    35   31   33 1    
    36   31   34 1    
    37    2   35 1    
    38   35   36 1    
    39   35   37 1    
@<TRIPOS>SUBSTRUCTURE
     1 ****        1 TEMP              0 ****  ****    0 ROOT 
@<TRIPOS>SET
UNITY_3DHIT     STATIC     ATOMS    <user>   **** Atoms matching 3D or FLEX Search
0
@<TRIPOS>UNITY_ATOM_ATTR
22 1
AtomExpr +1
24 1
AtomExpr -1
