#	Name:			44-11
#	Creating user name:	jeff
#	Creation time:		Thu Dec  4 18:13:51 2003

#	Modifying user name:	jeff
#	Modification time:	Thu Dec  4 18:13:51 2003

@<TRIPOS>MOLECULE
44-11
   27    29     1     0     1
SMALL
USER_CHARGES
****
From 3DB ct
@<TRIPOS>ATOM
      1 N          10.263000    2.657000   13.028000 N.ar      1 <1>        -0.697300 
      2 C          10.872000    1.873000   12.117000 C.ar      1 <1>         0.765000 
      3 N          12.118000    2.026000   11.644000 N.ar      1 <1>        -0.629700 
      4 C          12.739000    3.083000   12.185000 C.ar      1 <1>         0.440900 
      5 C          12.236000    3.962000   13.121000 C.ar      1 <1>        -0.394900 
      6 C          10.924000    3.719000   13.554000 C.ar      1 <1>         0.730300 
      7 N          10.274000    4.500000   14.481000 N.pl3     1 <1>        -0.783100 
      8 H          10.738000    5.301000   14.893000 H         1 <1>         0.369900 
      9 H           9.326000    4.278000   14.756000 H         1 <1>         0.358400 
     10 N          13.174000    4.924000   13.437000 N.ar      1 <1>        -0.236700 
     11 C          14.245000    4.642000   12.703000 C.ar      1 <1>         0.178300 
     12 N          14.007000    3.522000   11.929000 N.pl3     1 <1>        -0.441800 
     13 H          14.651000    3.091000   11.282000 H         1 <1>         0.346400 
     14 C          15.504000    5.402000   12.705000 C.ar      1 <1>         0.065700 
     15 C          16.590000    5.065000   11.884000 C.ar      1 <1>        -0.174900 
     16 H          16.546000    4.218000   11.202000 H         1 <1>         0.121100 
     17 C          17.773000    5.814000   11.916000 C.ar      1 <1>         0.114600 
     18 H          18.598000    5.529000   11.267000 H         1 <1>         0.064000 
     19 C          17.889000    6.913000   12.768000 C.ar      1 <1>        -0.257300 
     20 C          16.816000    7.262000   13.592000 C.ar      1 <1>        -0.212700 
     21 C          15.635000    6.510000   13.557000 C.ar      1 <1>         0.105500 
     22 H          14.805000    6.792000   14.204000 H         1 <1>         0.053400 
     23 Cl         16.884000    8.609000   14.675000 Cl        1 <1>         0.083100 
     24 Cl         19.376000    7.793000   12.757000 Cl        1 <1>         0.083400 
     25 N          10.152000    0.824000   11.630000 N.pl3     1 <1>        -0.798200 
     26 H          10.565000    0.208000   10.945000 H         1 <1>         0.373900 
     27 H           9.209000    0.671000   11.957000 H         1 <1>         0.372800 
@<TRIPOS>BOND
     1    1    2 ar   
     2    2    3 ar   
     3    3    4 ar   
     4    4    5 ar   
     5    5    6 ar   
     6    6    1 ar   
     7    6    7 1    
     8    7    8 1    
     9    7    9 1    
    10    5   10 ar   
    11   10   11 ar   
    12   11   12 ar   
    13   12   13 1    
    14   12    4 ar   
    15   11   14 1    
    16   14   15 ar   
    17   15   16 1    
    18   15   17 ar   
    19   17   18 1    
    20   17   19 ar   
    21   19   20 ar   
    22   20   21 ar   
    23   21   22 1    
    24   21   14 ar   
    25   20   23 1    
    26   19   24 1    
    27    2   25 1    
    28   25   26 1    
    29   25   27 1    
@<TRIPOS>SUBSTRUCTURE
     1 ****        1 TEMP              0 ****  ****    0 ROOT 
@<TRIPOS>SET
UNITY_3DHIT     STATIC     ATOMS    <user>   **** Atoms matching 3D or FLEX Search
0
