#	Name:			44-12
#	Creating user name:	jeff
#	Creation time:		Thu Dec  4 18:13:51 2003

#	Modifying user name:	jeff
#	Modification time:	Thu Dec  4 18:13:51 2003

@<TRIPOS>MOLECULE
44-12
   27    29     1     0     1
SMALL
USER_CHARGES
****
From 3DB ct
@<TRIPOS>ATOM
      1 N          10.264000    2.658000   13.027000 N.ar      1 <1>        -0.657700 
      2 C          10.873000    1.873000   12.116000 C.ar      1 <1>         0.696300 
      3 N          12.119000    2.025000   11.644000 N.ar      1 <1>        -0.595900 
      4 C          12.741000    3.083000   12.184000 C.ar      1 <1>         0.383700 
      5 C          12.238000    3.963000   13.121000 C.ar      1 <1>        -0.230400 
      6 C          10.925000    3.720000   13.554000 C.ar      1 <1>         0.643100 
      7 N          10.275000    4.500000   14.481000 N.pl3     1 <1>        -0.751300 
      8 H          10.740000    5.301000   14.894000 H         1 <1>         0.358300 
      9 H           9.327000    4.278000   14.757000 H         1 <1>         0.350600 
     10 N          13.174000    4.927000   13.439000 N.ar      1 <1>        -0.257300 
     11 C          14.236000    4.638000   12.703000 C.ar      1 <1>        -0.241000 
     12 N          14.008000    3.520000   11.927000 N.pl3     1 <1>        -0.288000 
     13 H          14.662000    3.097000   11.283000 H         1 <1>         0.289800 
     14 C          15.503000    5.367000   12.681000 C.ar      1 <1>         0.895700 
     15 C          15.778000    6.311000   11.674000 C.ar      1 <1>        -0.600500 
     16 C          16.990000    7.011000   11.658000 C.ar      1 <1>         0.179500 
     17 H          17.198000    7.740000   10.877000 H         1 <1>         0.062300 
     18 C          17.945000    6.782000   12.646000 C.ar      1 <1>        -0.242200 
     19 H          18.887000    7.327000   12.633000 H         1 <1>         0.136000 
     20 C          17.690000    5.852000   13.651000 C.ar      1 <1>         0.232100 
     21 H          18.442000    5.677000   14.418000 H         1 <1>         0.050600 
     22 C          16.479000    5.149000   13.670000 C.ar      1 <1>        -0.648400 
     23 Cl         16.255000    3.997000   14.947000 Cl        1 <1>         0.146000 
     24 Cl         14.647000    6.661000   10.407000 Cl        1 <1>         0.123900 
     25 N          10.152000    0.825000   11.630000 N.pl3     1 <1>        -0.753800 
     26 H          10.565000    0.209000   10.945000 H         1 <1>         0.360000 
     27 H           9.210000    0.673000   11.957000 H         1 <1>         0.358600 
@<TRIPOS>BOND
     1    1    2 ar   
     2    2    3 ar   
     3    3    4 ar   
     4    4    5 ar   
     5    5    6 ar   
     6    6    1 ar   
     7    6    7 1    
     8    7    8 1    
     9    7    9 1    
    10    5   10 ar   
    11   10   11 ar   
    12   11   12 ar   
    13   12   13 1    
    14   12    4 ar   
    15   11   14 1    
    16   14   15 ar   
    17   15   16 ar   
    18   16   17 1    
    19   16   18 ar   
    20   18   19 1    
    21   18   20 ar   
    22   20   21 1    
    23   20   22 ar   
    24   22   14 ar   
    25   22   23 1    
    26   15   24 1    
    27    2   25 1    
    28   25   26 1    
    29   25   27 1    
@<TRIPOS>SUBSTRUCTURE
     1 ****        1 TEMP              0 ****  ****    0 ROOT 
@<TRIPOS>SET
UNITY_3DHIT     STATIC     ATOMS    <user>   **** Atoms matching 3D or FLEX Search
0
