#	Name:			44-17
#	Creating user name:	jeff
#	Creation time:		Thu Dec  4 18:13:51 2003

#	Modifying user name:	jeff
#	Modification time:	Thu Dec  4 18:13:51 2003

@<TRIPOS>MOLECULE
44-17
   33    36     1     0     1
SMALL
USER_CHARGES
****
From 3DB ct
@<TRIPOS>ATOM
      1 N          10.263000    2.657000   13.028000 N.ar      1 <1>        -0.692900 
      2 C          10.872000    1.873000   12.117000 C.ar      1 <1>         0.743900 
      3 N          12.118000    2.026000   11.644000 N.ar      1 <1>        -0.612800 
      4 C          12.739000    3.083000   12.185000 C.ar      1 <1>         0.419500 
      5 C          12.236000    3.962000   13.121000 C.ar      1 <1>        -0.369300 
      6 C          10.924000    3.719000   13.554000 C.ar      1 <1>         0.724800 
      7 N          10.274000    4.499000   14.481000 N.pl3     1 <1>        -0.781000 
      8 H          10.738000    5.301000   14.894000 H         1 <1>         0.368200 
      9 H           9.326000    4.277000   14.757000 H         1 <1>         0.352900 
     10 N          13.174000    4.924000   13.437000 N.ar      1 <1>        -0.311700 
     11 C          14.245000    4.642000   12.703000 C.ar      1 <1>         0.339700 
     12 N          14.007000    3.522000   11.929000 N.pl3     1 <1>        -0.488300 
     13 H          14.651000    3.091000   11.282000 H         1 <1>         0.354600 
     14 C          15.506000    5.399000   12.704000 C.ar      1 <1>        -0.053900 
     15 C          16.589000    5.061000   11.883000 C.ar      1 <1>        -0.111800 
     16 H          16.543000    4.214000   11.201000 H         1 <1>         0.106000 
     17 C          17.773000    5.807000   11.913000 C.ar      1 <1>        -0.172600 
     18 H          18.595000    5.513000   11.260000 H         1 <1>         0.127700 
     19 C          17.906000    6.912000   12.765000 C.ar      1 <1>         0.079600 
     20 C          16.825000    7.269000   13.599000 C.ar      1 <1>         0.102900 
     21 C          15.642000    6.509000   13.556000 C.ar      1 <1>        -0.118300 
     22 H          14.808000    6.787000   14.202000 H         1 <1>         0.121200 
     23 C          16.955000    8.377000   14.454000 C.ar      1 <1>        -0.183800 
     24 H          16.133000    8.670000   15.106000 H         1 <1>         0.133100 
     25 C          18.136000    9.120000   14.484000 C.ar      1 <1>        -0.107500 
     26 H          18.223000    9.976000   15.151000 H         1 <1>         0.111900 
     27 C          19.201000    8.767000   13.661000 C.ar      1 <1>        -0.076100 
     28 H          20.123000    9.346000   13.683000 H         1 <1>         0.105500 
     29 C          19.088000    7.670000   12.806000 C.ar      1 <1>        -0.181400 
     30 H          19.933000    7.409000   12.169000 H         1 <1>         0.123500 
     31 N          10.152000    0.824000   11.630000 N.pl3     1 <1>        -0.789800 
     32 H          10.565000    0.208000   10.946000 H         1 <1>         0.367500 
     33 H           9.210000    0.671000   11.958000 H         1 <1>         0.368400 
@<TRIPOS>BOND
     1    1    2 ar   
     2    2    3 ar   
     3    3    4 ar   
     4    4    5 ar   
     5    5    6 ar   
     6    6    1 ar   
     7    6    7 1    
     8    7    8 1    
     9    7    9 1    
    10    5   10 ar   
    11   10   11 ar   
    12   11   12 ar   
    13   12   13 1    
    14   12    4 ar   
    15   11   14 1    
    16   14   15 ar   
    17   15   16 1    
    18   15   17 ar   
    19   17   18 1    
    20   17   19 ar   
    21   19   20 ar   
    22   20   21 ar   
    23   21   22 1    
    24   21   14 ar   
    25   20   23 ar   
    26   23   24 1    
    27   23   25 ar   
    28   25   26 1    
    29   25   27 ar   
    30   27   28 1    
    31   27   29 ar   
    32   29   30 1    
    33   29   19 ar   
    34    2   31 1    
    35   31   32 1    
    36   31   33 1    
@<TRIPOS>SUBSTRUCTURE
     1 ****        1 TEMP              0 ****  ****    0 ROOT 
@<TRIPOS>SET
UNITY_3DHIT     STATIC     ATOMS    <user>   **** Atoms matching 3D or FLEX Search
0
