#	Name:			44-23
#	Creating user name:	jeff
#	Creation time:		Thu Dec  4 18:13:51 2003

#	Modifying user name:	jeff
#	Modification time:	Thu Dec  4 18:13:51 2003

@<TRIPOS>MOLECULE
44-23
   37    40     1     0     1
SMALL
USER_CHARGES
****
From 3DB ct
@<TRIPOS>ATOM
      1 N          10.391000    2.827000   13.177000 N.ar      1 <1>        -0.694100 
      2 C          10.713000    2.042000   12.130000 C.ar      1 <1>         0.754500 
      3 N          11.908000    1.977000   11.524000 N.ar      1 <1>        -0.615500 
      4 C          12.804000    2.806000   12.078000 C.ar      1 <1>         0.378900 
      5 C          12.609000    3.659000   13.148000 C.ar      1 <1>        -0.338100 
      6 C          11.324000    3.654000   13.714000 C.ar      1 <1>         0.717000 
      7 N          10.963000    4.440000   14.783000 N.pl3     1 <1>        -0.778800 
      8 H          11.635000    5.069000   15.207000 H         1 <1>         0.367100 
      9 H          10.021000    4.395000   15.151000 H         1 <1>         0.355300 
     10 N          13.768000    4.355000   13.436000 N.ar      1 <1>        -0.279900 
     11 C          14.656000    3.936000   12.546000 C.ar      1 <1>         0.222500 
     12 N          14.106000    2.988000   11.707000 N.pl3     1 <1>        -0.409800 
     13 H          14.577000    2.516000   10.947000 H         1 <1>         0.343200 
     14 C          16.080000    4.370000   12.412000 C.3       1 <1>        -0.251900 
     15 H          16.339000    4.487000   11.355000 H         1 <1>         0.099200 
     16 H          16.735000    3.604000   12.841000 H         1 <1>         0.163700 
     17 S          16.343000    5.950000   13.298000 S.3       1 <1>        -0.014700 
     18 C          15.931000    7.096000   11.994000 C.ar      1 <1>        -0.034400 
     19 C          14.607000    7.311000   11.607000 C.ar      1 <1>        -0.062500 
     20 H          13.790000    6.782000   12.093000 H         1 <1>         0.117900 
     21 C          14.308000    8.223000   10.591000 C.ar      1 <1>        -0.217300 
     22 H          13.266000    8.369000   10.307000 H         1 <1>         0.141200 
     23 C          15.327000    8.941000    9.949000 C.ar      1 <1>         0.117000 
     24 C          16.669000    8.738000   10.345000 C.ar      1 <1>         0.028000 
     25 C          16.954000    7.818000   11.370000 C.ar      1 <1>        -0.108900 
     26 H          17.988000    7.662000   11.677000 H         1 <1>         0.112100 
     27 C          17.689000    9.460000    9.704000 C.ar      1 <1>        -0.146800 
     28 H          18.730000    9.321000    9.994000 H         1 <1>         0.118500 
     29 C          17.390000   10.368000    8.687000 C.ar      1 <1>        -0.106100 
     30 H          18.192000   10.920000    8.198000 H         1 <1>         0.105600 
     31 C          16.069000   10.566000    8.297000 C.ar      1 <1>        -0.069500 
     32 H          15.835000   11.274000    7.503000 H         1 <1>         0.101800 
     33 C          15.043000    9.858000    8.924000 C.ar      1 <1>        -0.182100 
     34 H          14.015000   10.028000    8.605000 H         1 <1>         0.121400 
     35 N           9.729000    1.238000   11.641000 N.pl3     1 <1>        -0.791200 
     36 H           9.921000    0.633000   10.856000 H         1 <1>         0.368200 
     37 H           8.813000    1.256000   12.065000 H         1 <1>         0.368500 
@<TRIPOS>BOND
     1    1    2 ar   
     2    2    3 ar   
     3    3    4 ar   
     4    4    5 ar   
     5    5    6 ar   
     6    6    1 ar   
     7    6    7 1    
     8    7    8 1    
     9    7    9 1    
    10    5   10 ar   
    11   10   11 ar   
    12   11   12 ar   
    13   12   13 1    
    14   12    4 ar   
    15   11   14 1    
    16   14   15 1    
    17   14   16 1    
    18   14   17 1    
    19   17   18 1    
    20   18   19 ar   
    21   19   20 1    
    22   19   21 ar   
    23   21   22 1    
    24   21   23 ar   
    25   23   24 ar   
    26   24   25 ar   
    27   25   26 1    
    28   25   18 ar   
    29   24   27 ar   
    30   27   28 1    
    31   27   29 ar   
    32   29   30 1    
    33   29   31 ar   
    34   31   32 1    
    35   31   33 ar   
    36   33   34 1    
    37   33   23 ar   
    38    2   35 1    
    39   35   36 1    
    40   35   37 1    
@<TRIPOS>SUBSTRUCTURE
     1 ****        1 TEMP              0 ****  ****    0 ROOT 
@<TRIPOS>SET
UNITY_3DHIT     STATIC     ATOMS    <user>   **** Atoms matching 3D or FLEX Search
0
