#	Name:			44-21
#	Creating user name:	jeff
#	Creation time:		Thu Dec  4 18:13:51 2003

#	Modifying user name:	jeff
#	Modification time:	Thu Dec  4 18:13:51 2003

@<TRIPOS>MOLECULE
44-21
   44    46     1     0     1
SMALL
USER_CHARGES
****
From 3DB ct
@<TRIPOS>ATOM
      1 N          10.391000    2.813000   13.152000 N.ar      1 <1>        -0.689200 
      2 C          10.761000    2.046000   12.108000 C.ar      1 <1>         0.737500 
      3 N          11.975000    2.013000   11.538000 N.ar      1 <1>        -0.606000 
      4 C          12.837000    2.852000   12.130000 C.ar      1 <1>         0.396300 
      5 C          12.592000    3.687000   13.203000 C.ar      1 <1>        -0.347600 
      6 C          11.290000    3.652000   13.727000 C.ar      1 <1>         0.731200 
      7 N          10.879000    4.421000   14.790000 N.pl3     1 <1>        -0.796600 
      8 H          11.523000    5.063000   15.239000 H         1 <1>         0.372100 
      9 H           9.926000    4.358000   15.123000 H         1 <1>         0.357500 
     10 N          13.728000    4.402000   13.536000 N.ar      1 <1>        -0.305200 
     11 C          14.653000    4.002000   12.672000 C.ar      1 <1>         0.230800 
     12 N          14.146000    3.062000   11.801000 N.pl3     1 <1>        -0.449100 
     13 H          14.649000    2.605000   11.052000 H         1 <1>         0.349800 
     14 C          16.084000    4.459000   12.582000 C.3       1 <1>         0.145400 
     15 H          16.466000    4.187000   11.591000 H         1 <1>         0.046800 
     16 H          16.668000    3.917000   13.336000 H         1 <1>         0.048500 
     17 N          16.247000    5.894000   12.787000 N.pl3     1 <1>        -0.624100 
     18 H          16.557000    6.155000   13.723000 H         1 <1>         0.323700 
     19 C          15.952000    6.875000   11.864000 C.ar      1 <1>         0.349000 
     20 C          16.933000    7.643000   11.220000 C.ar      1 <1>        -0.420500 
     21 H          17.977000    7.455000   11.451000 H         1 <1>         0.197700 
     22 C          16.591000    8.636000   10.295000 C.ar      1 <1>         0.325300 
     23 C          15.236000    8.855000   10.007000 C.ar      1 <1>        -0.112800 
     24 C          14.229000    8.127000   10.656000 C.ar      1 <1>         0.276300 
     25 C          14.603000    7.139000   11.572000 C.ar      1 <1>        -0.346800 
     26 H          13.849000    6.548000   12.088000 H         1 <1>         0.163400 
     27 O          12.938000    8.454000   10.332000 O.3       1 <1>        -0.300300 
     28 C          12.746000    9.320000    9.215000 C.3       1 <1>         0.101300 
     29 H          11.669000    9.468000    9.090000 H         1 <1>         0.033600 
     30 H          13.129000    8.866000    8.295000 H         1 <1>         0.019100 
     31 H          13.199000   10.300000    9.396000 H         1 <1>         0.039400 
     32 O          14.887000    9.854000    9.122000 O.3       1 <1>        -0.240300 
     33 C          16.066000   10.398000    8.517000 C.3       1 <1>        -0.009300 
     34 H          15.754000   11.205000    7.847000 H         1 <1>         0.069900 
     35 H          16.589000    9.644000    7.920000 H         1 <1>         0.047000 
     36 H          16.739000   10.823000    9.269000 H         1 <1>         0.046400 
     37 O          17.486000    9.436000    9.631000 O.3       1 <1>        -0.289300 
     38 C          18.874000    9.193000    9.854000 C.3       1 <1>         0.108400 
     39 H          19.438000    9.904000    9.243000 H         1 <1>         0.047500 
     40 H          19.153000    8.184000    9.534000 H         1 <1>         0.004900 
     41 H          19.140000    9.368000   10.902000 H         1 <1>         0.014700 
     42 N           9.810000    1.226000   11.582000 N.pl3     1 <1>        -0.776400 
     43 H          10.040000    0.633000   10.798000 H         1 <1>         0.364900 
     44 H           8.883000    1.215000   11.980000 H         1 <1>         0.365000 
@<TRIPOS>BOND
     1    1    2 ar   
     2    2    3 ar   
     3    3    4 ar   
     4    4    5 ar   
     5    5    6 ar   
     6    6    1 ar   
     7    6    7 1    
     8    7    8 1    
     9    7    9 1    
    10    5   10 ar   
    11   10   11 ar   
    12   11   12 ar   
    13   12   13 1    
    14   12    4 ar   
    15   11   14 1    
    16   14   15 1    
    17   14   16 1    
    18   14   17 1    
    19   17   18 1    
    20   17   19 1    
    21   19   20 ar   
    22   20   21 1    
    23   20   22 ar   
    24   22   23 ar   
    25   23   24 ar   
    26   24   25 ar   
    27   25   26 1    
    28   25   19 ar   
    29   24   27 1    
    30   27   28 1    
    31   28   29 1    
    32   28   30 1    
    33   28   31 1    
    34   23   32 1    
    35   32   33 1    
    36   33   34 1    
    37   33   35 1    
    38   33   36 1    
    39   22   37 1    
    40   37   38 1    
    41   38   39 1    
    42   38   40 1    
    43   38   41 1    
    44    2   42 1    
    45   42   43 1    
    46   42   44 1    
@<TRIPOS>SUBSTRUCTURE
     1 ****        1 TEMP              0 ****  ****    0 ROOT 
@<TRIPOS>SET
UNITY_3DHIT     STATIC     ATOMS    <user>   **** Atoms matching 3D or FLEX Search
0
