#	Name:			44-2
#	Creating user name:	jeff
#	Creation time:		Thu Dec  4 18:13:51 2003

#	Modifying user name:	jeff
#	Modification time:	Thu Dec  4 18:13:51 2003

@<TRIPOS>MOLECULE
44-2
   27    29     1     0     1
SMALL
USER_CHARGES
****
From 3DB ct
@<TRIPOS>ATOM
      1 N          10.263000    2.657000   13.028000 N.ar      1 <1>        -0.686800 
      2 C          10.872000    1.873000   12.117000 C.ar      1 <1>         0.738400 
      3 N          12.118000    2.026000   11.644000 N.ar      1 <1>        -0.613400 
      4 C          12.739000    3.083000   12.185000 C.ar      1 <1>         0.418400 
      5 C          12.236000    3.962000   13.121000 C.ar      1 <1>        -0.354600 
      6 C          10.924000    3.719000   13.554000 C.ar      1 <1>         0.711700 
      7 N          10.274000    4.499000   14.481000 N.pl3     1 <1>        -0.778500 
      8 H          10.738000    5.301000   14.894000 H         1 <1>         0.368800 
      9 H           9.326000    4.277000   14.757000 H         1 <1>         0.353300 
     10 N          13.174000    4.924000   13.436000 N.ar      1 <1>        -0.310600 
     11 C          14.245000    4.642000   12.702000 C.ar      1 <1>         0.313500 
     12 N          14.007000    3.522000   11.929000 N.pl3     1 <1>        -0.478900 
     13 H          14.651000    3.091000   11.282000 H         1 <1>         0.351200 
     14 C          15.506000    5.400000   12.702000 C.ar      1 <1>        -0.039400 
     15 C          16.600000    5.046000   11.897000 C.ar      1 <1>        -0.119000 
     16 H          16.561000    4.186000   11.232000 H         1 <1>         0.104400 
     17 C          17.782000    5.794000   11.926000 C.ar      1 <1>        -0.097400 
     18 H          18.621000    5.505000   11.295000 H         1 <1>         0.105700 
     19 C          17.890000    6.905000   12.758000 C.ar      1 <1>        -0.092200 
     20 H          18.810000    7.485000   12.779000 H         1 <1>         0.108000 
     21 C          16.815000    7.271000   13.564000 C.ar      1 <1>        -0.133000 
     22 H          16.893000    8.139000   14.216000 H         1 <1>         0.117100 
     23 C          15.634000    6.524000   13.534000 C.ar      1 <1>        -0.035300 
     24 H          14.806000    6.829000   14.173000 H         1 <1>         0.100300 
     25 N          10.152000    0.824000   11.630000 N.pl3     1 <1>        -0.785600 
     26 H          10.565000    0.209000   10.945000 H         1 <1>         0.367000 
     27 H           9.209000    0.671000   11.957000 H         1 <1>         0.367000 
@<TRIPOS>BOND
     1    1    2 ar   
     2    2    3 ar   
     3    3    4 ar   
     4    4    5 ar   
     5    5    6 ar   
     6    6    1 ar   
     7    6    7 1    
     8    7    8 1    
     9    7    9 1    
    10    5   10 ar   
    11   10   11 ar   
    12   11   12 ar   
    13   12   13 1    
    14   12    4 ar   
    15   11   14 1    
    16   14   15 ar   
    17   15   16 1    
    18   15   17 ar   
    19   17   18 1    
    20   17   19 ar   
    21   19   20 1    
    22   19   21 ar   
    23   21   22 1    
    24   21   23 ar   
    25   23   24 1    
    26   23   14 ar   
    27    2   25 1    
    28   25   26 1    
    29   25   27 1    
@<TRIPOS>SUBSTRUCTURE
     1 ****        1 TEMP              0 ****  ****    0 ROOT 
@<TRIPOS>SET
UNITY_3DHIT     STATIC     ATOMS    <user>   **** Atoms matching 3D or FLEX Search
0
