#	Name:			44-20
#	Creating user name:	jeff
#	Creation time:		Thu Dec  4 18:13:51 2003

#	Modifying user name:	jeff
#	Modification time:	Thu Dec  4 18:13:51 2003

@<TRIPOS>MOLECULE
44-20
   30    32     1     0     1
SMALL
USER_CHARGES
****
From 3DB ct
@<TRIPOS>ATOM
      1 N          10.234000    2.636000   13.023000 N.ar      1 <1>        -0.687900 
      2 C          10.826000    1.848000   12.122000 C.ar      1 <1>         0.731400 
      3 N          12.059000    1.998000   11.657000 N.ar      1 <1>        -0.596100 
      4 C          12.702000    3.056000   12.176000 C.ar      1 <1>         0.378700 
      5 C          12.211000    3.957000   13.104000 C.ar      1 <1>        -0.338000 
      6 C          10.896000    3.695000   13.538000 C.ar      1 <1>         0.717300 
      7 N          10.213000    4.436000   14.469000 N.pl3     1 <1>        -0.783500 
      8 H          10.617000    5.222000   14.957000 H         1 <1>         0.371500 
      9 H           9.275000    4.150000   14.723000 H         1 <1>         0.353500 
     10 N          13.311000    4.974000   13.428000 N.ar      1 <1>        -0.346700 
     11 C          14.396000    4.756000   12.724000 C.ar      1 <1>         0.378600 
     12 N          14.058000    3.573000   11.944000 N.pl3     1 <1>        -0.469700 
     13 H          14.684000    3.117000   11.273000 H         1 <1>         0.347800 
     14 C          15.688000    5.540000   12.768000 C.3       1 <1>        -0.317800 
     15 H          16.501000    4.891000   12.421000 H         1 <1>         0.108400 
     16 H          15.955000    5.812000   13.798000 H         1 <1>         0.122100 
     17 C          15.645000    6.813000   11.944000 C.ar      1 <1>         0.165800 
     18 C          16.815000    7.320000   11.344000 C.ar      1 <1>        -0.191400 
     19 H          17.741000    6.766000   11.481000 H         1 <1>         0.123000 
     20 C          16.790000    8.502000   10.595000 C.ar      1 <1>        -0.087500 
     21 H          17.717000    8.903000   10.143000 H         1 <1>         0.105400 
     22 C          15.572000    9.181000   10.443000 C.ar      1 <1>        -0.113000 
     23 H          15.534000   10.122000    9.860000 H         1 <1>         0.106300 
     24 C          14.396000    8.655000   10.988000 C.ar      1 <1>        -0.075500 
     25 H          13.435000    9.186000   10.841000 H         1 <1>         0.103300 
     26 C          14.432000    7.491000   11.754000 C.ar      1 <1>        -0.197300 
     27 H          13.513000    7.114000   12.199000 H         1 <1>         0.143200 
     28 N          10.098000    0.801000   11.642000 N.pl3     1 <1>        -0.783600 
     29 H          10.502000    0.182000   10.955000 H         1 <1>         0.363900 
     30 H           9.154000    0.660000   11.970000 H         1 <1>         0.367500 
@<TRIPOS>BOND
     1    1    2 ar   
     2    2    3 ar   
     3    3    4 ar   
     4    4    5 ar   
     5    5    6 ar   
     6    6    1 ar   
     7    6    7 1    
     8    7    8 1    
     9    7    9 1    
    10    5   10 ar   
    11   10   11 ar   
    12   11   12 ar   
    13   12   13 1    
    14   12    4 ar   
    15   11   14 1    
    16   14   15 1    
    17   14   16 1    
    18   14   17 1    
    19   17   18 ar   
    20   18   19 1    
    21   18   20 ar   
    22   20   21 1    
    23   20   22 ar   
    24   22   23 1    
    25   22   24 ar   
    26   24   25 1    
    27   24   26 ar   
    28   26   27 1    
    29   26   17 ar   
    30    2   28 1    
    31   28   29 1    
    32   28   30 1    
@<TRIPOS>SUBSTRUCTURE
     1 ****        1 TEMP              0 ****  ****    0 ROOT 
@<TRIPOS>SET
UNITY_3DHIT     STATIC     ATOMS    <user>   **** Atoms matching 3D or FLEX Search
0
