#	Name:			44-22
#	Creating user name:	jeff
#	Creation time:		Thu Dec  4 18:13:51 2003

#	Modifying user name:	jeff
#	Modification time:	Thu Dec  4 18:13:51 2003

@<TRIPOS>MOLECULE
44-22
   40    42     1     0     1
SMALL
USER_CHARGES
****
From 3DB ct
@<TRIPOS>ATOM
      1 N          10.417000    2.825000   13.163000 N.ar      1 <1>        -0.677400 
      2 C          10.776000    2.057000   12.116000 C.ar      1 <1>         0.726500 
      3 N          11.983000    2.022000   11.533000 N.ar      1 <1>        -0.603100 
      4 C          12.851000    2.865000   12.112000 C.ar      1 <1>         0.381200 
      5 C          12.616000    3.704000   13.184000 C.ar      1 <1>        -0.297300 
      6 C          11.321000    3.667000   13.725000 C.ar      1 <1>         0.691300 
      7 N          10.922000    4.436000   14.793000 N.pl3     1 <1>        -0.782600 
      8 H          11.573000    5.074000   15.238000 H         1 <1>         0.369300 
      9 H           9.976000    4.366000   15.144000 H         1 <1>         0.355100 
     10 N          13.753000    4.425000   13.499000 N.ar      1 <1>        -0.300100 
     11 C          14.670000    4.024000   12.626000 C.ar      1 <1>         0.198900 
     12 N          14.156000    3.075000   11.768000 N.pl3     1 <1>        -0.435900 
     13 H          14.652000    2.616000   11.017000 H         1 <1>         0.344400 
     14 C          16.097000    4.486000   12.514000 C.3       1 <1>         0.144900 
     15 H          16.465000    4.224000   11.515000 H         1 <1>         0.031100 
     16 H          16.691000    3.933000   13.252000 H         1 <1>         0.062900 
     17 N          16.263000    5.914000   12.729000 N.pl3     1 <1>        -0.521200 
     18 H          16.698000    6.186000   13.612000 H         1 <1>         0.282300 
     19 C          15.917000    6.919000   11.844000 C.ar      1 <1>         0.197100 
     20 C          14.583000    7.239000   11.553000 C.ar      1 <1>        -0.303900 
     21 H          13.770000    6.690000   12.024000 H         1 <1>         0.161300 
     22 C          14.248000    8.262000   10.657000 C.ar      1 <1>         0.309400 
     23 C          15.264000    8.984000   10.037000 C.ar      1 <1>        -0.267300 
     24 H          15.055000    9.786000    9.334000 H         1 <1>         0.133200 
     25 C          16.603000    8.687000   10.310000 C.ar      1 <1>        -0.157600 
     26 H          17.361000    9.277000    9.803000 H         1 <1>         0.132700 
     27 C          16.935000    7.665000   11.205000 C.ar      1 <1>         0.089600 
     28 O          18.222000    7.305000   11.534000 O.3       1 <1>        -0.226700 
     29 C          19.280000    8.033000   10.915000 C.3       1 <1>        -0.041000 
     30 H          20.225000    7.622000   11.284000 H         1 <1>         0.073000 
     31 H          19.246000    9.091000   11.192000 H         1 <1>         0.054200 
     32 H          19.263000    7.903000    9.828000 H         1 <1>         0.051400 
     33 O          12.905000    8.451000   10.478000 O.3       1 <1>        -0.302100 
     34 C          12.516000    9.484000    9.573000 C.3       1 <1>         0.063500 
     35 H          11.422000    9.505000    9.544000 H         1 <1>         0.056200 
     36 H          12.873000    9.273000    8.559000 H         1 <1>         0.027100 
     37 H          12.860000   10.463000    9.922000 H         1 <1>         0.027900 
     38 N           9.818000    1.237000   11.601000 N.pl3     1 <1>        -0.773300 
     39 H          10.039000    0.643000   10.815000 H         1 <1>         0.362800 
     40 H           8.894000    1.231000   12.007000 H         1 <1>         0.362000 
@<TRIPOS>BOND
     1    1    2 ar   
     2    2    3 ar   
     3    3    4 ar   
     4    4    5 ar   
     5    5    6 ar   
     6    6    1 ar   
     7    6    7 1    
     8    7    8 1    
     9    7    9 1    
    10    5   10 ar   
    11   10   11 ar   
    12   11   12 ar   
    13   12   13 1    
    14   12    4 ar   
    15   11   14 1    
    16   14   15 1    
    17   14   16 1    
    18   14   17 1    
    19   17   18 1    
    20   17   19 1    
    21   19   20 ar   
    22   20   21 1    
    23   20   22 ar   
    24   22   23 ar   
    25   23   24 1    
    26   23   25 ar   
    27   25   26 1    
    28   25   27 ar   
    29   27   19 ar   
    30   27   28 1    
    31   28   29 1    
    32   29   30 1    
    33   29   31 1    
    34   29   32 1    
    35   22   33 1    
    36   33   34 1    
    37   34   35 1    
    38   34   36 1    
    39   34   37 1    
    40    2   38 1    
    41   38   39 1    
    42   38   40 1    
@<TRIPOS>SUBSTRUCTURE
     1 ****        1 TEMP              0 ****  ****    0 ROOT 
@<TRIPOS>SET
UNITY_3DHIT     STATIC     ATOMS    <user>   **** Atoms matching 3D or FLEX Search
0
