#	Name:			44-3
#	Creating user name:	jeff
#	Creation time:		Thu Dec  4 18:13:51 2003

#	Modifying user name:	jeff
#	Modification time:	Thu Dec  4 18:13:51 2003

@<TRIPOS>MOLECULE
44-3
   39    41     1     0     1
SMALL
USER_CHARGES
****
From 3DB ct
@<TRIPOS>ATOM
      1 N          10.263000    2.657000   13.027000 N.ar      1 <1>        -0.695800 
      2 C          10.872000    1.873000   12.117000 C.ar      1 <1>         0.750700 
      3 N          12.118000    2.026000   11.643000 N.ar      1 <1>        -0.621700 
      4 C          12.739000    3.083000   12.184000 C.ar      1 <1>         0.445300 
      5 C          12.236000    3.962000   13.121000 C.ar      1 <1>        -0.405000 
      6 C          10.923000    3.720000   13.553000 C.ar      1 <1>         0.734100 
      7 N          10.274000    4.500000   14.481000 N.pl3     1 <1>        -0.775600 
      8 H          10.739000    5.301000   14.894000 H         1 <1>         0.367000 
      9 H           9.326000    4.278000   14.756000 H         1 <1>         0.352300 
     10 N          13.175000    4.923000   13.438000 N.ar      1 <1>        -0.274800 
     11 C          14.245000    4.642000   12.703000 C.ar      1 <1>         0.360500 
     12 N          14.007000    3.522000   11.928000 N.pl3     1 <1>        -0.510200 
     13 H          14.653000    3.087000   11.287000 H         1 <1>         0.356400 
     14 C          15.506000    5.399000   12.709000 C.ar      1 <1>        -0.011200 
     15 C          16.549000    5.124000   11.814000 C.ar      1 <1>        -0.264300 
     16 H          16.467000    4.335000   11.072000 H         1 <1>         0.122700 
     17 C          17.724000    5.878000   11.852000 C.ar      1 <1>         0.259000 
     18 C          17.895000    6.879000   12.813000 C.ar      1 <1>        -0.117200 
     19 C          16.857000    7.190000   13.701000 C.ar      1 <1>         0.360300 
     20 C          15.674000    6.444000   13.642000 C.ar      1 <1>        -0.252700 
     21 H          14.852000    6.653000   14.324000 H         1 <1>         0.137000 
     22 O          17.099000    8.218000   14.576000 O.3       1 <1>        -0.283800 
     23 C          18.367000    8.864000   14.489000 C.3       1 <1>         0.021900 
     24 H          18.395000    9.645000   15.254000 H         1 <1>         0.055500 
     25 H          18.497000    9.346000   13.514000 H         1 <1>         0.056400 
     26 H          19.181000    8.162000   14.699000 H         1 <1>         0.049600 
     27 O          19.063000    7.605000   12.840000 O.3       1 <1>        -0.238700 
     28 C          19.966000    7.105000   11.848000 C.3       1 <1>         0.000500 
     29 H          20.887000    7.693000   11.910000 H         1 <1>         0.046500 
     30 H          19.555000    7.225000   10.840000 H         1 <1>         0.052100 
     31 H          20.220000    6.056000   12.034000 H         1 <1>         0.057200 
     32 O          18.728000    5.561000   10.973000 O.3       1 <1>        -0.229200 
     33 C          18.300000    4.510000   10.100000 C.3       1 <1>        -0.047700 
     34 H          19.134000    4.271000    9.433000 H         1 <1>         0.082400 
     35 H          17.451000    4.826000    9.483000 H         1 <1>         0.057300 
     36 H          18.046000    3.607000   10.665000 H         1 <1>         0.057000 
     37 N          10.152000    0.823000   11.631000 N.pl3     1 <1>        -0.790900 
     38 H          10.566000    0.206000   10.949000 H         1 <1>         0.368200 
     39 H           9.211000    0.669000   11.961000 H         1 <1>         0.368800 
@<TRIPOS>BOND
     1    1    2 ar   
     2    2    3 ar   
     3    3    4 ar   
     4    4    5 ar   
     5    5    6 ar   
     6    6    1 ar   
     7    6    7 1    
     8    7    8 1    
     9    7    9 1    
    10    5   10 ar   
    11   10   11 ar   
    12   11   12 ar   
    13   12   13 1    
    14   12    4 ar   
    15   11   14 1    
    16   14   15 ar   
    17   15   16 1    
    18   15   17 ar   
    19   17   18 ar   
    20   18   19 ar   
    21   19   20 ar   
    22   20   21 1    
    23   20   14 ar   
    24   19   22 1    
    25   22   23 1    
    26   23   24 1    
    27   23   25 1    
    28   23   26 1    
    29   18   27 1    
    30   27   28 1    
    31   28   29 1    
    32   28   30 1    
    33   28   31 1    
    34   17   32 1    
    35   32   33 1    
    36   33   34 1    
    37   33   35 1    
    38   33   36 1    
    39    2   37 1    
    40   37   38 1    
    41   37   39 1    
@<TRIPOS>SUBSTRUCTURE
     1 ****        1 TEMP              0 ****  ****    0 ROOT 
@<TRIPOS>SET
UNITY_3DHIT     STATIC     ATOMS    <user>   **** Atoms matching 3D or FLEX Search
0
