#	Name:			44-6
#	Creating user name:	jeff
#	Creation time:		Thu Dec  4 18:13:51 2003

#	Modifying user name:	jeff
#	Modification time:	Thu Dec  4 18:13:52 2003

@<TRIPOS>MOLECULE
44-6
   39    41     1     0     1
SMALL
USER_CHARGES
****
From 3DB ct
@<TRIPOS>ATOM
      1 N          10.264000    2.657000   13.028000 N.ar      1 <1>        -0.708400 
      2 C          10.873000    1.873000   12.117000 C.ar      1 <1>         0.759300 
      3 N          12.118000    2.025000   11.643000 N.ar      1 <1>        -0.621900 
      4 C          12.739000    3.083000   12.184000 C.ar      1 <1>         0.432800 
      5 C          12.237000    3.963000   13.120000 C.ar      1 <1>        -0.439000 
      6 C          10.924000    3.720000   13.554000 C.ar      1 <1>         0.771000 
      7 N          10.274000    4.500000   14.481000 N.pl3     1 <1>        -0.803700 
      8 H          10.739000    5.301000   14.893000 H         1 <1>         0.371100 
      9 H           9.327000    4.278000   14.757000 H         1 <1>         0.358300 
     10 N          13.174000    4.925000   13.437000 N.ar      1 <1>        -0.246300 
     11 C          14.243000    4.640000   12.705000 C.ar      1 <1>         0.324300 
     12 N          14.006000    3.522000   11.927000 N.pl3     1 <1>        -0.461500 
     13 H          14.661000    3.090000   11.291000 H         1 <1>         0.339800 
     14 C          15.514000    5.376000   12.686000 C.ar      1 <1>        -0.138800 
     15 C          16.551000    4.965000   11.831000 C.ar      1 <1>        -0.186600 
     16 H          16.418000    4.111000   11.169000 H         1 <1>         0.146400 
     17 C          17.762000    5.664000   11.787000 C.ar      1 <1>         0.114300 
     18 C          17.986000    6.748000   12.641000 C.ar      1 <1>         0.263100 
     19 C          16.957000    7.186000   13.472000 C.ar      1 <1>        -0.352000 
     20 H          17.123000    8.034000   14.132000 H         1 <1>         0.183100 
     21 C          15.727000    6.514000   13.486000 C.ar      1 <1>         0.282600 
     22 O          14.764000    6.922000   14.377000 O.3       1 <1>        -0.298600 
     23 C          15.096000    8.019000   15.236000 C.3       1 <1>         0.076400 
     24 H          14.171000    8.363000   15.708000 H         1 <1>         0.049200 
     25 H          15.522000    8.857000   14.673000 H         1 <1>         0.017700 
     26 H          15.782000    7.699000   16.027000 H         1 <1>         0.026200 
     27 O          19.148000    7.471000   12.694000 O.3       1 <1>        -0.273300 
     28 C          20.166000    6.974000   11.820000 C.3       1 <1>         0.017400 
     29 H          21.134000    7.226000   12.264000 H         1 <1>         0.060500 
     30 H          20.106000    7.473000   10.848000 H         1 <1>         0.045100 
     31 H          20.123000    5.886000   11.702000 H         1 <1>         0.049400 
     32 O          18.718000    5.219000   10.912000 O.3       1 <1>        -0.259400 
     33 C          18.215000    4.102000   10.168000 C.3       1 <1>         0.010200 
     34 H          19.014000    3.759000    9.503000 H         1 <1>         0.061500 
     35 H          17.359000    4.389000    9.549000 H         1 <1>         0.042100 
     36 H          17.947000    3.274000   10.833000 H         1 <1>         0.046300 
     37 N          10.152000    0.824000   11.631000 N.pl3     1 <1>        -0.797500 
     38 H          10.565000    0.207000   10.947000 H         1 <1>         0.368300 
     39 H           9.210000    0.670000   11.959000 H         1 <1>         0.370600 
@<TRIPOS>BOND
     1    1    2 ar   
     2    2    3 ar   
     3    3    4 ar   
     4    4    5 ar   
     5    5    6 ar   
     6    6    1 ar   
     7    6    7 1    
     8    7    8 1    
     9    7    9 1    
    10    5   10 ar   
    11   10   11 ar   
    12   11   12 ar   
    13   12   13 1    
    14   12    4 ar   
    15   11   14 1    
    16   14   15 ar   
    17   15   16 1    
    18   15   17 ar   
    19   17   18 ar   
    20   18   19 ar   
    21   19   20 1    
    22   19   21 ar   
    23   21   14 ar   
    24   21   22 1    
    25   22   23 1    
    26   23   24 1    
    27   23   25 1    
    28   23   26 1    
    29   18   27 1    
    30   27   28 1    
    31   28   29 1    
    32   28   30 1    
    33   28   31 1    
    34   17   32 1    
    35   32   33 1    
    36   33   34 1    
    37   33   35 1    
    38   33   36 1    
    39    2   37 1    
    40   37   38 1    
    41   37   39 1    
@<TRIPOS>SUBSTRUCTURE
     1 ****        1 TEMP              0 ****  ****    0 ROOT 
@<TRIPOS>SET
UNITY_3DHIT     STATIC     ATOMS    <user>   **** Atoms matching 3D or FLEX Search
0
