#	Name:			44-7
#	Creating user name:	jeff
#	Creation time:		Thu Dec  4 18:13:52 2003

#	Modifying user name:	jeff
#	Modification time:	Thu Dec  4 18:13:52 2003

@<TRIPOS>MOLECULE
44-7
   35    37     1     0     1
SMALL
USER_CHARGES
****
From 3DB ct
@<TRIPOS>ATOM
      1 N          10.264000    2.657000   13.028000 N.ar      1 <1>        -0.711900 
      2 C          10.873000    1.873000   12.117000 C.ar      1 <1>         0.760700 
      3 N          12.118000    2.025000   11.644000 N.ar      1 <1>        -0.626100 
      4 C          12.740000    3.083000   12.184000 C.ar      1 <1>         0.455500 
      5 C          12.237000    3.963000   13.121000 C.ar      1 <1>        -0.471200 
      6 C          10.924000    3.719000   13.554000 C.ar      1 <1>         0.787000 
      7 N          10.274000    4.500000   14.481000 N.pl3     1 <1>        -0.810000 
      8 H          10.738000    5.301000   14.893000 H         1 <1>         0.370200 
      9 H           9.326000    4.277000   14.757000 H         1 <1>         0.359000 
     10 N          13.174000    4.926000   13.437000 N.ar      1 <1>        -0.219300 
     11 C          14.243000    4.641000   12.704000 C.ar      1 <1>         0.308100 
     12 N          14.007000    3.522000   11.928000 N.pl3     1 <1>        -0.472300 
     13 H          14.661000    3.090000   11.291000 H         1 <1>         0.345000 
     14 C          15.514000    5.378000   12.683000 C.ar      1 <1>        -0.063200 
     15 C          16.553000    4.963000   11.831000 C.ar      1 <1>        -0.216900 
     16 H          16.416000    4.101000   11.179000 H         1 <1>         0.127100 
     17 C          17.775000    5.646000   11.780000 C.ar      1 <1>         0.303200 
     18 C          17.972000    6.759000   12.595000 C.ar      1 <1>        -0.258100 
     19 H          18.906000    7.313000   12.600000 H         1 <1>         0.151300 
     20 C          16.953000    7.188000   13.448000 C.ar      1 <1>        -0.082700 
     21 H          17.129000    8.043000   14.097000 H         1 <1>         0.133200 
     22 C          15.726000    6.515000   13.479000 C.ar      1 <1>         0.152500 
     23 O          14.769000    6.923000   14.375000 O.3       1 <1>        -0.306500 
     24 C          15.195000    8.097000   15.075000 C.3       1 <1>         0.106600 
     25 H          14.323000    8.511000   15.590000 H         1 <1>         0.044200 
     26 H          15.579000    8.859000   14.388000 H         1 <1>         0.009100 
     27 H          15.947000    7.847000   15.831000 H         1 <1>         0.009300 
     28 O          18.685000    5.125000   10.901000 O.3       1 <1>        -0.303700 
     29 C          18.278000    3.976000   10.160000 C.3       1 <1>         0.059600 
     30 H          19.113000    3.681000    9.518000 H         1 <1>         0.061100 
     31 H          17.425000    4.207000    9.514000 H         1 <1>         0.029700 
     32 H          18.056000    3.136000   10.827000 H         1 <1>         0.026900 
     33 N          10.151000    0.824000   11.630000 N.pl3     1 <1>        -0.798300 
     34 H          10.564000    0.209000   10.944000 H         1 <1>         0.369400 
     35 H           9.209000    0.672000   11.958000 H         1 <1>         0.371800 
@<TRIPOS>BOND
     1    1    2 ar   
     2    2    3 ar   
     3    3    4 ar   
     4    4    5 ar   
     5    5    6 ar   
     6    6    1 ar   
     7    6    7 1    
     8    7    8 1    
     9    7    9 1    
    10    5   10 ar   
    11   10   11 ar   
    12   11   12 ar   
    13   12   13 1    
    14   12    4 ar   
    15   11   14 1    
    16   14   15 ar   
    17   15   16 1    
    18   15   17 ar   
    19   17   18 ar   
    20   18   19 1    
    21   18   20 ar   
    22   20   21 1    
    23   20   22 ar   
    24   22   14 ar   
    25   22   23 1    
    26   23   24 1    
    27   24   25 1    
    28   24   26 1    
    29   24   27 1    
    30   17   28 1    
    31   28   29 1    
    32   29   30 1    
    33   29   31 1    
    34   29   32 1    
    35    2   33 1    
    36   33   34 1    
    37   33   35 1    
@<TRIPOS>SUBSTRUCTURE
     1 ****        1 TEMP              0 ****  ****    0 ROOT 
@<TRIPOS>SET
UNITY_3DHIT     STATIC     ATOMS    <user>   **** Atoms matching 3D or FLEX Search
0
