#	Name:			44-8
#	Creating user name:	jeff
#	Creation time:		Thu Dec  4 18:13:52 2003

#	Modifying user name:	jeff
#	Modification time:	Thu Dec  4 18:13:52 2003

@<TRIPOS>MOLECULE
44-8
   35    37     1     0     1
SMALL
USER_CHARGES
****
From 3DB ct
@<TRIPOS>ATOM
      1 N          10.263000    2.657000   13.027000 N.ar      1 <1>        -0.696100 
      2 C          10.872000    1.873000   12.117000 C.ar      1 <1>         0.750700 
      3 N          12.118000    2.025000   11.644000 N.ar      1 <1>        -0.622200 
      4 C          12.739000    3.083000   12.185000 C.ar      1 <1>         0.447300 
      5 C          12.236000    3.962000   13.121000 C.ar      1 <1>        -0.406400 
      6 C          10.924000    3.719000   13.554000 C.ar      1 <1>         0.734500 
      7 N          10.274000    4.500000   14.481000 N.pl3     1 <1>        -0.776800 
      8 H          10.738000    5.301000   14.893000 H         1 <1>         0.367400 
      9 H           9.326000    4.278000   14.756000 H         1 <1>         0.352800 
     10 N          13.175000    4.923000   13.437000 N.ar      1 <1>        -0.275100 
     11 C          14.245000    4.643000   12.702000 C.ar      1 <1>         0.358500 
     12 N          14.007000    3.522000   11.929000 N.pl3     1 <1>        -0.512700 
     13 H          14.652000    3.088000   11.285000 H         1 <1>         0.358000 
     14 C          15.505000    5.402000   12.705000 C.ar      1 <1>         0.022300 
     15 C          16.563000    5.109000   11.833000 C.ar      1 <1>        -0.294900 
     16 H          16.484000    4.298000   11.112000 H         1 <1>         0.118800 
     17 C          17.749000    5.851000   11.859000 C.ar      1 <1>         0.364500 
     18 C          17.882000    6.900000   12.767000 C.ar      1 <1>        -0.414100 
     19 H          18.789000    7.497000   12.816000 H         1 <1>         0.151900 
     20 C          16.841000    7.212000   13.647000 C.ar      1 <1>         0.417500 
     21 C          15.661000    6.466000   13.611000 C.ar      1 <1>        -0.286400 
     22 H          14.838000    6.693000   14.285000 H         1 <1>         0.138100 
     23 O          17.100000    8.262000   14.486000 O.3       1 <1>        -0.292700 
     24 C          18.375000    8.891000   14.359000 C.3       1 <1>         0.009200 
     25 H          18.417000    9.707000   15.086000 H         1 <1>         0.068900 
     26 H          18.502000    9.326000   13.362000 H         1 <1>         0.045400 
     27 H          19.183000    8.191000   14.594000 H         1 <1>         0.046600 
     28 O          18.692000    5.451000   10.951000 O.3       1 <1>        -0.287000 
     29 C          18.351000    4.349000   10.111000 C.3       1 <1>         0.011200 
     30 H          19.202000    4.159000    9.450000 H         1 <1>         0.070400 
     31 H          17.487000    4.587000    9.482000 H         1 <1>         0.042000 
     32 H          18.178000    3.443000   10.701000 H         1 <1>         0.042600 
     33 N          10.151000    0.824000   11.630000 N.pl3     1 <1>        -0.791300 
     34 H          10.564000    0.208000   10.945000 H         1 <1>         0.368200 
     35 H           9.209000    0.671000   11.958000 H         1 <1>         0.368800 
@<TRIPOS>BOND
     1    1    2 ar   
     2    2    3 ar   
     3    3    4 ar   
     4    4    5 ar   
     5    5    6 ar   
     6    6    1 ar   
     7    6    7 1    
     8    7    8 1    
     9    7    9 1    
    10    5   10 ar   
    11   10   11 ar   
    12   11   12 ar   
    13   12   13 1    
    14   12    4 ar   
    15   11   14 1    
    16   14   15 ar   
    17   15   16 1    
    18   15   17 ar   
    19   17   18 ar   
    20   18   19 1    
    21   18   20 ar   
    22   20   21 ar   
    23   21   22 1    
    24   21   14 ar   
    25   20   23 1    
    26   23   24 1    
    27   24   25 1    
    28   24   26 1    
    29   24   27 1    
    30   17   28 1    
    31   28   29 1    
    32   29   30 1    
    33   29   31 1    
    34   29   32 1    
    35    2   33 1    
    36   33   34 1    
    37   33   35 1    
@<TRIPOS>SUBSTRUCTURE
     1 ****        1 TEMP              0 ****  ****    0 ROOT 
@<TRIPOS>SET
UNITY_3DHIT     STATIC     ATOMS    <user>   **** Atoms matching 3D or FLEX Search
0
