#	Name:			44-9
#	Creating user name:	jeff
#	Creation time:		Thu Dec  4 18:13:52 2003

#	Modifying user name:	jeff
#	Modification time:	Thu Dec  4 18:13:52 2003

@<TRIPOS>MOLECULE
44-9
   35    37     1     0     1
SMALL
USER_CHARGES
****
From 3DB ct
@<TRIPOS>ATOM
      1 N          10.263000    2.658000   13.027000 N.ar      1 <1>        -0.694200 
      2 C          10.872000    1.873000   12.116000 C.ar      1 <1>         0.743800 
      3 N          12.118000    2.026000   11.643000 N.ar      1 <1>        -0.618800 
      4 C          12.739000    3.083000   12.184000 C.ar      1 <1>         0.443300 
      5 C          12.236000    3.962000   13.121000 C.ar      1 <1>        -0.401200 
      6 C          10.923000    3.719000   13.553000 C.ar      1 <1>         0.733800 
      7 N          10.274000    4.499000   14.481000 N.pl3     1 <1>        -0.781700 
      8 H          10.739000    5.298000   14.897000 H         1 <1>         0.368800 
      9 H           9.325000    4.277000   14.756000 H         1 <1>         0.353500 
     10 N          13.174000    4.924000   13.437000 N.ar      1 <1>        -0.280600 
     11 C          14.246000    4.641000   12.704000 C.ar      1 <1>         0.341600 
     12 N          14.007000    3.523000   11.928000 N.pl3     1 <1>        -0.503000 
     13 H          14.649000    3.095000   11.278000 H         1 <1>         0.352400 
     14 C          15.506000    5.398000   12.708000 C.ar      1 <1>        -0.028100 
     15 C          16.613000    5.031000   11.930000 C.ar      1 <1>        -0.153000 
     16 H          16.585000    4.156000   11.284000 H         1 <1>         0.124800 
     17 C          17.799000    5.783000   11.951000 C.ar      1 <1>        -0.208300 
     18 H          18.617000    5.449000   11.318000 H         1 <1>         0.133000 
     19 C          17.906000    6.916000   12.757000 C.ar      1 <1>         0.164300 
     20 C          16.810000    7.270000   13.554000 C.ar      1 <1>         0.199900 
     21 C          15.620000    6.536000   13.519000 C.ar      1 <1>        -0.170300 
     22 H          14.779000    6.857000   14.132000 H         1 <1>         0.129900 
     23 O          16.853000    8.393000   14.344000 O.3       1 <1>        -0.266800 
     24 C          18.146000    9.003000   14.248000 C.3       1 <1>         0.024000 
     25 H          18.143000    9.893000   14.883000 H         1 <1>         0.057800 
     26 H          18.360000    9.319000   13.221000 H         1 <1>         0.038800 
     27 H          18.928000    8.328000   14.611000 H         1 <1>         0.037700 
     28 O          19.006000    7.728000   12.842000 O.3       1 <1>        -0.233300 
     29 C          20.130000    7.381000   12.036000 C.3       1 <1>        -0.049500 
     30 H          20.909000    8.129000   12.213000 H         1 <1>         0.076900 
     31 H          19.876000    7.410000   10.971000 H         1 <1>         0.060300 
     32 H          20.533000    6.404000   12.323000 H         1 <1>         0.058600 
     33 N          10.152000    0.823000   11.632000 N.pl3     1 <1>        -0.789100 
     34 H          10.567000    0.204000   10.951000 H         1 <1>         0.367200 
     35 H           9.211000    0.668000   11.963000 H         1 <1>         0.367800 
@<TRIPOS>BOND
     1    1    2 ar   
     2    2    3 ar   
     3    3    4 ar   
     4    4    5 ar   
     5    5    6 ar   
     6    6    1 ar   
     7    6    7 1    
     8    7    8 1    
     9    7    9 1    
    10    5   10 ar   
    11   10   11 ar   
    12   11   12 ar   
    13   12   13 1    
    14   12    4 ar   
    15   11   14 1    
    16   14   15 ar   
    17   15   16 1    
    18   15   17 ar   
    19   17   18 1    
    20   17   19 ar   
    21   19   20 ar   
    22   20   21 ar   
    23   21   22 1    
    24   21   14 ar   
    25   20   23 1    
    26   23   24 1    
    27   24   25 1    
    28   24   26 1    
    29   24   27 1    
    30   19   28 1    
    31   28   29 1    
    32   29   30 1    
    33   29   31 1    
    34   29   32 1    
    35    2   33 1    
    36   33   34 1    
    37   33   35 1    
@<TRIPOS>SUBSTRUCTURE
     1 ****        1 TEMP              0 ****  ****    0 ROOT 
@<TRIPOS>SET
UNITY_3DHIT     STATIC     ATOMS    <user>   **** Atoms matching 3D or FLEX Search
0
