#	Name:			6-1
#	Creating user name:	jeff
#	Creation time:		Thu Dec  4 18:13:52 2003

#	Modifying user name:	jeff
#	Modification time:	Thu Dec  4 18:13:52 2003

@<TRIPOS>MOLECULE
6-1
   23    24     1     0     1
SMALL
USER_CHARGES
****
From 3DB ct
@<TRIPOS>ATOM
      1 N          10.106000    2.620000   12.839000 N.ar      1 <1>        -0.628200 
      2 C          10.744000    1.935000   11.899000 C.ar      1 <1>         0.776800 
      3 N          12.022000    2.113000   11.583000 N.ar      1 <1>        -0.649500 
      4 C          12.713000    3.041000   12.255000 C.ar      1 <1>         0.476100 
      5 C          12.166000    3.839000   13.274000 C.ar      1 <1>        -0.616900 
      6 C          10.801000    3.554000   13.515000 C.ar      1 <1>         0.831000 
      7 N          10.048000    4.216000   14.476000 N.pl3     1 <1>        -0.928900 
      8 H          10.360000    4.066000   15.432000 H         1 <1>         0.351300 
      9 H           9.922000    5.210000   14.301000 H         1 <1>         0.351300 
     10 C          13.020000    4.806000   13.922000 C.ar      1 <1>         0.274800 
     11 C          14.362000    4.931000   13.528000 C.ar      1 <1>        -0.236000 
     12 H          15.019000    5.656000   14.007000 H         1 <1>         0.131000 
     13 C          14.872000    4.130000   12.520000 C.ar      1 <1>        -0.028700 
     14 H          15.912000    4.226000   12.214000 H         1 <1>         0.107500 
     15 C          14.044000    3.199000   11.899000 C.ar      1 <1>        -0.225600 
     16 H          14.462000    2.577000   11.107000 H         1 <1>         0.131300 
     17 C          12.546000    5.715000   15.026000 C.3       1 <1>        -0.280300 
     18 H          12.215000    5.132000   15.890000 H         1 <1>         0.077800 
     19 H          11.742000    6.367000   14.670000 H         1 <1>         0.077800 
     20 H          13.349000    6.372000   15.380000 H         1 <1>         0.073000 
     21 N          10.047000    0.989000   11.212000 N.pl3     1 <1>        -0.815400 
     22 H          10.507000    0.453000   10.492000 H         1 <1>         0.376000 
     23 H           9.075000    0.830000   11.428000 H         1 <1>         0.374000 
@<TRIPOS>BOND
     1    1    2 ar   
     2    2    3 ar   
     3    3    4 ar   
     4    4    5 ar   
     5    5    6 ar   
     6    6    1 ar   
     7    6    7 1    
     8    7    8 1    
     9    7    9 1    
    10    5   10 ar   
    11   10   11 ar   
    12   11   12 1    
    13   11   13 ar   
    14   13   14 1    
    15   13   15 ar   
    16   15   16 1    
    17   15    4 ar   
    18   10   17 1    
    19   17   18 1    
    20   17   19 1    
    21   17   20 1    
    22    2   21 1    
    23   21   22 1    
    24   21   23 1    
@<TRIPOS>SUBSTRUCTURE
     1 ****        1 TEMP              0 ****  ****    0 ROOT 
@<TRIPOS>SET
UNITY_3DHIT     STATIC     ATOMS    <user>   **** Atoms matching 3D or FLEX Search
0
