#	Name:			6-13
#	Creating user name:	jeff
#	Creation time:		Thu Dec  4 18:13:52 2003

#	Modifying user name:	jeff
#	Modification time:	Thu Dec  4 18:13:52 2003

@<TRIPOS>MOLECULE
6-13
   24    25     1     0     1
SMALL
USER_CHARGES
****
From 3DB ct
@<TRIPOS>ATOM
      1 N          10.115000    2.607000   12.862000 N.ar      1 <1>        -0.628500 
      2 C          10.731000    1.973000   11.872000 C.ar      1 <1>         0.807500 
      3 N          12.005000    2.160000   11.546000 N.ar      1 <1>        -0.659800 
      4 C          12.716000    3.043000   12.256000 C.ar      1 <1>         0.410400 
      5 C          12.194000    3.785000   13.328000 C.ar      1 <1>        -0.482800 
      6 C          10.831000    3.497000   13.575000 C.ar      1 <1>         0.765400 
      7 N          10.111000    4.099000   14.604000 N.pl3     1 <1>        -0.783800 
      8 H          10.468000    3.865000   15.529000 H         1 <1>         0.299100 
      9 H          10.092000    5.116000   14.532000 H         1 <1>         0.297400 
     10 C          13.068000    4.703000   14.010000 C.ar      1 <1>         0.049700 
     11 C          14.400000    4.853000   13.597000 C.ar      1 <1>        -0.074000 
     12 H          15.067000    5.556000   14.094000 H         1 <1>         0.104100 
     13 C          14.888000    4.105000   12.539000 C.ar      1 <1>        -0.145200 
     14 H          15.921000    4.215000   12.217000 H         1 <1>         0.127700 
     15 C          14.043000    3.212000   11.885000 C.ar      1 <1>        -0.129300 
     16 H          14.441000    2.632000   11.053000 H         1 <1>         0.119000 
     17 S          12.555000    5.753000   15.381000 S.3       1 <1>        -0.067700 
     18 C          13.989000    6.733000   15.913000 C.3       1 <1>        -0.185900 
     19 H          13.709000    7.330000   16.785000 H         1 <1>         0.111400 
     20 H          14.313000    7.411000   15.119000 H         1 <1>         0.066600 
     21 H          14.817000    6.076000   16.192000 H         1 <1>         0.067100 
     22 N          10.015000    1.073000   11.145000 N.pl3     1 <1>        -0.825600 
     23 H          10.459000    0.576000   10.387000 H         1 <1>         0.380800 
     24 H           9.045000    0.908000   11.368000 H         1 <1>         0.376200 
@<TRIPOS>BOND
     1    1    2 ar   
     2    2    3 ar   
     3    3    4 ar   
     4    4    5 ar   
     5    5    6 ar   
     6    6    1 ar   
     7    6    7 1    
     8    7    8 1    
     9    7    9 1    
    10    5   10 ar   
    11   10   11 ar   
    12   11   12 1    
    13   11   13 ar   
    14   13   14 1    
    15   13   15 ar   
    16   15   16 1    
    17   15    4 ar   
    18   10   17 1    
    19   17   18 1    
    20   18   19 1    
    21   18   20 1    
    22   18   21 1    
    23    2   22 1    
    24   22   23 1    
    25   22   24 1    
@<TRIPOS>SUBSTRUCTURE
     1 ****        1 TEMP              0 ****  ****    0 ROOT 
@<TRIPOS>SET
UNITY_3DHIT     STATIC     ATOMS    <user>   **** Atoms matching 3D or FLEX Search
0
