#	Name:			6-14
#	Creating user name:	jeff
#	Creation time:		Thu Dec  4 18:13:52 2003

#	Modifying user name:	jeff
#	Modification time:	Thu Dec  4 18:13:52 2003

@<TRIPOS>MOLECULE
6-14
   23    24     1     0     1
SMALL
USER_CHARGES
****
From 3DB ct
@<TRIPOS>ATOM
      1 N          10.127000    2.622000   12.879000 N.ar      1 <1>        -0.685300 
      2 C          10.728000    1.972000   11.883000 C.ar      1 <1>         0.804300 
      3 N          12.004000    2.134000   11.534000 N.ar      1 <1>        -0.669400 
      4 C          12.732000    3.020000   12.226000 C.ar      1 <1>         0.465600 
      5 C          12.209000    3.759000   13.290000 C.ar      1 <1>        -0.465700 
      6 C          10.867000    3.490000   13.586000 C.ar      1 <1>         0.709600 
      7 N          10.188000    4.156000   14.592000 N.pl3     1 <1>        -0.769100 
      8 H          10.681000    4.349000   15.459000 H         1 <1>         0.337500 
      9 H           9.218000    3.880000   14.712000 H         1 <1>         0.331900 
     10 C          13.032000    4.694000   13.971000 C.ar      1 <1>        -0.049700 
     11 H          12.621000    5.280000   14.793000 H         1 <1>         0.115100 
     12 C          14.367000    4.886000   13.602000 C.ar      1 <1>         0.044700 
     13 C          14.878000    4.138000   12.545000 C.ar      1 <1>        -0.088800 
     14 H          15.913000    4.257000   12.227000 H         1 <1>         0.120100 
     15 C          14.061000    3.221000   11.873000 C.ar      1 <1>        -0.238200 
     16 H          14.483000    2.651000   11.047000 H         1 <1>         0.136600 
     17 C          15.218000    5.879000   14.337000 C.3       1 <1>        -0.192000 
     18 H          14.788000    6.882000   14.248000 H         1 <1>         0.056400 
     19 H          16.235000    5.913000   13.933000 H         1 <1>         0.061100 
     20 H          15.285000    5.608000   15.395000 H         1 <1>         0.050700 
     21 N           9.988000    1.079000   11.171000 N.pl3     1 <1>        -0.829500 
     22 H          10.414000    0.571000   10.410000 H         1 <1>         0.380100 
     23 H           9.018000    0.931000   11.408000 H         1 <1>         0.374000 
@<TRIPOS>BOND
     1    1    2 ar   
     2    2    3 ar   
     3    3    4 ar   
     4    4    5 ar   
     5    5    6 ar   
     6    6    1 ar   
     7    6    7 1    
     8    7    8 1    
     9    7    9 1    
    10    5   10 ar   
    11   10   11 1    
    12   10   12 ar   
    13   12   13 ar   
    14   13   14 1    
    15   13   15 ar   
    16   15   16 1    
    17   15    4 ar   
    18   12   17 1    
    19   17   18 1    
    20   17   19 1    
    21   17   20 1    
    22    2   21 1    
    23   21   22 1    
    24   21   23 1    
@<TRIPOS>SUBSTRUCTURE
     1 ****        1 TEMP              0 ****  ****    0 ROOT 
@<TRIPOS>SET
UNITY_3DHIT     STATIC     ATOMS    <user>   **** Atoms matching 3D or FLEX Search
0
