#	Name:			6-15
#	Creating user name:	jeff
#	Creation time:		Thu Dec  4 18:13:52 2003

#	Modifying user name:	jeff
#	Modification time:	Thu Dec  4 18:13:52 2003

@<TRIPOS>MOLECULE
6-15
   23    24     1     0     1
SMALL
USER_CHARGES
****
From 3DB ct
@<TRIPOS>ATOM
      1 N          10.126000    2.621000   12.879000 N.ar      1 <1>        -0.662500 
      2 C          10.726000    1.970000   11.882000 C.ar      1 <1>         0.814000 
      3 N          12.002000    2.132000   11.533000 N.ar      1 <1>        -0.687300 
      4 C          12.730000    3.018000   12.225000 C.ar      1 <1>         0.536500 
      5 C          12.208000    3.757000   13.289000 C.ar      1 <1>        -0.485400 
      6 C          10.866000    3.489000   13.585000 C.ar      1 <1>         0.666400 
      7 N          10.189000    4.155000   14.592000 N.pl3     1 <1>        -0.743600 
      8 H          10.679000    4.340000   15.462000 H         1 <1>         0.340200 
      9 H           9.218000    3.881000   14.709000 H         1 <1>         0.331100 
     10 C          13.033000    4.694000   13.970000 C.ar      1 <1>         0.164000 
     11 H          12.621000    5.280000   14.792000 H         1 <1>         0.087200 
     12 C          14.371000    4.890000   13.604000 C.ar      1 <1>        -0.431500 
     13 C          14.878000    4.136000   12.544000 C.ar      1 <1>         0.074300 
     14 H          15.913000    4.254000   12.224000 H         1 <1>         0.102900 
     15 C          14.060000    3.219000   11.872000 C.ar      1 <1>        -0.276900 
     16 H          14.482000    2.648000   11.046000 H         1 <1>         0.145800 
     17 C          15.224000    5.891000   14.343000 C.3       1 <1>         1.073600 
     18 F          15.337000    5.609000   15.677000 F         1 <1>        -0.336800 
     19 F          14.726000    7.163000   14.279000 F         1 <1>        -0.331700 
     20 F          16.508000    5.981000   13.882000 F         1 <1>        -0.322700 
     21 N           9.985000    1.079000   11.170000 N.pl3     1 <1>        -0.816200 
     22 H          10.410000    0.570000   10.409000 H         1 <1>         0.385800 
     23 H           9.015000    0.932000   11.407000 H         1 <1>         0.372800 
@<TRIPOS>BOND
     1    1    2 ar   
     2    2    3 ar   
     3    3    4 ar   
     4    4    5 ar   
     5    5    6 ar   
     6    6    1 ar   
     7    6    7 1    
     8    7    8 1    
     9    7    9 1    
    10    5   10 ar   
    11   10   11 1    
    12   10   12 ar   
    13   12   13 ar   
    14   13   14 1    
    15   13   15 ar   
    16   15   16 1    
    17   15    4 ar   
    18   12   17 1    
    19   17   18 1    
    20   17   19 1    
    21   17   20 1    
    22    2   21 1    
    23   21   22 1    
    24   21   23 1    
@<TRIPOS>SUBSTRUCTURE
     1 ****        1 TEMP              0 ****  ****    0 ROOT 
@<TRIPOS>SET
UNITY_3DHIT     STATIC     ATOMS    <user>   **** Atoms matching 3D or FLEX Search
0
