#	Name:			6-16
#	Creating user name:	jeff
#	Creation time:		Thu Dec  4 18:13:52 2003

#	Modifying user name:	jeff
#	Modification time:	Thu Dec  4 18:13:52 2003

@<TRIPOS>MOLECULE
6-16
   20    21     1     0     1
SMALL
USER_CHARGES
****
From 3DB ct
@<TRIPOS>ATOM
      1 N          10.123000    2.621000   12.871000 N.ar      1 <1>        -0.682600 
      2 C          10.728000    1.977000   11.873000 C.ar      1 <1>         0.806700 
      3 N          12.006000    2.140000   11.531000 N.ar      1 <1>        -0.663000 
      4 C          12.732000    3.019000   12.232000 C.ar      1 <1>         0.445400 
      5 C          12.202000    3.751000   13.302000 C.ar      1 <1>        -0.436900 
      6 C          10.859000    3.483000   13.589000 C.ar      1 <1>         0.708300 
      7 N          10.177000    4.144000   14.596000 N.pl3     1 <1>        -0.760300 
      8 H          10.663000    4.329000   15.467000 H         1 <1>         0.339400 
      9 H           9.205000    3.869000   14.707000 H         1 <1>         0.331100 
     10 C          13.017000    4.679000   13.996000 C.ar      1 <1>        -0.124500 
     11 H          12.624000    5.266000   14.821000 H         1 <1>         0.138300 
     12 C          14.341000    4.855000   13.622000 C.ar      1 <1>         0.289400 
     13 C          14.876000    4.130000   12.571000 C.ar      1 <1>        -0.163100 
     14 H          15.913000    4.271000   12.282000 H         1 <1>         0.150600 
     15 C          14.065000    3.220000   11.886000 C.ar      1 <1>        -0.196800 
     16 H          14.491000    2.657000   11.058000 H         1 <1>         0.142100 
     17 F          15.107000    5.733000   14.282000 F         1 <1>        -0.254700 
     18 N           9.990000    1.091000   11.150000 N.pl3     1 <1>        -0.825400 
     19 H          10.419000    0.588000   10.388000 H         1 <1>         0.380700 
     20 H           9.019000    0.943000   11.382000 H         1 <1>         0.375400 
@<TRIPOS>BOND
     1    1    2 ar   
     2    2    3 ar   
     3    3    4 ar   
     4    4    5 ar   
     5    5    6 ar   
     6    6    1 ar   
     7    6    7 1    
     8    7    8 1    
     9    7    9 1    
    10    5   10 ar   
    11   10   11 1    
    12   10   12 ar   
    13   12   13 ar   
    14   13   14 1    
    15   13   15 ar   
    16   15   16 1    
    17   15    4 ar   
    18   12   17 1    
    19    2   18 1    
    20   18   19 1    
    21   18   20 1    
@<TRIPOS>SUBSTRUCTURE
     1 ****        1 TEMP              0 ****  ****    0 ROOT 
@<TRIPOS>SET
UNITY_3DHIT     STATIC     ATOMS    <user>   **** Atoms matching 3D or FLEX Search
0
