#	Name:			6-2
#	Creating user name:	jeff
#	Creation time:		Thu Dec  4 18:13:52 2003

#	Modifying user name:	jeff
#	Modification time:	Thu Dec  4 18:13:52 2003

@<TRIPOS>MOLECULE
6-2
   23    24     1     0     1
SMALL
USER_CHARGES
****
From 3DB ct
@<TRIPOS>ATOM
      1 N          10.113000    2.622000   12.851000 N.ar      1 <1>        -0.644900 
      2 C          10.749000    1.926000   11.915000 C.ar      1 <1>         0.798800 
      3 N          12.020000    2.116000   11.579000 N.ar      1 <1>        -0.672800 
      4 C          12.712000    3.051000   12.239000 C.ar      1 <1>         0.437700 
      5 C          12.167000    3.849000   13.258000 C.ar      1 <1>        -0.326900 
      6 C          10.801000    3.584000   13.489000 C.ar      1 <1>         0.617500 
      7 N          10.047000    4.268000   14.423000 N.pl3     1 <1>        -0.723300 
      8 H           9.091000    3.928000   14.500000 H         1 <1>         0.319100 
      9 H          10.102000    5.283000   14.430000 H         1 <1>         0.347400 
     10 C          13.018000    4.796000   13.930000 C.ar      1 <1>        -0.254100 
     11 C          14.362000    4.923000   13.535000 C.ar      1 <1>        -0.024300 
     12 H          15.025000    5.633000   14.030000 H         1 <1>         0.109100 
     13 C          14.870000    4.139000   12.511000 C.ar      1 <1>        -0.088400 
     14 H          15.911000    4.237000   12.206000 H         1 <1>         0.118200 
     15 C          14.043000    3.213000   11.882000 C.ar      1 <1>        -0.147300 
     16 H          14.460000    2.595000   11.087000 H         1 <1>         0.130200 
     17 C          12.534000    5.644000   15.081000 C.3       1 <1>         1.029700 
     18 F          13.474000    6.529000   15.545000 F         1 <1>        -0.322000 
     19 F          12.176000    4.917000   16.180000 F         1 <1>        -0.312000 
     20 F          11.457000    6.426000   14.767000 F         1 <1>        -0.327200 
     21 N          10.055000    0.961000   11.255000 N.pl3     1 <1>        -0.819800 
     22 H          10.512000    0.417000   10.538000 H         1 <1>         0.383200 
     23 H           9.087000    0.794000   11.487000 H         1 <1>         0.372100 
@<TRIPOS>BOND
     1    1    2 ar   
     2    2    3 ar   
     3    3    4 ar   
     4    4    5 ar   
     5    5    6 ar   
     6    6    1 ar   
     7    6    7 1    
     8    7    8 1    
     9    7    9 1    
    10    5   10 ar   
    11   10   11 ar   
    12   11   12 1    
    13   11   13 ar   
    14   13   14 1    
    15   13   15 ar   
    16   15   16 1    
    17   15    4 ar   
    18   10   17 1    
    19   17   18 1    
    20   17   19 1    
    21   17   20 1    
    22    2   21 1    
    23   21   22 1    
    24   21   23 1    
@<TRIPOS>SUBSTRUCTURE
     1 ****        1 TEMP              0 ****  ****    0 ROOT 
@<TRIPOS>SET
UNITY_3DHIT     STATIC     ATOMS    <user>   **** Atoms matching 3D or FLEX Search
0
