#	Name:			6-20
#	Creating user name:	jeff
#	Creation time:		Thu Dec  4 18:13:52 2003

#	Modifying user name:	jeff
#	Modification time:	Thu Dec  4 18:13:52 2003

@<TRIPOS>MOLECULE
6-20
   24    25     1     0     1
SMALL
USER_CHARGES
****
From 3DB ct
@<TRIPOS>ATOM
      1 N          10.122000    2.620000   12.869000 N.ar      1 <1>        -0.693800 
      2 C          10.725000    1.975000   11.872000 C.ar      1 <1>         0.831600 
      3 N          12.004000    2.137000   11.530000 N.ar      1 <1>        -0.679700 
      4 C          12.729000    3.017000   12.232000 C.ar      1 <1>         0.441000 
      5 C          12.204000    3.750000   13.299000 C.ar      1 <1>        -0.484500 
      6 C          10.861000    3.482000   13.587000 C.ar      1 <1>         0.723600 
      7 N          10.178000    4.139000   14.595000 N.pl3     1 <1>        -0.770700 
      8 H          10.661000    4.314000   15.470000 H         1 <1>         0.335500 
      9 H           9.205000    3.864000   14.703000 H         1 <1>         0.330100 
     10 C          13.024000    4.683000   13.994000 C.ar      1 <1>        -0.087400 
     11 H          12.586000    5.250000   14.810000 H         1 <1>         0.102200 
     12 C          14.355000    4.871000   13.631000 C.ar      1 <1>         0.231400 
     13 C          14.869000    4.129000   12.573000 C.ar      1 <1>        -0.172500 
     14 H          15.906000    4.255000   12.267000 H         1 <1>         0.138100 
     15 C          14.059000    3.217000   11.887000 C.ar      1 <1>        -0.161900 
     16 H          14.486000    2.654000   11.060000 H         1 <1>         0.133600 
     17 O          15.240000    5.731000   14.217000 O.3       1 <1>        -0.295100 
     18 C          14.755000    6.508000   15.311000 C.3       1 <1>         0.039900 
     19 H          15.579000    7.134000   15.665000 H         1 <1>         0.064800 
     20 H          14.441000    5.867000   16.141000 H         1 <1>         0.026400 
     21 H          13.944000    7.172000   14.992000 H         1 <1>         0.034600 
     22 N           9.987000    1.090000   11.149000 N.pl3     1 <1>        -0.852500 
     23 H          10.415000    0.586000   10.387000 H         1 <1>         0.386100 
     24 H           9.016000    0.943000   11.381000 H         1 <1>         0.379200 
@<TRIPOS>BOND
     1    1    2 ar   
     2    2    3 ar   
     3    3    4 ar   
     4    4    5 ar   
     5    5    6 ar   
     6    6    1 ar   
     7    6    7 1    
     8    7    8 1    
     9    7    9 1    
    10    5   10 ar   
    11   10   11 1    
    12   10   12 ar   
    13   12   13 ar   
    14   13   14 1    
    15   13   15 ar   
    16   15   16 1    
    17   15    4 ar   
    18   12   17 1    
    19   17   18 1    
    20   18   19 1    
    21   18   20 1    
    22   18   21 1    
    23    2   22 1    
    24   22   23 1    
    25   22   24 1    
@<TRIPOS>SUBSTRUCTURE
     1 ****        1 TEMP              0 ****  ****    0 ROOT 
@<TRIPOS>SET
UNITY_3DHIT     STATIC     ATOMS    <user>   **** Atoms matching 3D or FLEX Search
0
