#	Name:			6-21
#	Creating user name:	jeff
#	Creation time:		Thu Dec  4 18:13:52 2003

#	Modifying user name:	jeff
#	Modification time:	Thu Dec  4 18:13:52 2003

@<TRIPOS>MOLECULE
6-21
   23    24     1     0     1
SMALL
USER_CHARGES
****
From 3DB ct
@<TRIPOS>ATOM
      1 N          10.106000    2.629000   12.842000 N.ar      1 <1>        -0.678000 
      2 C          10.725000    2.002000   11.843000 C.ar      1 <1>         0.800700 
      3 N          12.018000    2.142000   11.546000 N.ar      1 <1>        -0.672500 
      4 C          12.744000    2.978000   12.299000 C.ar      1 <1>         0.505100 
      5 C          12.200000    3.689000   13.372000 C.ar      1 <1>        -0.499800 
      6 C          10.842000    3.448000   13.609000 C.ar      1 <1>         0.698700 
      7 N          10.145000    4.095000   14.615000 N.pl3     1 <1>        -0.761600 
      8 H          10.611000    4.245000   15.504000 H         1 <1>         0.336800 
      9 H           9.164000    3.842000   14.691000 H         1 <1>         0.328900 
     10 C          13.020000    4.575000   14.115000 C.ar      1 <1>         0.067700 
     11 H          12.606000    5.148000   14.942000 H         1 <1>         0.084600 
     12 C          14.367000    4.736000   13.797000 C.ar      1 <1>        -0.304600 
     13 H          14.976000    5.427000   14.378000 H         1 <1>         0.140300 
     14 C          14.920000    4.013000   12.742000 C.ar      1 <1>         0.244000 
     15 C          14.092000    3.154000   12.001000 C.ar      1 <1>        -0.344500 
     16 H          14.514000    2.603000   11.161000 H         1 <1>         0.162200 
     17 C          16.360000    4.195000   12.361000 C.3       1 <1>        -0.230100 
     18 H          16.451000    4.986000   11.611000 H         1 <1>         0.073600 
     19 H          16.774000    3.268000   11.952000 H         1 <1>         0.060600 
     20 H          16.964000    4.463000   13.234000 H         1 <1>         0.064400 
     21 N           9.989000    1.159000   11.069000 N.pl3     1 <1>        -0.829200 
     22 H          10.428000    0.670000   10.303000 H         1 <1>         0.379800 
     23 H           9.007000    1.030000   11.265000 H         1 <1>         0.373100 
@<TRIPOS>BOND
     1    1    2 ar   
     2    2    3 ar   
     3    3    4 ar   
     4    4    5 ar   
     5    5    6 ar   
     6    6    1 ar   
     7    6    7 1    
     8    7    8 1    
     9    7    9 1    
    10    5   10 ar   
    11   10   11 1    
    12   10   12 ar   
    13   12   13 1    
    14   12   14 ar   
    15   14   15 ar   
    16   15   16 1    
    17   15    4 ar   
    18   14   17 1    
    19   17   18 1    
    20   17   19 1    
    21   17   20 1    
    22    2   21 1    
    23   21   22 1    
    24   21   23 1    
@<TRIPOS>SUBSTRUCTURE
     1 ****        1 TEMP              0 ****  ****    0 ROOT 
@<TRIPOS>SET
UNITY_3DHIT     STATIC     ATOMS    <user>   **** Atoms matching 3D or FLEX Search
0
