#	Name:			6-22
#	Creating user name:	jeff
#	Creation time:		Thu Dec  4 18:13:52 2003

#	Modifying user name:	jeff
#	Modification time:	Thu Dec  4 18:13:52 2003

@<TRIPOS>MOLECULE
6-22
   23    24     1     0     1
SMALL
USER_CHARGES
****
From 3DB ct
@<TRIPOS>ATOM
      1 N          10.106000    2.629000   12.842000 N.ar      1 <1>        -0.646600 
      2 C          10.725000    2.002000   11.843000 C.ar      1 <1>         0.799500 
      3 N          12.018000    2.142000   11.546000 N.ar      1 <1>        -0.668800 
      4 C          12.743000    2.978000   12.298000 C.ar      1 <1>         0.444500 
      5 C          12.200000    3.689000   13.371000 C.ar      1 <1>        -0.389000 
      6 C          10.842000    3.449000   13.609000 C.ar      1 <1>         0.637500 
      7 N          10.146000    4.095000   14.616000 N.pl3     1 <1>        -0.743000 
      8 H          10.612000    4.245000   15.504000 H         1 <1>         0.339700 
      9 H           9.165000    3.843000   14.691000 H         1 <1>         0.330700 
     10 C          13.021000    4.573000   14.115000 C.ar      1 <1>         0.016100 
     11 H          12.608000    5.146000   14.944000 H         1 <1>         0.093900 
     12 C          14.369000    4.734000   13.796000 C.ar      1 <1>        -0.122700 
     13 H          14.980000    5.423000   14.379000 H         1 <1>         0.119800 
     14 C          14.924000    4.014000   12.735000 C.ar      1 <1>        -0.255600 
     15 C          14.091000    3.152000   11.998000 C.ar      1 <1>        -0.111400 
     16 H          14.512000    2.598000   11.159000 H         1 <1>         0.135300 
     17 C          16.372000    4.183000   12.353000 C.3       1 <1>         1.067300 
     18 F          17.168000    4.603000   13.383000 F         1 <1>        -0.327000 
     19 F          16.551000    5.099000   11.355000 F         1 <1>        -0.327200 
     20 F          16.951000    3.030000   11.899000 F         1 <1>        -0.332500 
     21 N           9.989000    1.159000   11.069000 N.pl3     1 <1>        -0.817200 
     22 H          10.428000    0.670000   10.303000 H         1 <1>         0.385100 
     23 H           9.007000    1.030000   11.264000 H         1 <1>         0.371700 
@<TRIPOS>BOND
     1    1    2 ar   
     2    2    3 ar   
     3    3    4 ar   
     4    4    5 ar   
     5    5    6 ar   
     6    6    1 ar   
     7    6    7 1    
     8    7    8 1    
     9    7    9 1    
    10    5   10 ar   
    11   10   11 1    
    12   10   12 ar   
    13   12   13 1    
    14   12   14 ar   
    15   14   15 ar   
    16   15   16 1    
    17   15    4 ar   
    18   14   17 1    
    19   17   18 1    
    20   17   19 1    
    21   17   20 1    
    22    2   21 1    
    23   21   22 1    
    24   21   23 1    
@<TRIPOS>SUBSTRUCTURE
     1 ****        1 TEMP              0 ****  ****    0 ROOT 
@<TRIPOS>SET
UNITY_3DHIT     STATIC     ATOMS    <user>   **** Atoms matching 3D or FLEX Search
0
