#	Name:			6-23
#	Creating user name:	jeff
#	Creation time:		Thu Dec  4 18:13:52 2003

#	Modifying user name:	jeff
#	Modification time:	Thu Dec  4 18:13:52 2003

@<TRIPOS>MOLECULE
6-23
   20    21     1     0     1
SMALL
USER_CHARGES
****
From 3DB ct
@<TRIPOS>ATOM
      1 N          10.123000    2.620000   12.871000 N.ar      1 <1>        -0.680300 
      2 C          10.728000    1.976000   11.873000 C.ar      1 <1>         0.798900 
      3 N          12.007000    2.140000   11.530000 N.ar      1 <1>        -0.665800 
      4 C          12.733000    3.019000   12.232000 C.ar      1 <1>         0.551100 
      5 C          12.203000    3.751000   13.301000 C.ar      1 <1>        -0.545700 
      6 C          10.860000    3.483000   13.588000 C.ar      1 <1>         0.715800 
      7 N          10.177000    4.143000   14.595000 N.pl3     1 <1>        -0.760700 
      8 H          10.665000    4.332000   15.465000 H         1 <1>         0.337900 
      9 H           9.205000    3.867000   14.709000 H         1 <1>         0.330100 
     10 C          13.022000    4.680000   13.995000 C.ar      1 <1>         0.120400 
     11 H          12.620000    5.265000   14.821000 H         1 <1>         0.090000 
     12 C          14.351000    4.864000   13.627000 C.ar      1 <1>        -0.387000 
     13 H          14.982000    5.573000   14.155000 H         1 <1>         0.168900 
     14 C          14.859000    4.126000   12.572000 C.ar      1 <1>         0.503000 
     15 C          14.062000    3.217000   11.883000 C.ar      1 <1>        -0.438100 
     16 H          14.495000    2.659000   11.058000 H         1 <1>         0.188500 
     17 F          16.138000    4.291000   12.206000 F         1 <1>        -0.262100 
     18 N           9.991000    1.090000   11.150000 N.pl3     1 <1>        -0.818900 
     19 H          10.420000    0.587000   10.387000 H         1 <1>         0.379800 
     20 H           9.020000    0.941000   11.381000 H         1 <1>         0.374000 
@<TRIPOS>BOND
     1    1    2 ar   
     2    2    3 ar   
     3    3    4 ar   
     4    4    5 ar   
     5    5    6 ar   
     6    6    1 ar   
     7    6    7 1    
     8    7    8 1    
     9    7    9 1    
    10    5   10 ar   
    11   10   11 1    
    12   10   12 ar   
    13   12   13 1    
    14   12   14 ar   
    15   14   15 ar   
    16   15   16 1    
    17   15    4 ar   
    18   14   17 1    
    19    2   18 1    
    20   18   19 1    
    21   18   20 1    
@<TRIPOS>SUBSTRUCTURE
     1 ****        1 TEMP              0 ****  ****    0 ROOT 
@<TRIPOS>SET
UNITY_3DHIT     STATIC     ATOMS    <user>   **** Atoms matching 3D or FLEX Search
0
