#	Name:			6-26
#	Creating user name:	jeff
#	Creation time:		Thu Dec  4 18:13:52 2003

#	Modifying user name:	jeff
#	Modification time:	Thu Dec  4 18:13:52 2003

@<TRIPOS>MOLECULE
6-26
   20    21     1     0     1
SMALL
USER_CHARGES
****
From 3DB ct
@<TRIPOS>ATOM
      1 N          10.120000    2.603000   12.870000 N.ar      1 <1>        -0.600400 
      2 C          10.732000    1.971000   11.876000 C.ar      1 <1>         0.762600 
      3 N          12.004000    2.162000   11.545000 N.ar      1 <1>        -0.668500 
      4 C          12.714000    3.044000   12.255000 C.ar      1 <1>         0.438400 
      5 C          12.198000    3.774000   13.336000 C.ar      1 <1>        -0.201900 
      6 C          10.841000    3.479000   13.594000 C.ar      1 <1>         0.510400 
      7 N          10.101000    4.123000   14.562000 N.pl3     1 <1>        -0.753400 
      8 H          10.563000    4.439000   15.408000 H         1 <1>         0.374700 
      9 H           9.139000    3.820000   14.668000 H         1 <1>         0.349400 
     10 C          13.072000    4.689000   14.021000 C.ar      1 <1>        -0.059600 
     11 C          14.404000    4.849000   13.607000 C.ar      1 <1>        -0.283300 
     12 C          14.882000    4.115000   12.531000 C.ar      1 <1>         0.126400 
     13 H          15.910000    4.222000   12.193000 H         1 <1>         0.069400 
     14 C          14.036000    3.224000   11.874000 C.ar      1 <1>        -0.239200 
     15 H          14.430000    2.655000   11.033000 H         1 <1>         0.141000 
     16 Cl         15.511000    5.932000   14.380000 Cl        1 <1>         0.060600 
     17 Cl         12.514000    5.608000   15.394000 Cl        1 <1>         0.024100 
     18 N          10.012000    1.075000   11.148000 N.pl3     1 <1>        -0.793300 
     19 H          10.452000    0.582000   10.386000 H         1 <1>         0.382000 
     20 H           9.043000    0.911000   11.375000 H         1 <1>         0.360500 
@<TRIPOS>BOND
     1    1    2 ar   
     2    2    3 ar   
     3    3    4 ar   
     4    4    5 ar   
     5    5    6 ar   
     6    6    1 ar   
     7    6    7 1    
     8    7    8 1    
     9    7    9 1    
    10    5   10 ar   
    11   10   11 ar   
    12   11   12 ar   
    13   12   13 1    
    14   12   14 ar   
    15   14   15 1    
    16   14    4 ar   
    17   11   16 1    
    18   10   17 1    
    19    2   18 1    
    20   18   19 1    
    21   18   20 1    
@<TRIPOS>SUBSTRUCTURE
     1 ****        1 TEMP              0 ****  ****    0 ROOT 
@<TRIPOS>SET
UNITY_3DHIT     STATIC     ATOMS    <user>   **** Atoms matching 3D or FLEX Search
0
