#	Name:			6-28
#	Creating user name:	jeff
#	Creation time:		Thu Dec  4 18:13:52 2003

#	Modifying user name:	jeff
#	Modification time:	Thu Dec  4 18:13:52 2003

@<TRIPOS>MOLECULE
6-28
   26    27     1     0     1
SMALL
USER_CHARGES
****
From 3DB ct
@<TRIPOS>ATOM
      1 N          10.105000    2.629000   12.842000 N.ar      1 <1>        -0.715600 
      2 C          10.725000    2.002000   11.843000 C.ar      1 <1>         0.836100 
      3 N          12.017000    2.143000   11.547000 N.ar      1 <1>        -0.677900 
      4 C          12.743000    2.980000   12.299000 C.ar      1 <1>         0.494600 
      5 C          12.201000    3.689000   13.371000 C.ar      1 <1>        -0.563900 
      6 C          10.842000    3.448000   13.608000 C.ar      1 <1>         0.775400 
      7 N          10.145000    4.093000   14.616000 N.pl3     1 <1>        -0.787700 
      8 H          10.610000    4.237000   15.507000 H         1 <1>         0.337400 
      9 H           9.164000    3.840000   14.689000 H         1 <1>         0.335700 
     10 C          13.024000    4.573000   14.116000 C.ar      1 <1>         0.025400 
     11 H          12.592000    5.135000   14.944000 H         1 <1>         0.109800 
     12 C          14.380000    4.745000   13.807000 C.ar      1 <1>        -0.068100 
     13 C          14.922000    4.024000   12.735000 C.ar      1 <1>         0.149700 
     14 C          14.090000    3.157000   12.003000 C.ar      1 <1>        -0.314900 
     15 H          14.508000    2.598000   11.165000 H         1 <1>         0.160700 
     16 C          16.370000    4.159000   12.346000 C.3       1 <1>        -0.187700 
     17 H          16.592000    5.192000   12.061000 H         1 <1>         0.064600 
     18 H          16.619000    3.520000   11.492000 H         1 <1>         0.056600 
     19 H          17.016000    3.862000   13.178000 H         1 <1>         0.061100 
     20 C          15.214000    5.693000   14.626000 C.3       1 <1>        -0.194300 
     21 H          15.611000    6.493000   13.993000 H         1 <1>         0.069200 
     22 H          16.041000    5.158000   15.101000 H         1 <1>         0.066200 
     23 H          14.625000    6.163000   15.421000 H         1 <1>         0.053400 
     24 N           9.989000    1.159000   11.069000 N.pl3     1 <1>        -0.850600 
     25 H          10.429000    0.669000   10.304000 H         1 <1>         0.383200 
     26 H           9.007000    1.029000   11.264000 H         1 <1>         0.381600 
@<TRIPOS>BOND
     1    1    2 ar   
     2    2    3 ar   
     3    3    4 ar   
     4    4    5 ar   
     5    5    6 ar   
     6    6    1 ar   
     7    6    7 1    
     8    7    8 1    
     9    7    9 1    
    10    5   10 ar   
    11   10   11 1    
    12   10   12 ar   
    13   12   13 ar   
    14   13   14 ar   
    15   14   15 1    
    16   14    4 ar   
    17   13   16 1    
    18   16   17 1    
    19   16   18 1    
    20   16   19 1    
    21   12   20 1    
    22   20   21 1    
    23   20   22 1    
    24   20   23 1    
    25    2   24 1    
    26   24   25 1    
    27   24   26 1    
@<TRIPOS>SUBSTRUCTURE
     1 ****        1 TEMP              0 ****  ****    0 ROOT 
@<TRIPOS>SET
UNITY_3DHIT     STATIC     ATOMS    <user>   **** Atoms matching 3D or FLEX Search
0
