#	Name:			6-3
#	Creating user name:	jeff
#	Creation time:		Thu Dec  4 18:13:52 2003

#	Modifying user name:	jeff
#	Modification time:	Thu Dec  4 18:13:53 2003

@<TRIPOS>MOLECULE
6-3
   20    21     1     0     1
SMALL
USER_CHARGES
****
From 3DB ct
@<TRIPOS>ATOM
      1 N          10.123000    2.613000   12.876000 N.ar      1 <1>        -0.716600 
      2 C          10.727000    1.973000   11.876000 C.ar      1 <1>         0.840900 
      3 N          12.002000    2.148000   11.529000 N.ar      1 <1>        -0.693500 
      4 C          12.727000    3.027000   12.232000 C.ar      1 <1>         0.565100 
      5 C          12.198000    3.750000   13.305000 C.ar      1 <1>        -0.664700 
      6 C          10.856000    3.483000   13.591000 C.ar      1 <1>         0.779600 
      7 N          10.161000    4.152000   14.580000 N.pl3     1 <1>        -0.786100 
      8 H          10.660000    4.455000   15.411000 H         1 <1>         0.374300 
      9 H           9.195000    3.873000   14.718000 H         1 <1>         0.347000 
     10 C          13.032000    4.660000   13.996000 C.ar      1 <1>         0.511600 
     11 C          14.360000    4.854000   13.632000 C.ar      1 <1>        -0.360700 
     12 H          14.978000    5.558000   14.181000 H         1 <1>         0.163100 
     13 C          14.877000    4.134000   12.566000 C.ar      1 <1>         0.056900 
     14 H          15.914000    4.269000   12.263000 H         1 <1>         0.104500 
     15 C          14.058000    3.232000   11.881000 C.ar      1 <1>        -0.320500 
     16 H          14.478000    2.673000   11.045000 H         1 <1>         0.150400 
     17 F          12.559000    5.360000   15.040000 F         1 <1>        -0.276000 
     18 N           9.993000    1.082000   11.156000 N.pl3     1 <1>        -0.840700 
     19 H          10.422000    0.583000   10.391000 H         1 <1>         0.384800 
     20 H           9.024000    0.927000   11.390000 H         1 <1>         0.380700 
@<TRIPOS>BOND
     1    1    2 ar   
     2    2    3 ar   
     3    3    4 ar   
     4    4    5 ar   
     5    5    6 ar   
     6    6    1 ar   
     7    6    7 1    
     8    7    8 1    
     9    7    9 1    
    10    5   10 ar   
    11   10   11 ar   
    12   11   12 1    
    13   11   13 ar   
    14   13   14 1    
    15   13   15 ar   
    16   15   16 1    
    17   15    4 ar   
    18   10   17 1    
    19    2   18 1    
    20   18   19 1    
    21   18   20 1    
@<TRIPOS>SUBSTRUCTURE
     1 ****        1 TEMP              0 ****  ****    0 ROOT 
@<TRIPOS>SET
UNITY_3DHIT     STATIC     ATOMS    <user>   **** Atoms matching 3D or FLEX Search
0
