#	Name:			6-48
#	Creating user name:	jeff
#	Creation time:		Thu Dec  4 18:13:53 2003

#	Modifying user name:	jeff
#	Modification time:	Thu Dec  4 18:13:53 2003

@<TRIPOS>MOLECULE
6-48
   30    33     1     0     1
SMALL
USER_CHARGES
****
From 3DB ct
@<TRIPOS>ATOM
      1 N          12.029000    2.161000   11.534000 N.ar      1 <1>        -0.673000 
      2 C          10.757000    1.984000   11.875000 C.ar      1 <1>         0.771100 
      3 N          10.152000    2.622000   12.873000 N.ar      1 <1>        -0.662600 
      4 C          10.893000    3.491000   13.581000 C.ar      1 <1>         0.667100 
      5 C          12.230000    3.768000   13.306000 C.ar      1 <1>        -0.363600 
      6 N          12.992000    4.661000   14.009000 N.ar      1 <1>        -0.158100 
      7 C          14.281000    4.832000   13.639000 C.ar      1 <1>         0.015500 
      8 C          14.782000    4.082000   12.553000 C.ar      1 <1>         0.394300 
      9 N          14.015000    3.204000   11.873000 N.ar      1 <1>        -0.491500 
     10 C          12.741000    3.037000   12.236000 C.ar      1 <1>         0.622600 
     11 C          16.101000    4.246000   12.163000 C.ar      1 <1>        -0.225900 
     12 H          16.488000    3.668000   11.325000 H         1 <1>         0.146700 
     13 C          16.949000    5.136000   12.820000 C.ar      1 <1>        -0.161800 
     14 H          17.979000    5.231000   12.478000 H         1 <1>         0.142300 
     15 C          16.479000    5.888000   13.896000 C.ar      1 <1>         0.125100 
     16 C          17.326000    6.788000   14.564000 C.ar      1 <1>        -0.165400 
     17 H          18.362000    6.909000   14.250000 H         1 <1>         0.116900 
     18 C          16.859000    7.542000   15.640000 C.ar      1 <1>        -0.072400 
     19 H          17.526000    8.235000   16.149000 H         1 <1>         0.103400 
     20 C          15.542000    7.405000   16.061000 C.ar      1 <1>        -0.139200 
     21 H          15.172000    7.991000   16.900000 H         1 <1>         0.115700 
     22 C          14.691000    6.513000   15.404000 C.ar      1 <1>        -0.009500 
     23 H          13.662000    6.427000   15.755000 H         1 <1>         0.073400 
     24 C          15.134000    5.737000   14.311000 C.ar      1 <1>        -0.083900 
     25 N          10.219000    4.174000   14.585000 N.pl3     1 <1>        -0.758900 
     26 H          10.762000    4.497000   15.381000 H         1 <1>         0.358200 
     27 H           9.258000    3.901000   14.762000 H         1 <1>         0.355100 
     28 N          10.024000    1.093000   11.155000 N.pl3     1 <1>        -0.779200 
     29 H           9.055000    0.937000   11.389000 H         1 <1>         0.364300 
     30 H          10.451000    0.592000   10.390000 H         1 <1>         0.373300 
@<TRIPOS>BOND
     1    1    2 ar   
     2    2    3 ar   
     3    3    4 ar   
     4    4    5 ar   
     5    5    6 ar   
     6    6    7 ar   
     7    7    8 ar   
     8    8    9 ar   
     9    9   10 ar   
    10   10    1 ar   
    11   10    5 ar   
    12    8   11 ar   
    13   11   12 1    
    14   11   13 ar   
    15   13   14 1    
    16   13   15 ar   
    17   15   16 ar   
    18   16   17 1    
    19   16   18 ar   
    20   18   19 1    
    21   18   20 ar   
    22   20   21 1    
    23   20   22 ar   
    24   22   23 1    
    25   22   24 ar   
    26   24    7 ar   
    27   24   15 ar   
    28    4   25 1    
    29   25   26 1    
    30   25   27 1    
    31    2   28 1    
    32   28   29 1    
    33   28   30 1    
@<TRIPOS>SUBSTRUCTURE
     1 ****        1 TEMP              0 ****  ****    0 ROOT 
@<TRIPOS>SET
UNITY_3DHIT     STATIC     ATOMS    <user>   **** Atoms matching 3D or FLEX Search
0
