#	Name:			6-7
#	Creating user name:	jeff
#	Creation time:		Thu Dec  4 18:13:53 2003

#	Modifying user name:	jeff
#	Modification time:	Thu Dec  4 18:13:53 2003

@<TRIPOS>MOLECULE
6-7
   24    25     1     0     1
SMALL
USER_CHARGES
****
From 3DB ct
@<TRIPOS>ATOM
      1 N          10.117000    2.615000   12.864000 N.ar      1 <1>        -0.721600 
      2 C          10.728000    1.975000   11.872000 C.ar      1 <1>         0.852400 
      3 N          12.004000    2.152000   11.538000 N.ar      1 <1>        -0.716400 
      4 C          12.720000    3.035000   12.244000 C.ar      1 <1>         0.589500 
      5 C          12.195000    3.782000   13.307000 C.ar      1 <1>        -0.661800 
      6 C          10.837000    3.509000   13.564000 C.ar      1 <1>         0.765700 
      7 N          10.152000    4.085000   14.615000 N.pl3     1 <1>        -0.789600 
      8 H          10.458000    4.995000   14.949000 H         1 <1>         0.358800 
      9 H           9.168000    3.860000   14.710000 H         1 <1>         0.355000 
     10 C          13.044000    4.713000   13.996000 C.ar      1 <1>         0.445000 
     11 C          14.380000    4.858000   13.613000 C.ar      1 <1>        -0.360400 
     12 H          15.056000    5.551000   14.105000 H         1 <1>         0.137100 
     13 C          14.882000    4.102000   12.562000 C.ar      1 <1>         0.038900 
     14 H          15.922000    4.211000   12.257000 H         1 <1>         0.103400 
     15 C          14.051000    3.207000   11.892000 C.ar      1 <1>        -0.333800 
     16 H          14.463000    2.626000   11.067000 H         1 <1>         0.146900 
     17 O          12.468000    5.441000   15.011000 O.3       1 <1>        -0.276500 
     18 C          13.303000    6.335000   15.746000 C.3       1 <1>        -0.026500 
     19 H          12.688000    6.798000   16.524000 H         1 <1>         0.074900 
     20 H          13.683000    7.135000   15.102000 H         1 <1>         0.048800 
     21 H          14.118000    5.797000   16.241000 H         1 <1>         0.057100 
     22 N          10.004000    1.076000   11.152000 N.pl3     1 <1>        -0.853400 
     23 H          10.442000    0.574000   10.393000 H         1 <1>         0.387400 
     24 H           9.034000    0.917000   11.380000 H         1 <1>         0.379000 
@<TRIPOS>BOND
     1    1    2 ar   
     2    2    3 ar   
     3    3    4 ar   
     4    4    5 ar   
     5    5    6 ar   
     6    6    1 ar   
     7    6    7 1    
     8    7    8 1    
     9    7    9 1    
    10    5   10 ar   
    11   10   11 ar   
    12   11   12 1    
    13   11   13 ar   
    14   13   14 1    
    15   13   15 ar   
    16   15   16 1    
    17   15    4 ar   
    18   10   17 1    
    19   17   18 1    
    20   18   19 1    
    21   18   20 1    
    22   18   21 1    
    23    2   22 1    
    24   22   23 1    
    25   22   24 1    
@<TRIPOS>SUBSTRUCTURE
     1 ****        1 TEMP              0 ****  ****    0 ROOT 
@<TRIPOS>SET
UNITY_3DHIT     STATIC     ATOMS    <user>   **** Atoms matching 3D or FLEX Search
0
