#	Name:			7-1
#	Creating user name:	jeff
#	Creation time:		Thu Dec  4 18:13:53 2003

#	Modifying user name:	jeff
#	Modification time:	Thu Dec  4 18:13:53 2003

@<TRIPOS>MOLECULE
7-1
   39    42     1     0     1
SMALL
USER_CHARGES
****
From 3DB ct
@<TRIPOS>ATOM
      1 N          10.339000    2.404000   13.407000 N.ar      1 <1>        -0.731300 
      2 C          10.629000    1.677000   12.315000 C.ar      1 <1>         0.835400 
      3 N          11.714000    1.801000   11.551000 N.ar      1 <1>        -0.661000 
      4 C          12.535000    2.764000   11.986000 C.ar      1 <1>         0.549000 
      5 C          12.355000    3.586000   13.093000 C.ar      1 <1>        -0.721800 
      6 C          11.187000    3.370000   13.825000 C.ar      1 <1>         0.835600 
      7 N          10.845000    4.079000   14.948000 N.pl3     1 <1>        -0.775500 
      8 H          11.433000    4.810000   15.326000 H         1 <1>         0.344800 
      9 H           9.980000    3.861000   15.427000 H         1 <1>         0.332200 
     10 C          13.488000    4.436000   13.132000 C.ar      1 <1>         0.182500 
     11 C          14.275000    4.068000   12.065000 C.ar      1 <1>         0.007900 
     12 O          13.712000    3.063000   11.355000 O.3       1 <1>        -0.163100 
     13 C          15.573000    4.668000   11.656000 C.3       1 <1>        -0.062100 
     14 H          15.402000    5.316000   10.787000 H         1 <1>         0.106300 
     15 H          16.260000    3.866000   11.364000 H         1 <1>         0.127500 
     16 N          16.143000    5.442000   12.798000 N.3       1 <1>        -0.264600 
     17 C          15.106000    6.317000   13.419000 C.3       1 <1>        -0.054800 
     18 H          14.711000    7.014000   12.667000 H         1 <1>         0.073300 
     19 H          15.556000    6.923000   14.215000 H         1 <1>         0.101100 
     20 C          13.927000    5.519000   14.050000 C.3       1 <1>        -0.160200 
     21 H          14.255000    5.073000   14.996000 H         1 <1>         0.074600 
     22 H          13.100000    6.204000   14.267000 H         1 <1>         0.075000 
     23 C          17.283000    6.265000   12.346000 C.3       1 <1>        -0.371200 
     24 H          18.089000    5.613000   11.981000 H         1 <1>         0.148500 
     25 H          17.709000    6.834000   13.183000 H         1 <1>         0.149800 
     26 C          16.931000    7.192000   11.200000 C.ar      1 <1>         0.174000 
     27 C          17.154000    6.799000    9.871000 C.ar      1 <1>        -0.170900 
     28 H          17.580000    5.820000    9.656000 H         1 <1>         0.121400 
     29 C          16.831000    7.653000    8.815000 C.ar      1 <1>        -0.095700 
     30 H          17.007000    7.338000    7.788000 H         1 <1>         0.105900 
     31 C          16.282000    8.907000    9.076000 C.ar      1 <1>        -0.103200 
     32 H          16.030000    9.573000    8.252000 H         1 <1>         0.104600 
     33 C          16.056000    9.309000   10.391000 C.ar      1 <1>        -0.098100 
     34 H          15.628000   10.290000   10.594000 H         1 <1>         0.105200 
     35 C          16.379000    8.457000   11.449000 C.ar      1 <1>        -0.160700 
     36 H          16.196000    8.789000   12.470000 H         1 <1>         0.111800 
     37 N           9.724000    0.722000   11.957000 N.pl3     1 <1>        -0.839300 
     38 H           9.894000    0.148000   11.145000 H         1 <1>         0.383300 
     39 H           8.889000    0.595000   12.510000 H         1 <1>         0.383900 
@<TRIPOS>BOND
     1    1    2 ar   
     2    2    3 ar   
     3    3    4 ar   
     4    4    5 ar   
     5    5    6 ar   
     6    6    1 ar   
     7    6    7 1    
     8    7    8 1    
     9    7    9 1    
    10    5   10 ar   
    11   10   11 ar   
    12   11   12 ar   
    13   12    4 ar   
    14   11   13 1    
    15   13   14 1    
    16   13   15 1    
    17   13   16 1    
    18   16   17 1    
    19   17   18 1    
    20   17   19 1    
    21   17   20 1    
    22   20   21 1    
    23   20   22 1    
    24   20   10 1    
    25   16   23 1    
    26   23   24 1    
    27   23   25 1    
    28   23   26 1    
    29   26   27 ar   
    30   27   28 1    
    31   27   29 ar   
    32   29   30 1    
    33   29   31 ar   
    34   31   32 1    
    35   31   33 ar   
    36   33   34 1    
    37   33   35 ar   
    38   35   36 1    
    39   35   26 ar   
    40    2   37 1    
    41   37   38 1    
    42   37   39 1    
@<TRIPOS>SUBSTRUCTURE
     1 ****        1 TEMP              0 ****  ****    0 ROOT 
@<TRIPOS>SET
UNITY_3DHIT     STATIC     ATOMS    <user>   **** Atoms matching 3D or FLEX Search
0
