#	Name:			7-2
#	Creating user name:	jeff
#	Creation time:		Thu Dec  4 18:13:53 2003

#	Modifying user name:	jeff
#	Modification time:	Thu Dec  4 18:13:53 2003

@<TRIPOS>MOLECULE
7-2
   51    54     1     0     1
SMALL
USER_CHARGES
****
From 3DB ct
@<TRIPOS>ATOM
      1 N          10.344000    2.386000   13.423000 N.ar      1 <1>        -0.731900 
      2 C          10.628000    1.664000   12.326000 C.ar      1 <1>         0.834800 
      3 N          11.708000    1.795000   11.556000 N.ar      1 <1>        -0.661400 
      4 C          12.527000    2.760000   11.987000 C.ar      1 <1>         0.551500 
      5 C          12.350000    3.580000   13.095000 C.ar      1 <1>        -0.721200 
      6 C          11.190000    3.356000   13.836000 C.ar      1 <1>         0.836900 
      7 N          10.854000    4.060000   14.964000 N.pl3     1 <1>        -0.775500 
      8 H          11.442000    4.792000   15.340000 H         1 <1>         0.346100 
      9 H           9.995000    3.835000   15.452000 H         1 <1>         0.333200 
     10 C          13.476000    4.438000   13.127000 C.ar      1 <1>         0.179900 
     11 C          14.260000    4.075000   12.056000 C.ar      1 <1>         0.010400 
     12 O          13.699000    3.065000   11.349000 O.3       1 <1>        -0.167200 
     13 C          15.554000    4.681000   11.642000 C.3       1 <1>        -0.049100 
     14 H          15.376000    5.336000   10.780000 H         1 <1>         0.103000 
     15 H          16.242000    3.885000   11.339000 H         1 <1>         0.123400 
     16 N          16.126000    5.447000   12.787000 N.3       1 <1>        -0.312700 
     17 C          15.090000    6.324000   13.410000 C.3       1 <1>        -0.057500 
     18 H          14.695000    7.022000   12.658000 H         1 <1>         0.083300 
     19 H          15.542000    6.929000   14.206000 H         1 <1>         0.103700 
     20 C          13.913000    5.525000   14.042000 C.3       1 <1>        -0.168600 
     21 H          14.242000    5.081000   14.989000 H         1 <1>         0.081600 
     22 H          13.084000    6.208000   14.257000 H         1 <1>         0.077300 
     23 C          17.273000    6.263000   12.345000 C.3       1 <1>        -0.234500 
     24 H          18.076000    5.608000   11.980000 H         1 <1>         0.112400 
     25 H          17.697000    6.827000   13.186000 H         1 <1>         0.133900 
     26 C          16.929000    7.190000   11.197000 C.ar      1 <1>         0.259200 
     27 C          17.163000    6.797000    9.870000 C.ar      1 <1>        -0.390800 
     28 H          17.586000    5.817000    9.659000 H         1 <1>         0.162500 
     29 C          16.853000    7.659000    8.819000 C.ar      1 <1>         0.293200 
     30 C          16.351000    8.941000    9.072000 C.ar      1 <1>        -0.172600 
     31 C          16.072000    9.326000   10.389000 C.ar      1 <1>         0.433100 
     32 C          16.386000    8.461000   11.443000 C.ar      1 <1>        -0.461700 
     33 H          16.198000    8.783000   12.467000 H         1 <1>         0.177900 
     34 O          15.562000   10.542000   10.762000 O.3       1 <1>        -0.291000 
     35 C          15.250000   11.404000    9.665000 C.3       1 <1>        -0.013100 
     36 H          14.425000   12.051000    9.978000 H         1 <1>         0.061300 
     37 H          14.925000   10.852000    8.777000 H         1 <1>         0.057600 
     38 H          16.105000   12.046000    9.435000 H         1 <1>         0.065300 
     39 O          16.116000    9.790000    8.020000 O.3       1 <1>        -0.229600 
     40 C          16.487000    9.154000    6.792000 C.3       1 <1>         0.036700 
     41 H          16.305000    9.865000    5.981000 H         1 <1>         0.034900 
     42 H          15.877000    8.263000    6.606000 H         1 <1>         0.049200 
     43 H          17.552000    8.896000    6.785000 H         1 <1>         0.040700 
     44 O          17.130000    7.250000    7.539000 O.3       1 <1>        -0.222100 
     45 C          17.628000    5.907000    7.558000 C.3       1 <1>        -0.032500 
     46 H          17.846000    5.619000    6.525000 H         1 <1>         0.076500 
     47 H          16.882000    5.211000    7.954000 H         1 <1>         0.047600 
     48 H          18.558000    5.840000    8.134000 H         1 <1>         0.057200 
     49 N           9.723000    0.708000   11.972000 N.pl3     1 <1>        -0.837700 
     50 H           9.884000    0.143000   11.151000 H         1 <1>         0.382800 
     51 H           8.892000    0.580000   12.530000 H         1 <1>         0.383700 
@<TRIPOS>BOND
     1    1    2 ar   
     2    2    3 ar   
     3    3    4 ar   
     4    4    5 ar   
     5    5    6 ar   
     6    6    1 ar   
     7    6    7 1    
     8    7    8 1    
     9    7    9 1    
    10    5   10 ar   
    11   10   11 ar   
    12   11   12 ar   
    13   12    4 ar   
    14   11   13 1    
    15   13   14 1    
    16   13   15 1    
    17   13   16 1    
    18   16   17 1    
    19   17   18 1    
    20   17   19 1    
    21   17   20 1    
    22   20   21 1    
    23   20   22 1    
    24   20   10 1    
    25   16   23 1    
    26   23   24 1    
    27   23   25 1    
    28   23   26 1    
    29   26   27 ar   
    30   27   28 1    
    31   27   29 ar   
    32   29   30 ar   
    33   30   31 ar   
    34   31   32 ar   
    35   32   33 1    
    36   32   26 ar   
    37   31   34 1    
    38   34   35 1    
    39   35   36 1    
    40   35   37 1    
    41   35   38 1    
    42   30   39 1    
    43   39   40 1    
    44   40   41 1    
    45   40   42 1    
    46   40   43 1    
    47   29   44 1    
    48   44   45 1    
    49   45   46 1    
    50   45   47 1    
    51   45   48 1    
    52    2   49 1    
    53   49   50 1    
    54   49   51 1    
@<TRIPOS>SUBSTRUCTURE
     1 ****        1 TEMP              0 ****  ****    0 ROOT 
@<TRIPOS>SET
UNITY_3DHIT     STATIC     ATOMS    <user>   **** Atoms matching 3D or FLEX Search
0
