#	Name:			7-3
#	Creating user name:	jeff
#	Creation time:		Thu Dec  4 18:13:53 2003

#	Modifying user name:	jeff
#	Modification time:	Thu Dec  4 18:13:53 2003

@<TRIPOS>MOLECULE
7-3
   47    50     1     0     1
SMALL
USER_CHARGES
****
From 3DB ct
@<TRIPOS>ATOM
      1 N          10.341000    2.402000   13.409000 N.ar      1 <1>        -0.732700 
      2 C          10.630000    1.676000   12.316000 C.ar      1 <1>         0.836500 
      3 N          11.714000    1.801000   11.551000 N.ar      1 <1>        -0.662500 
      4 C          12.534000    2.764000   11.986000 C.ar      1 <1>         0.555100 
      5 C          12.355000    3.586000   13.092000 C.ar      1 <1>        -0.729400 
      6 C          11.188000    3.369000   13.825000 C.ar      1 <1>         0.839500 
      7 N          10.846000    4.079000   14.948000 N.pl3     1 <1>        -0.775300 
      8 H          11.434000    4.810000   15.326000 H         1 <1>         0.345000 
      9 H           9.981000    3.861000   15.428000 H         1 <1>         0.332400 
     10 C          13.487000    4.437000   13.131000 C.ar      1 <1>         0.188600 
     11 C          14.273000    4.071000   12.063000 C.ar      1 <1>         0.002300 
     12 O          13.711000    3.064000   11.353000 O.3       1 <1>        -0.167400 
     13 C          15.571000    4.671000   11.653000 C.3       1 <1>        -0.028300 
     14 H          15.398000    5.321000   10.786000 H         1 <1>         0.100500 
     15 H          16.257000    3.870000   11.358000 H         1 <1>         0.118100 
     16 N          16.142000    5.442000   12.796000 N.3       1 <1>        -0.319500 
     17 C          15.105000    6.319000   13.418000 C.3       1 <1>        -0.049400 
     18 H          14.711000    7.017000   12.666000 H         1 <1>         0.077600 
     19 H          15.556000    6.923000   14.215000 H         1 <1>         0.102500 
     20 C          13.925000    5.522000   14.048000 C.3       1 <1>        -0.163300 
     21 H          14.252000    5.076000   14.995000 H         1 <1>         0.077100 
     22 H          13.098000    6.207000   14.263000 H         1 <1>         0.076100 
     23 C          17.284000    6.263000   12.348000 C.3       1 <1>        -0.250500 
     24 H          18.089000    5.611000   11.982000 H         1 <1>         0.116500 
     25 H          17.711000    6.830000   13.186000 H         1 <1>         0.136900 
     26 C          16.932000    7.190000   11.203000 C.ar      1 <1>         0.279300 
     27 C          17.155000    6.801000    9.875000 C.ar      1 <1>        -0.411100 
     28 H          17.582000    5.820000    9.668000 H         1 <1>         0.155200 
     29 C          16.832000    7.649000    8.812000 C.ar      1 <1>         0.405900 
     30 C          16.282000    8.907000    9.076000 C.ar      1 <1>        -0.465800 
     31 H          16.029000    9.569000    8.255000 H         1 <1>         0.163100 
     32 C          16.055000    9.313000   10.395000 C.ar      1 <1>         0.476500 
     33 C          16.381000    8.454000   11.449000 C.ar      1 <1>        -0.471600 
     34 H          16.201000    8.778000   12.474000 H         1 <1>         0.170800 
     35 O          15.526000   10.513000   10.786000 O.3       1 <1>        -0.310600 
     36 C          15.184000   11.437000    9.754000 C.3       1 <1>         0.045300 
     37 H          14.786000   12.337000   10.232000 H         1 <1>         0.059000 
     38 H          14.402000   11.030000    9.105000 H         1 <1>         0.037300 
     39 H          16.068000   11.729000    9.178000 H         1 <1>         0.036700 
     40 O          17.103000    7.134000    7.573000 O.3       1 <1>        -0.301100 
     41 C          17.667000    5.824000    7.526000 C.3       1 <1>         0.062100 
     42 H          17.824000    5.568000    6.473000 H         1 <1>         0.058300 
     43 H          16.981000    5.085000    7.950000 H         1 <1>         0.026200 
     44 H          18.641000    5.798000    8.025000 H         1 <1>         0.030500 
     45 N           9.726000    0.720000   11.959000 N.pl3     1 <1>        -0.839900 
     46 H           9.895000    0.147000   11.146000 H         1 <1>         0.383300 
     47 H           8.891000    0.592000   12.513000 H         1 <1>         0.384100 
@<TRIPOS>BOND
     1    1    2 ar   
     2    2    3 ar   
     3    3    4 ar   
     4    4    5 ar   
     5    5    6 ar   
     6    6    1 ar   
     7    6    7 1    
     8    7    8 1    
     9    7    9 1    
    10    5   10 ar   
    11   10   11 ar   
    12   11   12 ar   
    13   12    4 ar   
    14   11   13 1    
    15   13   14 1    
    16   13   15 1    
    17   13   16 1    
    18   16   17 1    
    19   17   18 1    
    20   17   19 1    
    21   17   20 1    
    22   20   21 1    
    23   20   22 1    
    24   20   10 1    
    25   16   23 1    
    26   23   24 1    
    27   23   25 1    
    28   23   26 1    
    29   26   27 ar   
    30   27   28 1    
    31   27   29 ar   
    32   29   30 ar   
    33   30   31 1    
    34   30   32 ar   
    35   32   33 ar   
    36   33   34 1    
    37   33   26 ar   
    38   32   35 1    
    39   35   36 1    
    40   36   37 1    
    41   36   38 1    
    42   36   39 1    
    43   29   40 1    
    44   40   41 1    
    45   41   42 1    
    46   41   43 1    
    47   41   44 1    
    48    2   45 1    
    49   45   46 1    
    50   45   47 1    
@<TRIPOS>SUBSTRUCTURE
     1 ****        1 TEMP              0 ****  ****    0 ROOT 
@<TRIPOS>SET
UNITY_3DHIT     STATIC     ATOMS    <user>   **** Atoms matching 3D or FLEX Search
0
