#	Name:			7-4
#	Creating user name:	jeff
#	Creation time:		Thu Dec  4 18:13:53 2003

#	Modifying user name:	jeff
#	Modification time:	Thu Dec  4 18:13:53 2003

@<TRIPOS>MOLECULE
7-4
   39    42     1     0     1
SMALL
USER_CHARGES
****
From 3DB ct
@<TRIPOS>ATOM
      1 N          10.340000    2.400000   13.413000 N.ar      1 <1>        -0.730900 
      2 C          10.626000    1.673000   12.320000 C.ar      1 <1>         0.835100 
      3 N          11.709000    1.798000   11.553000 N.ar      1 <1>        -0.655500 
      4 C          12.531000    2.760000   11.986000 C.ar      1 <1>         0.530900 
      5 C          12.354000    3.583000   13.092000 C.ar      1 <1>        -0.701500 
      6 C          11.188000    3.366000   13.828000 C.ar      1 <1>         0.833400 
      7 N          10.849000    4.075000   14.952000 N.pl3     1 <1>        -0.778500 
      8 H          11.438000    4.806000   15.329000 H         1 <1>         0.345100 
      9 H           9.986000    3.857000   15.434000 H         1 <1>         0.333900 
     10 C          13.486000    4.434000   13.128000 C.ar      1 <1>         0.138700 
     11 C          14.270000    4.066000   12.059000 C.ar      1 <1>         0.075500 
     12 O          13.706000    3.060000   11.351000 O.3       1 <1>        -0.157100 
     13 C          15.566000    4.667000   11.646000 C.3       1 <1>        -0.270400 
     14 H          15.388000    5.320000   10.783000 H         1 <1>         0.152700 
     15 H          16.252000    3.868000   11.345000 H         1 <1>         0.182900 
     16 N          16.141000    5.435000   12.789000 N.3       1 <1>        -0.116000 
     17 C          15.107000    6.313000   13.413000 C.3       1 <1>        -0.099300 
     18 H          14.714000    7.012000   12.661000 H         1 <1>         0.080200 
     19 H          15.561000    6.916000   14.209000 H         1 <1>         0.101800 
     20 C          13.927000    5.518000   14.044000 C.3       1 <1>        -0.134400 
     21 H          14.255000    5.072000   14.991000 H         1 <1>         0.069000 
     22 H          13.101000    6.204000   14.261000 H         1 <1>         0.077000 
     23 C          17.288000    6.251000   12.340000 C.3       1 <1>        -0.604800 
     24 H          18.064000    5.590000   11.928000 H         1 <1>         0.184800 
     25 H          17.765000    6.753000   13.188000 H         1 <1>         0.179700 
     26 C          16.926000    7.213000   11.224000 C.ar      1 <1>         0.668800 
     27 C          16.383000    8.465000   11.573000 C.ar      1 <1>        -0.447700 
     28 H          16.237000    8.721000   12.623000 H         1 <1>         0.163100 
     29 C          16.028000    9.394000   10.594000 C.ar      1 <1>         0.296800 
     30 H          15.611000   10.354000   10.889000 H         1 <1>         0.043600 
     31 C          16.212000    9.083000    9.251000 C.ar      1 <1>        -0.561600 
     32 C          16.749000    7.853000    8.879000 C.ar      1 <1>         0.462900 
     33 H          16.891000    7.620000    7.827000 H         1 <1>        -0.002200 
     34 C          17.105000    6.922000    9.861000 C.ar      1 <1>        -0.644100 
     35 Cl         17.775000    5.423000    9.319000 Cl        1 <1>         0.116200 
     36 Cl         15.776000   10.227000    8.040000 Cl        1 <1>         0.101900 
     37 N           9.721000    0.718000   11.965000 N.pl3     1 <1>        -0.839500 
     38 H           9.888000    0.144000   11.152000 H         1 <1>         0.384200 
     39 H           8.887000    0.592000   12.520000 H         1 <1>         0.385200 
@<TRIPOS>BOND
     1    1    2 ar   
     2    2    3 ar   
     3    3    4 ar   
     4    4    5 ar   
     5    5    6 ar   
     6    6    1 ar   
     7    6    7 1    
     8    7    8 1    
     9    7    9 1    
    10    5   10 ar   
    11   10   11 ar   
    12   11   12 ar   
    13   12    4 ar   
    14   11   13 1    
    15   13   14 1    
    16   13   15 1    
    17   13   16 1    
    18   16   17 1    
    19   17   18 1    
    20   17   19 1    
    21   17   20 1    
    22   20   21 1    
    23   20   22 1    
    24   20   10 1    
    25   16   23 1    
    26   23   24 1    
    27   23   25 1    
    28   23   26 1    
    29   26   27 ar   
    30   27   28 1    
    31   27   29 ar   
    32   29   30 1    
    33   29   31 ar   
    34   31   32 ar   
    35   32   33 1    
    36   32   34 ar   
    37   34   26 ar   
    38   34   35 1    
    39   31   36 1    
    40    2   37 1    
    41   37   38 1    
    42   37   39 1    
@<TRIPOS>SUBSTRUCTURE
     1 ****        1 TEMP              0 ****  ****    0 ROOT 
@<TRIPOS>SET
UNITY_3DHIT     STATIC     ATOMS    <user>   **** Atoms matching 3D or FLEX Search
0
