#	Name:			7-5
#	Creating user name:	jeff
#	Creation time:		Thu Dec  4 18:13:53 2003

#	Modifying user name:	jeff
#	Modification time:	Thu Dec  4 18:13:53 2003

@<TRIPOS>MOLECULE
7-5
   39    42     1     0     1
SMALL
USER_CHARGES
****
From 3DB ct
@<TRIPOS>ATOM
      1 N          10.340000    2.406000   13.406000 N.ar      1 <1>        -0.732400 
      2 C          10.630000    1.678000   12.314000 C.ar      1 <1>         0.839100 
      3 N          11.715000    1.802000   11.550000 N.ar      1 <1>        -0.667300 
      4 C          12.536000    2.765000   11.985000 C.ar      1 <1>         0.567900 
      5 C          12.356000    3.587000   13.091000 C.ar      1 <1>        -0.737800 
      6 C          11.188000    3.372000   13.823000 C.ar      1 <1>         0.837600 
      7 N          10.846000    4.082000   14.946000 N.pl3     1 <1>        -0.776200 
      8 H          11.434000    4.812000   15.324000 H         1 <1>         0.345200 
      9 H           9.981000    3.864000   15.425000 H         1 <1>         0.334400 
     10 C          13.489000    4.438000   13.131000 C.ar      1 <1>         0.211500 
     11 C          14.276000    4.069000   12.064000 C.ar      1 <1>        -0.038600 
     12 O          13.713000    3.063000   11.354000 O.3       1 <1>        -0.160000 
     13 C          15.575000    4.669000   11.655000 C.3       1 <1>        -0.025800 
     14 H          15.403000    5.317000   10.787000 H         1 <1>         0.099700 
     15 H          16.261000    3.867000   11.363000 H         1 <1>         0.129600 
     16 N          16.145000    5.442000   12.797000 N.3       1 <1>        -0.232800 
     17 C          15.107000    6.318000   13.418000 C.3       1 <1>        -0.044000 
     18 H          14.714000    7.015000   12.665000 H         1 <1>         0.066400 
     19 H          15.558000    6.924000   14.214000 H         1 <1>         0.102700 
     20 C          13.928000    5.521000   14.048000 C.3       1 <1>        -0.180800 
     21 H          14.255000    5.075000   14.995000 H         1 <1>         0.077600 
     22 H          13.101000    6.206000   14.264000 H         1 <1>         0.082100 
     23 C          17.287000    6.262000   12.348000 C.3       1 <1>        -0.516700 
     24 H          18.091000    5.611000   11.982000 H         1 <1>         0.186900 
     25 H          17.714000    6.830000   13.186000 H         1 <1>         0.188600 
     26 C          16.932000    7.189000   11.203000 C.ar      1 <1>         0.203000 
     27 C          16.362000    8.446000   11.455000 C.ar      1 <1>        -0.182400 
     28 H          16.174000    8.764000   12.480000 H         1 <1>         0.123100 
     29 C          16.035000    9.302000   10.401000 C.ar      1 <1>         0.085600 
     30 H          15.595000   10.273000   10.622000 H         1 <1>         0.065600 
     31 C          16.273000    8.913000    9.081000 C.ar      1 <1>        -0.207200 
     32 C          16.839000    7.662000    8.816000 C.ar      1 <1>        -0.220200 
     33 C          17.166000    6.805000    9.874000 C.ar      1 <1>         0.041300 
     34 H          17.607000    5.832000    9.661000 H         1 <1>         0.067000 
     35 Cl         17.162000    7.116000    7.207000 Cl        1 <1>         0.068900 
     36 Cl         15.845000   10.021000    7.823000 Cl        1 <1>         0.066800 
     37 N           9.725000    0.724000   11.957000 N.pl3     1 <1>        -0.841300 
     38 H           9.895000    0.149000   11.144000 H         1 <1>         0.386500 
     39 H           8.890000    0.597000   12.509000 H         1 <1>         0.386200 
@<TRIPOS>BOND
     1    1    2 ar   
     2    2    3 ar   
     3    3    4 ar   
     4    4    5 ar   
     5    5    6 ar   
     6    6    1 ar   
     7    6    7 1    
     8    7    8 1    
     9    7    9 1    
    10    5   10 ar   
    11   10   11 ar   
    12   11   12 ar   
    13   12    4 ar   
    14   11   13 1    
    15   13   14 1    
    16   13   15 1    
    17   13   16 1    
    18   16   17 1    
    19   17   18 1    
    20   17   19 1    
    21   17   20 1    
    22   20   21 1    
    23   20   22 1    
    24   20   10 1    
    25   16   23 1    
    26   23   24 1    
    27   23   25 1    
    28   23   26 1    
    29   26   27 ar   
    30   27   28 1    
    31   27   29 ar   
    32   29   30 1    
    33   29   31 ar   
    34   31   32 ar   
    35   32   33 ar   
    36   33   34 1    
    37   33   26 ar   
    38   32   35 1    
    39   31   36 1    
    40    2   37 1    
    41   37   38 1    
    42   37   39 1    
@<TRIPOS>SUBSTRUCTURE
     1 ****        1 TEMP              0 ****  ****    0 ROOT 
@<TRIPOS>SET
UNITY_3DHIT     STATIC     ATOMS    <user>   **** Atoms matching 3D or FLEX Search
0
