#	Name:			7-6
#	Creating user name:	jeff
#	Creation time:		Thu Dec  4 18:13:53 2003

#	Modifying user name:	jeff
#	Modification time:	Thu Dec  4 18:13:53 2003

@<TRIPOS>MOLECULE
7-6
   39    42     1     0     1
SMALL
USER_CHARGES
****
From 3DB ct
@<TRIPOS>ATOM
      1 N          10.337000    2.379000   13.427000 N.ar      1 <1>        -0.736600 
      2 C          10.622000    1.656000   12.330000 C.ar      1 <1>         0.844200 
      3 N          11.701000    1.789000   11.559000 N.ar      1 <1>        -0.659600 
      4 C          12.520000    2.754000   11.990000 C.ar      1 <1>         0.530600 
      5 C          12.343000    3.573000   13.100000 C.ar      1 <1>        -0.718800 
      6 C          11.183000    3.349000   13.840000 C.ar      1 <1>         0.841600 
      7 N          10.845000    4.053000   14.967000 N.pl3     1 <1>        -0.781000 
      8 H          11.432000    4.787000   15.343000 H         1 <1>         0.345000 
      9 H           9.985000    3.829000   15.453000 H         1 <1>         0.335300 
     10 C          13.472000    4.430000   13.133000 C.ar      1 <1>         0.152000 
     11 C          14.252000    4.069000   12.059000 C.ar      1 <1>         0.100900 
     12 O          13.690000    3.062000   11.350000 O.3       1 <1>        -0.155600 
     13 C          15.543000    4.679000   11.641000 C.3       1 <1>        -0.383300 
     14 H          15.355000    5.335000   10.783000 H         1 <1>         0.183000 
     15 H          16.231000    3.884000   11.334000 H         1 <1>         0.202800 
     16 N          16.119000    5.444000   12.783000 N.3       1 <1>        -0.041000 
     17 C          15.086000    6.316000   13.415000 C.3       1 <1>        -0.263200 
     18 H          14.687000    7.017000   12.669000 H         1 <1>         0.124500 
     19 H          15.540000    6.916000   14.213000 H         1 <1>         0.153700 
     20 C          13.912000    5.513000   14.050000 C.3       1 <1>        -0.099600 
     21 H          14.246000    5.066000   14.994000 H         1 <1>         0.065400 
     22 H          13.084000    6.195000   14.272000 H         1 <1>         0.074900 
     23 C          17.273000    6.258000   12.349000 C.3       1 <1>        -0.582400 
     24 H          18.080000    5.602000   11.996000 H         1 <1>         0.161400 
     25 H          17.717000    6.779000   13.205000 H         1 <1>         0.157400 
     26 C          16.948000    7.202000   11.207000 C.ar      1 <1>         0.875800 
     27 C          17.178000    6.823000    9.867000 C.ar      1 <1>        -0.684900 
     28 C          16.875000    7.685000    8.806000 C.ar      1 <1>         0.271700 
     29 H          17.058000    7.380000    7.777000 H         1 <1>         0.048500 
     30 C          16.338000    8.943000    9.055000 C.ar      1 <1>        -0.314500 
     31 H          16.103000    9.612000    8.229000 H         1 <1>         0.145800 
     32 C          16.105000    9.342000   10.367000 C.ar      1 <1>         0.279200 
     33 H          15.686000   10.329000   10.554000 H         1 <1>         0.044400 
     34 C          16.406000    8.484000   11.432000 C.ar      1 <1>        -0.666200 
     35 Cl         16.073000    9.086000   13.022000 Cl        1 <1>         0.102900 
     36 Cl         17.858000    5.286000    9.446000 Cl        1 <1>         0.120500 
     37 N           9.721000    0.697000   11.977000 N.pl3     1 <1>        -0.846800 
     38 H           9.888000    0.126000   11.162000 H         1 <1>         0.385500 
     39 H           8.890000    0.565000   12.536000 H         1 <1>         0.386700 
@<TRIPOS>BOND
     1    1    2 ar   
     2    2    3 ar   
     3    3    4 ar   
     4    4    5 ar   
     5    5    6 ar   
     6    6    1 ar   
     7    6    7 1    
     8    7    8 1    
     9    7    9 1    
    10    5   10 ar   
    11   10   11 ar   
    12   11   12 ar   
    13   12    4 ar   
    14   11   13 1    
    15   13   14 1    
    16   13   15 1    
    17   13   16 1    
    18   16   17 1    
    19   17   18 1    
    20   17   19 1    
    21   17   20 1    
    22   20   21 1    
    23   20   22 1    
    24   20   10 1    
    25   16   23 1    
    26   23   24 1    
    27   23   25 1    
    28   23   26 1    
    29   26   27 ar   
    30   27   28 ar   
    31   28   29 1    
    32   28   30 ar   
    33   30   31 1    
    34   30   32 ar   
    35   32   33 1    
    36   32   34 ar   
    37   34   26 ar   
    38   34   35 1    
    39   27   36 1    
    40    2   37 1    
    41   37   38 1    
    42   37   39 1    
@<TRIPOS>SUBSTRUCTURE
     1 ****        1 TEMP              0 ****  ****    0 ROOT 
@<TRIPOS>SET
UNITY_3DHIT     STATIC     ATOMS    <user>   **** Atoms matching 3D or FLEX Search
0
