#	Name:			8-3
#	Creating user name:	jeff
#	Creation time:		Thu Dec  4 18:13:53 2003

#	Modifying user name:	jeff
#	Modification time:	Thu Dec  4 18:13:53 2003

@<TRIPOS>MOLECULE
8-3
   33    35     1     0     1
SMALL
USER_CHARGES
****
From 3DB ct
@<TRIPOS>ATOM
      1 N          10.117000    2.602000   12.839000 N.ar      1 <1>        -0.684700 
      2 C          10.762000    1.986000   11.850000 C.ar      1 <1>         0.799400 
      3 N          12.043000    2.180000   11.545000 N.ar      1 <1>        -0.716900 
      4 C          12.731000    3.048000   12.272000 C.ar      1 <1>         0.858000 
      5 C          12.163000    3.743000   13.336000 C.ar      1 <1>        -0.771700 
      6 C          10.820000    3.460000   13.588000 C.ar      1 <1>         0.745100 
      7 N          10.104000    4.099000   14.585000 N.pl3     1 <1>        -0.752800 
      8 H          10.565000    4.285000   15.470000 H         1 <1>         0.329100 
      9 H           9.132000    3.816000   14.668000 H         1 <1>         0.329900 
     10 C          12.964000    4.661000   14.055000 C.ar      1 <1>         0.302600 
     11 H          12.539000    5.227000   14.882000 H         1 <1>         0.079600 
     12 C          14.296000    4.861000   13.699000 C.ar      1 <1>        -0.349200 
     13 C          14.763000    4.119000   12.629000 C.ar      1 <1>         0.370600 
     14 H          15.791000    4.217000   12.284000 H         1 <1>         0.095500 
     15 N          14.011000    3.230000   11.930000 N.ar      1 <1>        -0.591700 
     16 C          15.173000    5.851000   14.418000 C.3       1 <1>        -0.214100 
     17 H          15.431000    5.472000   15.413000 H         1 <1>         0.140900 
     18 H          14.619000    6.785000   14.552000 H         1 <1>         0.086000 
     19 S          16.706000    6.166000   13.468000 S.3       1 <1>        -0.037900 
     20 C          16.123000    7.202000   12.134000 C.ar      1 <1>        -0.072800 
     21 C          17.028000    7.501000   11.107000 C.ar      1 <1>         0.056400 
     22 H          18.050000    7.125000   11.142000 H         1 <1>         0.072000 
     23 C          16.641000    8.288000   10.020000 C.ar      1 <1>        -0.190000 
     24 H          17.356000    8.515000    9.231000 H         1 <1>         0.121300 
     25 C          15.341000    8.778000    9.945000 C.ar      1 <1>        -0.042100 
     26 H          15.037000    9.391000    9.098000 H         1 <1>         0.096000 
     27 C          14.428000    8.476000   10.953000 C.ar      1 <1>        -0.133400 
     28 H          13.408000    8.849000   10.890000 H         1 <1>         0.107900 
     29 C          14.816000    7.687000   12.040000 C.ar      1 <1>        -0.105500 
     30 H          14.068000    7.454000   12.795000 H         1 <1>         0.120000 
     31 N          10.060000    1.094000   11.100000 N.pl3     1 <1>        -0.794700 
     32 H          10.518000    0.595000   10.351000 H         1 <1>         0.380500 
     33 H           9.092000    0.908000   11.319000 H         1 <1>         0.366800 
@<TRIPOS>BOND
     1    1    2 ar   
     2    2    3 ar   
     3    3    4 ar   
     4    4    5 ar   
     5    5    6 ar   
     6    6    1 ar   
     7    6    7 1    
     8    7    8 1    
     9    7    9 1    
    10    5   10 ar   
    11   10   11 1    
    12   10   12 ar   
    13   12   13 ar   
    14   13   14 1    
    15   13   15 ar   
    16   15    4 ar   
    17   12   16 1    
    18   16   17 1    
    19   16   18 1    
    20   16   19 1    
    21   19   20 1    
    22   20   21 ar   
    23   21   22 1    
    24   21   23 ar   
    25   23   24 1    
    26   23   25 ar   
    27   25   26 1    
    28   25   27 ar   
    29   27   28 1    
    30   27   29 ar   
    31   29   30 1    
    32   29   20 ar   
    33    2   31 1    
    34   31   32 1    
    35   31   33 1    
@<TRIPOS>SUBSTRUCTURE
     1 ****        1 TEMP              0 ****  ****    0 ROOT 
@<TRIPOS>SET
UNITY_3DHIT     STATIC     ATOMS    <user>   **** Atoms matching 3D or FLEX Search
0
