#	Name:			8-6
#	Creating user name:	jeff
#	Creation time:		Thu Dec  4 18:13:53 2003

#	Modifying user name:	jeff
#	Modification time:	Thu Dec  4 18:13:53 2003

@<TRIPOS>MOLECULE
8-6
   33    35     1     0     1
SMALL
USER_CHARGES
****
From 3DB ct
@<TRIPOS>ATOM
      1 N          10.124000    2.592000   12.848000 N.ar      1 <1>        -0.683200 
      2 C          10.770000    1.973000   11.863000 C.ar      1 <1>         0.791200 
      3 N          12.048000    2.172000   11.553000 N.ar      1 <1>        -0.705300 
      4 C          12.731000    3.055000   12.266000 C.ar      1 <1>         0.848300 
      5 C          12.159000    3.762000   13.321000 C.ar      1 <1>        -0.788400 
      6 C          10.821000    3.466000   13.584000 C.ar      1 <1>         0.761200 
      7 N          10.104000    4.107000   14.579000 N.pl3     1 <1>        -0.783800 
      8 H          10.568000    4.307000   15.459000 H         1 <1>         0.334500 
      9 H           9.136000    3.811000   14.672000 H         1 <1>         0.340800 
     10 C          12.953000    4.700000   14.023000 C.ar      1 <1>         0.381800 
     11 H          12.525000    5.277000   14.840000 H         1 <1>         0.060600 
     12 C          14.285000    4.898000   13.665000 C.ar      1 <1>        -0.512500 
     13 C          14.755000    4.145000   12.603000 C.ar      1 <1>         0.433300 
     14 H          15.782000    4.247000   12.255000 H         1 <1>         0.082700 
     15 N          14.007000    3.243000   11.917000 N.ar      1 <1>        -0.600200 
     16 C          15.160000    5.895000   14.369000 C.3       1 <1>         0.004500 
     17 H          15.359000    5.556000   15.392000 H         1 <1>         0.102800 
     18 H          14.638000    6.856000   14.448000 H         1 <1>         0.031700 
     19 S          16.735000    6.133000   13.474000 S.3       1 <1>        -0.095300 
     20 C          16.130000    7.158000   12.133000 C.ar      1 <1>         0.084400 
     21 C          14.796000    7.588000   12.200000 C.ar      1 <1>         0.128000 
     22 H          14.170000    7.305000   13.044000 H         1 <1>         0.057300 
     23 C          14.261000    8.382000   11.186000 C.ar      1 <1>        -0.435000 
     24 C          15.041000    8.755000   10.094000 C.ar      1 <1>         0.156400 
     25 H          14.627000    9.374000    9.302000 H         1 <1>         0.060600 
     26 C          16.367000    8.327000   10.013000 C.ar      1 <1>        -0.045000 
     27 H          16.968000    8.618000    9.154000 H         1 <1>         0.090800 
     28 C          16.912000    7.529000   11.025000 C.ar      1 <1>        -0.238200 
     29 Cl         18.559000    7.030000   10.843000 Cl        1 <1>         0.086100 
     30 Cl         12.624000    8.906000   11.284000 Cl        1 <1>         0.091900 
     31 N          10.072000    1.072000   11.120000 N.pl3     1 <1>        -0.792300 
     32 H          10.528000    0.583000   10.363000 H         1 <1>         0.381600 
     33 H           9.100000    0.898000   11.329000 H         1 <1>         0.368500 
@<TRIPOS>BOND
     1    1    2 ar   
     2    2    3 ar   
     3    3    4 ar   
     4    4    5 ar   
     5    5    6 ar   
     6    6    1 ar   
     7    6    7 1    
     8    7    8 1    
     9    7    9 1    
    10    5   10 ar   
    11   10   11 1    
    12   10   12 ar   
    13   12   13 ar   
    14   13   14 1    
    15   13   15 ar   
    16   15    4 ar   
    17   12   16 1    
    18   16   17 1    
    19   16   18 1    
    20   16   19 1    
    21   19   20 1    
    22   20   21 ar   
    23   21   22 1    
    24   21   23 ar   
    25   23   24 ar   
    26   24   25 1    
    27   24   26 ar   
    28   26   27 1    
    29   26   28 ar   
    30   28   20 ar   
    31   28   29 1    
    32   23   30 1    
    33    2   31 1    
    34   31   32 1    
    35   31   33 1    
@<TRIPOS>SUBSTRUCTURE
     1 ****        1 TEMP              0 ****  ****    0 ROOT 
@<TRIPOS>SET
UNITY_3DHIT     STATIC     ATOMS    <user>   **** Atoms matching 3D or FLEX Search
0
