#	Name:			8-7
#	Creating user name:	jeff
#	Creation time:		Thu Dec  4 18:13:53 2003

#	Modifying user name:	jeff
#	Modification time:	Thu Dec  4 18:13:54 2003

@<TRIPOS>MOLECULE
8-7
   33    35     1     0     1
SMALL
USER_CHARGES
****
From 3DB ct
@<TRIPOS>ATOM
      1 N          10.123000    2.589000   12.847000 N.ar      1 <1>        -0.687900 
      2 C          10.771000    1.971000   11.862000 C.ar      1 <1>         0.792200 
      3 N          12.049000    2.171000   11.554000 N.ar      1 <1>        -0.709600 
      4 C          12.730000    3.056000   12.267000 C.ar      1 <1>         0.855100 
      5 C          12.155000    3.762000   13.321000 C.ar      1 <1>        -0.786300 
      6 C          10.818000    3.464000   13.584000 C.ar      1 <1>         0.767100 
      7 N          10.099000    4.103000   14.579000 N.pl3     1 <1>        -0.777400 
      8 H          10.562000    4.302000   15.459000 H         1 <1>         0.333200 
      9 H           9.132000    3.805000   14.670000 H         1 <1>         0.339000 
     10 C          12.947000    4.703000   14.023000 C.ar      1 <1>         0.359600 
     11 H          12.516000    5.280000   14.839000 H         1 <1>         0.064700 
     12 C          14.278000    4.902000   13.667000 C.ar      1 <1>        -0.422400 
     13 C          14.751000    4.149000   12.606000 C.ar      1 <1>         0.379600 
     14 H          15.779000    4.252000   12.260000 H         1 <1>         0.099900 
     15 N          14.006000    3.245000   11.920000 N.ar      1 <1>        -0.592000 
     16 C          15.151000    5.901000   14.372000 C.3       1 <1>        -0.155200 
     17 H          15.354000    5.559000   15.393000 H         1 <1>         0.133600 
     18 H          14.625000    6.860000   14.452000 H         1 <1>         0.079900 
     19 S          16.726000    6.144000   13.473000 S.3       1 <1>        -0.019900 
     20 C          16.151000    7.153000   12.118000 C.ar      1 <1>        -0.275000 
     21 C          17.044000    7.489000   11.095000 C.ar      1 <1>         0.430900 
     22 H          18.069000    7.125000   11.119000 H         1 <1>         0.011900 
     23 C          16.621000    8.291000   10.035000 C.ar      1 <1>        -0.657100 
     24 C          15.316000    8.772000    9.984000 C.ar      1 <1>         0.525600 
     25 H          14.992000    9.397000    9.157000 H         1 <1>        -0.010500 
     26 C          14.434000    8.447000   11.010000 C.ar      1 <1>        -0.588900 
     27 C          14.843000    7.646000   12.077000 C.ar      1 <1>         0.274700 
     28 H          14.142000    7.419000   12.876000 H         1 <1>         0.051000 
     29 Cl         12.819000    9.046000   10.967000 Cl        1 <1>         0.103200 
     30 Cl         17.727000    8.692000    8.776000 Cl        1 <1>         0.120900 
     31 N          10.074000    1.071000   11.116000 N.pl3     1 <1>        -0.789700 
     32 H          10.531000    0.583000   10.360000 H         1 <1>         0.380900 
     33 H           9.100000    0.901000   11.320000 H         1 <1>         0.368900 
@<TRIPOS>BOND
     1    1    2 ar   
     2    2    3 ar   
     3    3    4 ar   
     4    4    5 ar   
     5    5    6 ar   
     6    6    1 ar   
     7    6    7 1    
     8    7    8 1    
     9    7    9 1    
    10    5   10 ar   
    11   10   11 1    
    12   10   12 ar   
    13   12   13 ar   
    14   13   14 1    
    15   13   15 ar   
    16   15    4 ar   
    17   12   16 1    
    18   16   17 1    
    19   16   18 1    
    20   16   19 1    
    21   19   20 1    
    22   20   21 ar   
    23   21   22 1    
    24   21   23 ar   
    25   23   24 ar   
    26   24   25 1    
    27   24   26 ar   
    28   26   27 ar   
    29   27   28 1    
    30   27   20 ar   
    31   26   29 1    
    32   23   30 1    
    33    2   31 1    
    34   31   32 1    
    35   31   33 1    
@<TRIPOS>SUBSTRUCTURE
     1 ****        1 TEMP              0 ****  ****    0 ROOT 
@<TRIPOS>SET
UNITY_3DHIT     STATIC     ATOMS    <user>   **** Atoms matching 3D or FLEX Search
0
