#	Name:			8-8
#	Creating user name:	jeff
#	Creation time:		Thu Dec  4 18:13:54 2003

#	Modifying user name:	jeff
#	Modification time:	Thu Dec  4 18:13:54 2003

@<TRIPOS>MOLECULE
8-8
   41    43     1     0     1
SMALL
USER_CHARGES
****
From 3DB ct
@<TRIPOS>ATOM
      1 N          10.122000    2.602000   12.839000 N.ar      1 <1>        -0.683800 
      2 C          10.768000    1.990000   11.848000 C.ar      1 <1>         0.806200 
      3 N          12.049000    2.181000   11.549000 N.ar      1 <1>        -0.725900 
      4 C          12.735000    3.049000   12.276000 C.ar      1 <1>         0.877600 
      5 C          12.164000    3.748000   13.337000 C.ar      1 <1>        -0.787600 
      6 C          10.822000    3.459000   13.590000 C.ar      1 <1>         0.735200 
      7 N          10.106000    4.090000   14.592000 N.pl3     1 <1>        -0.727700 
      8 H          10.568000    4.272000   15.477000 H         1 <1>         0.322300 
      9 H           9.136000    3.800000   14.677000 H         1 <1>         0.322700 
     10 C          12.961000    4.673000   14.053000 C.ar      1 <1>         0.321400 
     11 H          12.532000    5.243000   14.874000 H         1 <1>         0.074700 
     12 C          14.296000    4.863000   13.705000 C.ar      1 <1>        -0.342400 
     13 C          14.767000    4.117000   12.638000 C.ar      1 <1>         0.360300 
     14 H          15.796000    4.215000   12.298000 H         1 <1>         0.098400 
     15 N          14.015000    3.229000   11.938000 N.ar      1 <1>        -0.595300 
     16 C          15.175000    5.847000   14.426000 C.3       1 <1>        -0.203700 
     17 H          15.446000    5.439000   15.406000 H         1 <1>         0.135200 
     18 H          14.623000    6.778000   14.595000 H         1 <1>         0.078000 
     19 S          16.691000    6.192000   13.461000 S.3       1 <1>        -0.017500 
     20 C          16.090000    7.190000   12.102000 C.ar      1 <1>        -0.119400 
     21 C          14.744000    7.583000   12.152000 C.ar      1 <1>        -0.118000 
     22 H          14.114000    7.298000   12.994000 H         1 <1>         0.149200 
     23 C          14.177000    8.338000   11.121000 C.ar      1 <1>        -0.222700 
     24 H          13.128000    8.623000   11.175000 H         1 <1>         0.145400 
     25 C          14.951000    8.702000   10.023000 C.ar      1 <1>         0.240000 
     26 C          16.305000    8.358000    9.981000 C.ar      1 <1>         0.059500 
     27 C          16.861000    7.576000   11.000000 C.ar      1 <1>        -0.044700 
     28 H          17.903000    7.286000   10.908000 H         1 <1>         0.109700 
     29 O          17.141000    8.691000    8.947000 O.3       1 <1>        -0.217800 
     30 C          18.474000    8.215000    9.159000 C.3       1 <1>        -0.044500 
     31 H          18.942000    8.093000    8.178000 H         1 <1>         0.076300 
     32 H          18.493000    7.242000    9.664000 H         1 <1>         0.053400 
     33 H          19.058000    8.951000    9.719000 H         1 <1>         0.061600 
     34 O          14.346000    9.423000    9.029000 O.3       1 <1>        -0.309900 
     35 C          15.287000    9.707000    7.987000 C.3       1 <1>         0.112800 
     36 H          14.742000   10.184000    7.167000 H         1 <1>         0.035500 
     37 H          15.744000    8.788000    7.602000 H         1 <1>         0.016500 
     38 H          16.059000   10.403000    8.332000 H         1 <1>         0.018600 
     39 N          10.065000    1.107000   11.088000 N.pl3     1 <1>        -0.799100 
     40 H          10.520000    0.627000   10.326000 H         1 <1>         0.382200 
     41 H           9.090000    0.940000   11.288000 H         1 <1>         0.367600 
@<TRIPOS>BOND
     1    1    2 ar   
     2    2    3 ar   
     3    3    4 ar   
     4    4    5 ar   
     5    5    6 ar   
     6    6    1 ar   
     7    6    7 1    
     8    7    8 1    
     9    7    9 1    
    10    5   10 ar   
    11   10   11 1    
    12   10   12 ar   
    13   12   13 ar   
    14   13   14 1    
    15   13   15 ar   
    16   15    4 ar   
    17   12   16 1    
    18   16   17 1    
    19   16   18 1    
    20   16   19 1    
    21   19   20 1    
    22   20   21 ar   
    23   21   22 1    
    24   21   23 ar   
    25   23   24 1    
    26   23   25 ar   
    27   25   26 ar   
    28   26   27 ar   
    29   27   28 1    
    30   27   20 ar   
    31   26   29 1    
    32   29   30 1    
    33   30   31 1    
    34   30   32 1    
    35   30   33 1    
    36   25   34 1    
    37   34   35 1    
    38   35   36 1    
    39   35   37 1    
    40   35   38 1    
    41    2   39 1    
    42   39   40 1    
    43   39   41 1    
@<TRIPOS>SUBSTRUCTURE
     1 ****        1 TEMP              0 ****  ****    0 ROOT 
@<TRIPOS>SET
UNITY_3DHIT     STATIC     ATOMS    <user>   **** Atoms matching 3D or FLEX Search
0
