#	Name:			9-12d
#	Creating user name:	jeff
#	Creation time:		Thu Dec  4 18:13:54 2003

#	Modifying user name:	jeff
#	Modification time:	Thu Dec  4 18:13:54 2003

@<TRIPOS>MOLECULE
9-12d
   35    37     1     0     1
SMALL
USER_CHARGES
****
From 3DB ct
@<TRIPOS>ATOM
      1 N          10.147000    2.610000   12.858000 N.ar      1 <1>        -0.637800 
      2 C          10.768000    1.984000   11.862000 C.ar      1 <1>         0.746300 
      3 N          12.044000    2.166000   11.539000 N.ar      1 <1>        -0.668700 
      4 C          12.742000    3.042000   12.254000 C.ar      1 <1>         0.633800 
      5 C          12.211000    3.769000   13.327000 C.ar      1 <1>        -0.305100 
      6 C          10.873000    3.479000   13.582000 C.ar      1 <1>         0.599600 
      7 N          10.180000    4.148000   14.584000 N.pl3     1 <1>        -0.711700 
      8 H          10.712000    4.474000   15.386000 H         1 <1>         0.342800 
      9 H           9.220000    3.864000   14.748000 H         1 <1>         0.345500 
     10 N          12.954000    4.671000   14.047000 N.ar      1 <1>        -0.211500 
     11 C          14.245000    4.842000   13.666000 C.ar      1 <1>         0.086700 
     12 C          14.756000    4.117000   12.604000 C.ar      1 <1>         0.201800 
     13 H          15.785000    4.241000   12.277000 H         1 <1>         0.101600 
     14 N          14.020000    3.217000   11.900000 N.ar      1 <1>        -0.465300 
     15 C          15.092000    5.856000   14.391000 C.3       1 <1>        -0.255500 
     16 H          15.296000    5.506000   15.409000 H         1 <1>         0.124400 
     17 H          14.534000    6.796000   14.463000 H         1 <1>         0.111300 
     18 S          16.664000    6.158000   13.496000 S.3       1 <1>        -0.018000 
     19 C          16.110000    7.186000   12.145000 C.ar      1 <1>        -0.096700 
     20 C          14.789000    7.649000   12.172000 C.ar      1 <1>        -0.005700 
     21 H          14.121000    7.379000   12.989000 H         1 <1>         0.087800 
     22 C          14.300000    8.457000   11.144000 C.ar      1 <1>        -0.171700 
     23 H          13.268000    8.802000   11.169000 H         1 <1>         0.118700 
     24 C          15.129000    8.819000   10.084000 C.ar      1 <1>        -0.118700 
     25 H          14.730000    9.443000    9.285000 H         1 <1>         0.120300 
     26 C          16.460000    8.391000   10.053000 C.ar      1 <1>         0.095200 
     27 C          16.941000    7.570000   11.086000 C.ar      1 <1>        -0.132000 
     28 H          17.979000    7.244000   11.055000 H         1 <1>         0.136800 
     29 C          17.344000    8.764000    8.897000 C.3       1 <1>        -0.237800 
     30 H          18.401000    8.726000    9.179000 H         1 <1>         0.069600 
     31 H          17.134000    9.786000    8.564000 H         1 <1>         0.065900 
     32 H          17.179000    8.075000    8.064000 H         1 <1>         0.074300 
     33 N          10.046000    1.099000   11.123000 N.pl3     1 <1>        -0.753500 
     34 H          10.483000    0.612000   10.354000 H         1 <1>         0.370400 
     35 H           9.072000    0.945000   11.339000 H         1 <1>         0.356800 
@<TRIPOS>BOND
     1    1    2 ar   
     2    2    3 ar   
     3    3    4 ar   
     4    4    5 ar   
     5    5    6 ar   
     6    6    1 ar   
     7    6    7 1    
     8    7    8 1    
     9    7    9 1    
    10    5   10 ar   
    11   10   11 ar   
    12   11   12 ar   
    13   12   13 1    
    14   12   14 ar   
    15   14    4 ar   
    16   11   15 1    
    17   15   16 1    
    18   15   17 1    
    19   15   18 1    
    20   18   19 1    
    21   19   20 ar   
    22   20   21 1    
    23   20   22 ar   
    24   22   23 1    
    25   22   24 ar   
    26   24   25 1    
    27   24   26 ar   
    28   26   27 ar   
    29   27   28 1    
    30   27   19 ar   
    31   26   29 1    
    32   29   30 1    
    33   29   31 1    
    34   29   32 1    
    35    2   33 1    
    36   33   34 1    
    37   33   35 1    
@<TRIPOS>SUBSTRUCTURE
     1 ****        1 TEMP              0 ****  ****    0 ROOT 
@<TRIPOS>SET
UNITY_3DHIT     STATIC     ATOMS    <user>   **** Atoms matching 3D or FLEX Search
0
