#	Name:			9-12k
#	Creating user name:	jeff
#	Creation time:		Thu Dec  4 18:13:54 2003

#	Modifying user name:	jeff
#	Modification time:	Thu Dec  4 18:13:54 2003

@<TRIPOS>MOLECULE
9-12k
   33    35     1     0     1
SMALL
USER_CHARGES
****
From 3DB ct
@<TRIPOS>ATOM
      1 N          10.179000    2.647000   12.900000 N.ar      1 <1>        -0.648700 
      2 C          10.766000    1.993000   11.902000 C.ar      1 <1>         0.756700 
      3 N          12.033000    2.159000   11.536000 N.ar      1 <1>        -0.667100 
      4 C          12.762000    3.039000   12.215000 C.ar      1 <1>         0.614400 
      5 C          12.270000    3.790000   13.291000 C.ar      1 <1>        -0.304200 
      6 C          10.935000    3.523000   13.586000 C.ar      1 <1>         0.616700 
      7 N          10.277000    4.221000   14.591000 N.pl3     1 <1>        -0.717600 
      8 H          10.834000    4.555000   15.373000 H         1 <1>         0.342600 
      9 H           9.318000    3.953000   14.786000 H         1 <1>         0.348900 
     10 N          13.046000    4.688000   13.980000 N.ar      1 <1>        -0.216200 
     11 C          14.334000    4.819000   13.577000 C.ar      1 <1>         0.075300 
     12 C          14.803000    4.082000   12.505000 C.ar      1 <1>         0.202800 
     13 H          15.826000    4.186000   12.152000 H         1 <1>         0.091800 
     14 N          14.033000    3.191000   11.824000 N.ar      1 <1>        -0.454500 
     15 C          15.232000    5.811000   14.285000 C.3       1 <1>        -0.051700 
     16 H          15.713000    5.309000   15.134000 H         1 <1>         0.082700 
     17 H          14.613000    6.623000   14.684000 H         1 <1>         0.092100 
     18 N          16.230000    6.352000   13.369000 N.pl3     1 <1>        -0.526600 
     19 H          17.169000    5.964000   13.446000 H         1 <1>         0.317200 
     20 C          15.931000    7.118000   12.261000 C.ar      1 <1>         0.364200 
     21 C          16.944000    7.374000   11.323000 C.ar      1 <1>        -0.399000 
     22 H          17.937000    6.949000   11.463000 H         1 <1>         0.137100 
     23 C          16.714000    8.172000   10.197000 C.ar      1 <1>         0.256500 
     24 H          17.520000    8.346000    9.489000 H         1 <1>         0.047600 
     25 C          15.459000    8.737000    9.998000 C.ar      1 <1>        -0.514700 
     26 C          14.441000    8.510000   10.918000 C.ar      1 <1>         0.209700 
     27 H          13.457000    8.950000   10.775000 H         1 <1>         0.051600 
     28 C          14.681000    7.710000   12.043000 C.ar      1 <1>        -0.267300 
     29 H          13.860000    7.560000   12.740000 H         1 <1>         0.115100 
     30 Cl         15.168000    9.721000    8.617000 Cl        1 <1>         0.072700 
     31 N          10.019000    1.093000   11.209000 N.pl3     1 <1>        -0.759900 
     32 H          10.432000    0.573000   10.449000 H         1 <1>         0.371600 
     33 H           9.055000    0.939000   11.466000 H         1 <1>         0.360100 
@<TRIPOS>BOND
     1    1    2 ar   
     2    2    3 ar   
     3    3    4 ar   
     4    4    5 ar   
     5    5    6 ar   
     6    6    1 ar   
     7    6    7 1    
     8    7    8 1    
     9    7    9 1    
    10    5   10 ar   
    11   10   11 ar   
    12   11   12 ar   
    13   12   13 1    
    14   12   14 ar   
    15   14    4 ar   
    16   11   15 1    
    17   15   16 1    
    18   15   17 1    
    19   15   18 1    
    20   18   19 1    
    21   18   20 1    
    22   20   21 ar   
    23   21   22 1    
    24   21   23 ar   
    25   23   24 1    
    26   23   25 ar   
    27   25   26 ar   
    28   26   27 1    
    29   26   28 ar   
    30   28   29 1    
    31   28   20 ar   
    32   25   30 1    
    33    2   31 1    
    34   31   32 1    
    35   31   33 1    
@<TRIPOS>SUBSTRUCTURE
     1 ****        1 TEMP              0 ****  ****    0 ROOT 
@<TRIPOS>SET
UNITY_3DHIT     STATIC     ATOMS    <user>   **** Atoms matching 3D or FLEX Search
0
