#	Name:			9-12c
#	Creating user name:	jeff
#	Creation time:		Thu Dec  4 18:13:54 2003

#	Modifying user name:	jeff
#	Modification time:	Thu Dec  4 18:13:54 2003

@<TRIPOS>MOLECULE
9-12c
   38    41     1     0     1
SMALL
USER_CHARGES
****
From 3DB ct
@<TRIPOS>ATOM
      1 N          10.125000    2.548000   12.846000 N.ar      1 <1>        -0.636400 
      2 C          10.779000    1.922000   11.871000 C.ar      1 <1>         0.748100 
      3 N          12.049000    2.150000   11.550000 N.ar      1 <1>        -0.667800 
      4 C          12.708000    3.069000   12.250000 C.ar      1 <1>         0.622500 
      5 C          12.139000    3.798000   13.302000 C.ar      1 <1>        -0.286100 
      6 C          10.811000    3.463000   13.553000 C.ar      1 <1>         0.587100 
      7 N          10.083000    4.130000   14.531000 N.pl3     1 <1>        -0.704300 
      8 H          10.594000    4.492000   15.331000 H         1 <1>         0.339600 
      9 H           9.133000    3.814000   14.693000 H         1 <1>         0.345000 
     10 N          12.841000    4.742000   14.009000 N.ar      1 <1>        -0.211500 
     11 C          14.130000    4.950000   13.643000 C.ar      1 <1>         0.092100 
     12 C          14.680000    4.220000   12.603000 C.ar      1 <1>         0.188200 
     13 H          15.712000    4.363000   12.294000 H         1 <1>         0.105100 
     14 N          13.982000    3.285000   11.904000 N.ar      1 <1>        -0.456800 
     15 C          14.946000    5.966000   14.397000 C.3       1 <1>        -0.282400 
     16 H          15.021000    5.659000   15.446000 H         1 <1>         0.131700 
     17 H          14.439000    6.938000   14.375000 H         1 <1>         0.116300 
     18 S          16.632000    6.122000   13.703000 S.3       1 <1>        -0.006000 
     19 C          16.230000    7.105000   12.251000 C.ar      1 <1>        -0.147800 
     20 C          14.912000    7.577000   12.165000 C.ar      1 <1>        -0.061000 
     21 H          14.186000    7.349000   12.944000 H         1 <1>         0.112800 
     22 C          14.506000    8.344000   11.078000 C.ar      1 <1>        -0.108800 
     23 H          13.481000    8.703000   11.016000 H         1 <1>         0.104300 
     24 C          15.415000    8.650000   10.069000 C.ar      1 <1>        -0.156500 
     25 H          15.075000    9.252000    9.226000 H         1 <1>         0.125400 
     26 C          16.742000    8.200000   10.132000 C.ar      1 <1>         0.048700 
     27 C          17.176000    7.418000   11.234000 C.ar      1 <1>         0.153900 
     28 C          18.531000    7.001000   11.243000 C.ar      1 <1>        -0.174900 
     29 H          18.926000    6.407000   12.066000 H         1 <1>         0.119500 
     30 C          19.412000    7.335000   10.211000 C.ar      1 <1>        -0.083300 
     31 H          20.446000    6.998000   10.248000 H         1 <1>         0.108100 
     32 C          18.965000    8.096000    9.140000 C.ar      1 <1>        -0.097300 
     33 H          19.647000    8.359000    8.333000 H         1 <1>         0.105600 
     34 C          17.640000    8.527000    9.102000 C.ar      1 <1>        -0.165800 
     35 H          17.312000    9.126000    8.253000 H         1 <1>         0.120300 
     36 N          10.101000    0.988000   11.152000 N.pl3     1 <1>        -0.755600 
     37 H          10.564000    0.494000   10.403000 H         1 <1>         0.370700 
     38 H           9.135000    0.794000   11.370000 H         1 <1>         0.357500 
@<TRIPOS>BOND
     1    1    2 ar   
     2    2    3 ar   
     3    3    4 ar   
     4    4    5 ar   
     5    5    6 ar   
     6    6    1 ar   
     7    6    7 1    
     8    7    8 1    
     9    7    9 1    
    10    5   10 ar   
    11   10   11 ar   
    12   11   12 ar   
    13   12   13 1    
    14   12   14 ar   
    15   14    4 ar   
    16   11   15 1    
    17   15   16 1    
    18   15   17 1    
    19   15   18 1    
    20   18   19 1    
    21   19   20 ar   
    22   20   21 1    
    23   20   22 ar   
    24   22   23 1    
    25   22   24 ar   
    26   24   25 1    
    27   24   26 ar   
    28   26   27 ar   
    29   27   19 ar   
    30   27   28 ar   
    31   28   29 1    
    32   28   30 ar   
    33   30   31 1    
    34   30   32 ar   
    35   32   33 1    
    36   32   34 ar   
    37   34   35 1    
    38   34   26 ar   
    39    2   36 1    
    40   36   37 1    
    41   36   38 1    
@<TRIPOS>SUBSTRUCTURE
     1 ****        1 TEMP              0 ****  ****    0 ROOT 
@<TRIPOS>SET
UNITY_3DHIT     STATIC     ATOMS    <user>   **** Atoms matching 3D or FLEX Search
0
