#	Name:			9-12g
#	Creating user name:	jeff
#	Creation time:		Thu Dec  4 18:13:54 2003

#	Modifying user name:	jeff
#	Modification time:	Thu Dec  4 18:13:54 2003

@<TRIPOS>MOLECULE
9-12g
   36    38     1     0     1
SMALL
USER_CHARGES
****
From 3DB ct
@<TRIPOS>ATOM
      1 N          10.149000    2.601000   12.868000 N.ar      1 <1>        -0.640500 
      2 C          10.770000    1.965000   11.879000 C.ar      1 <1>         0.751900 
      3 N          12.041000    2.160000   11.540000 N.ar      1 <1>        -0.672200 
      4 C          12.736000    3.053000   12.237000 C.ar      1 <1>         0.639600 
      5 C          12.205000    3.789000   13.304000 C.ar      1 <1>        -0.317200 
      6 C          10.871000    3.490000   13.572000 C.ar      1 <1>         0.602500 
      7 N          10.178000    4.168000   14.567000 N.pl3     1 <1>        -0.704500 
      8 H          10.711000    4.510000   15.362000 H         1 <1>         0.340800 
      9 H           9.222000    3.878000   14.741000 H         1 <1>         0.343300 
     10 N          12.946000    4.702000   14.011000 N.ar      1 <1>        -0.202800 
     11 C          14.235000    4.873000   13.630000 C.ar      1 <1>         0.081800 
     12 C          14.746000    4.143000   12.571000 C.ar      1 <1>         0.207600 
     13 H          15.775000    4.266000   12.241000 H         1 <1>         0.100000 
     14 N          14.011000    3.235000   11.875000 N.ar      1 <1>        -0.468000 
     15 C          15.083000    5.881000   14.361000 C.3       1 <1>        -0.264800 
     16 H          15.260000    5.543000   15.388000 H         1 <1>         0.128300 
     17 H          14.541000    6.831000   14.413000 H         1 <1>         0.109800 
     18 S          16.685000    6.144000   13.510000 S.3       1 <1>        -0.008100 
     19 C          16.143000    7.173000   12.160000 C.ar      1 <1>        -0.201500 
     20 C          14.832000    7.651000   12.085000 C.ar      1 <1>         0.140300 
     21 H          14.105000    7.408000   12.859000 H         1 <1>         0.076300 
     22 C          14.421000    8.443000   11.004000 C.ar      1 <1>        -0.394400 
     23 H          13.392000    8.790000   10.994000 H         1 <1>         0.160500 
     24 C          15.319000    8.757000    9.984000 C.ar      1 <1>         0.409400 
     25 C          16.626000    8.271000   10.055000 C.ar      1 <1>        -0.299400 
     26 H          17.338000    8.504000    9.265000 H         1 <1>         0.131300 
     27 C          17.036000    7.479000   11.132000 C.ar      1 <1>        -0.006600 
     28 H          18.061000    7.112000   11.156000 H         1 <1>         0.122800 
     29 O          15.047000    9.515000    8.879000 O.3       1 <1>        -0.311400 
     30 C          16.117000    9.712000    7.957000 C.3       1 <1>         0.055500 
     31 H          15.741000   10.334000    7.139000 H         1 <1>         0.059800 
     32 H          16.448000    8.761000    7.529000 H         1 <1>         0.030400 
     33 H          16.948000   10.248000    8.428000 H         1 <1>         0.027800 
     34 N          10.057000    1.052000   11.166000 N.pl3     1 <1>        -0.757200 
     35 H          10.496000    0.547000   10.411000 H         1 <1>         0.370800 
     36 H           9.091000    0.876000   11.404000 H         1 <1>         0.358000 
@<TRIPOS>BOND
     1    1    2 ar   
     2    2    3 ar   
     3    3    4 ar   
     4    4    5 ar   
     5    5    6 ar   
     6    6    1 ar   
     7    6    7 1    
     8    7    8 1    
     9    7    9 1    
    10    5   10 ar   
    11   10   11 ar   
    12   11   12 ar   
    13   12   13 1    
    14   12   14 ar   
    15   14    4 ar   
    16   11   15 1    
    17   15   16 1    
    18   15   17 1    
    19   15   18 1    
    20   18   19 1    
    21   19   20 ar   
    22   20   21 1    
    23   20   22 ar   
    24   22   23 1    
    25   22   24 ar   
    26   24   25 ar   
    27   25   26 1    
    28   25   27 ar   
    29   27   28 1    
    30   27   19 ar   
    31   24   29 1    
    32   29   30 1    
    33   30   31 1    
    34   30   32 1    
    35   30   33 1    
    36    2   34 1    
    37   34   35 1    
    38   34   36 1    
@<TRIPOS>SUBSTRUCTURE
     1 ****        1 TEMP              0 ****  ****    0 ROOT 
@<TRIPOS>SET
UNITY_3DHIT     STATIC     ATOMS    <user>   **** Atoms matching 3D or FLEX Search
0
