#	Name:			9-12m
#	Creating user name:	jeff
#	Creation time:		Thu Dec  4 18:13:54 2003

#	Modifying user name:	jeff
#	Modification time:	Thu Dec  4 18:13:54 2003

@<TRIPOS>MOLECULE
9-12m
   40    42     1     0     1
SMALL
USER_CHARGES
****
From 3DB ct
@<TRIPOS>ATOM
      1 N          10.185000    2.630000   12.901000 N.ar      1 <1>        -0.653700 
      2 C          10.783000    1.974000   11.910000 C.ar      1 <1>         0.745300 
      3 N          12.048000    2.155000   11.544000 N.ar      1 <1>        -0.659900 
      4 C          12.762000    3.056000   12.212000 C.ar      1 <1>         0.607000 
      5 C          12.254000    3.817000   13.274000 C.ar      1 <1>        -0.310600 
      6 C          10.925000    3.527000   13.576000 C.ar      1 <1>         0.644500 
      7 N          10.257000    4.222000   14.577000 N.pl3     1 <1>        -0.742300 
      8 H          10.810000    4.570000   15.355000 H         1 <1>         0.354300 
      9 H           9.305000    3.938000   14.777000 H         1 <1>         0.352200 
     10 N          13.010000    4.742000   13.948000 N.ar      1 <1>        -0.257900 
     11 C          14.294000    4.895000   13.542000 C.ar      1 <1>         0.158600 
     12 C          14.783000    4.139000   12.491000 C.ar      1 <1>         0.186600 
     13 H          15.807000    4.254000   12.143000 H         1 <1>         0.102400 
     14 N          14.032000    3.221000   11.825000 N.ar      1 <1>        -0.459000 
     15 C          15.175000    5.911000   14.236000 C.3       1 <1>        -0.150100 
     16 H          15.502000    5.489000   15.191000 H         1 <1>         0.099500 
     17 H          14.579000    6.804000   14.462000 H         1 <1>         0.111500 
     18 N          16.301000    6.283000   13.376000 N.pl3     1 <1>        -0.332300 
     19 H          16.904000    5.484000   13.160000 H         1 <1>         0.251400 
     20 C          16.017000    7.056000   12.236000 C.ar      1 <1>        -0.142100 
     21 C          17.088000    7.432000   11.383000 C.ar      1 <1>         0.211900 
     22 C          16.837000    8.130000   10.199000 C.ar      1 <1>        -0.205300 
     23 H          17.633000    8.424000    9.520000 H         1 <1>         0.128000 
     24 C          15.530000    8.460000    9.848000 C.ar      1 <1>        -0.119800 
     25 H          15.336000    8.998000    8.921000 H         1 <1>         0.118600 
     26 C          14.472000    8.108000   10.682000 C.ar      1 <1>        -0.229200 
     27 H          13.459000    8.385000   10.392000 H         1 <1>         0.138500 
     28 C          14.700000    7.421000   11.886000 C.ar      1 <1>         0.239300 
     29 C          13.510000    7.113000   12.755000 C.3       1 <1>        -0.348700 
     30 H          12.752000    7.900000   12.666000 H         1 <1>         0.080400 
     31 H          13.785000    7.067000   13.813000 H         1 <1>         0.102000 
     32 H          13.058000    6.163000   12.456000 H         1 <1>         0.108100 
     33 O          18.340000    7.048000   11.811000 O.3       1 <1>        -0.237800 
     34 C          19.455000    7.517000   11.055000 C.3       1 <1>        -0.029000 
     35 H          20.364000    7.178000   11.561000 H         1 <1>         0.068900 
     36 H          19.479000    8.611000   11.022000 H         1 <1>         0.046300 
     37 H          19.454000    7.087000   10.048000 H         1 <1>         0.051400 
     38 N          10.049000    1.057000   11.225000 N.pl3     1 <1>        -0.754900 
     39 H          10.469000    0.540000   10.467000 H         1 <1>         0.367700 
     40 H           9.088000    0.893000   11.485000 H         1 <1>         0.358400 
@<TRIPOS>BOND
     1    1    2 ar   
     2    2    3 ar   
     3    3    4 ar   
     4    4    5 ar   
     5    5    6 ar   
     6    6    1 ar   
     7    6    7 1    
     8    7    8 1    
     9    7    9 1    
    10    5   10 ar   
    11   10   11 ar   
    12   11   12 ar   
    13   12   13 1    
    14   12   14 ar   
    15   14    4 ar   
    16   11   15 1    
    17   15   16 1    
    18   15   17 1    
    19   15   18 1    
    20   18   19 1    
    21   18   20 1    
    22   20   21 ar   
    23   21   22 ar   
    24   22   23 1    
    25   22   24 ar   
    26   24   25 1    
    27   24   26 ar   
    28   26   27 1    
    29   26   28 ar   
    30   28   20 ar   
    31   28   29 1    
    32   29   30 1    
    33   29   31 1    
    34   29   32 1    
    35   21   33 1    
    36   33   34 1    
    37   34   35 1    
    38   34   36 1    
    39   34   37 1    
    40    2   38 1    
    41   38   39 1    
    42   38   40 1    
@<TRIPOS>SUBSTRUCTURE
     1 ****        1 TEMP              0 ****  ****    0 ROOT 
@<TRIPOS>SET
UNITY_3DHIT     STATIC     ATOMS    <user>   **** Atoms matching 3D or FLEX Search
0
