#	Name:			9-12t
#	Creating user name:	jeff
#	Creation time:		Thu Dec  4 18:13:55 2003

#	Modifying user name:	jeff
#	Modification time:	Thu Dec  4 18:13:55 2003

@<TRIPOS>MOLECULE
9-12t
   40    43     1     0     1
SMALL
USER_CHARGES
****
From 3DB ct
@<TRIPOS>ATOM
      1 N          10.166000    2.628000   12.888000 N.ar      1 <1>        -0.650700 
      2 C          10.767000    1.981000   11.892000 C.ar      1 <1>         0.753900 
      3 N          12.035000    2.158000   11.538000 N.ar      1 <1>        -0.670000 
      4 C          12.751000    3.043000   12.225000 C.ar      1 <1>         0.630700 
      5 C          12.244000    3.788000   13.297000 C.ar      1 <1>        -0.336200 
      6 C          10.909000    3.508000   13.582000 C.ar      1 <1>         0.627400 
      7 N          10.237000    4.200000   14.582000 N.pl3     1 <1>        -0.719600 
      8 H          10.785000    4.538000   15.368000 H         1 <1>         0.343600 
      9 H           9.279000    3.925000   14.768000 H         1 <1>         0.346100 
     10 N          13.006000    4.692000   13.992000 N.ar      1 <1>        -0.216200 
     11 C          14.288000    4.847000   13.589000 C.ar      1 <1>         0.141600 
     12 C          14.780000    4.104000   12.531000 C.ar      1 <1>         0.166100 
     13 H          15.809000    4.206000   12.196000 H         1 <1>         0.106900 
     14 N          14.024000    3.206000   11.846000 N.ar      1 <1>        -0.458900 
     15 C          15.160000    5.816000   14.340000 C.3       1 <1>        -0.271900 
     16 H          15.659000    5.281000   15.158000 H         1 <1>         0.067900 
     17 H          14.531000    6.577000   14.817000 H         1 <1>         0.104400 
     18 C          16.202000    6.455000   13.419000 C.3       1 <1>         0.074300 
     19 H          16.839000    5.696000   12.949000 H         1 <1>         0.029200 
     20 H          16.897000    7.063000   14.016000 H         1 <1>         0.035000 
     21 C          15.998000    7.387000   12.239000 C.ar      1 <1>        -0.110700 
     22 C          14.711000    7.923000   12.051000 C.ar      1 <1>         0.003400 
     23 H          13.905000    7.676000   12.741000 H         1 <1>         0.071800 
     24 C          14.443000    8.777000   10.987000 C.ar      1 <1>        -0.136800 
     25 H          13.443000    9.187000   10.855000 H         1 <1>         0.115600 
     26 C          15.455000    9.104000   10.089000 C.ar      1 <1>        -0.201000 
     27 H          15.222000    9.774000    9.262000 H         1 <1>         0.131200 
     28 C          16.747000    8.581000   10.240000 C.ar      1 <1>         0.155900 
     29 C          17.039000    7.708000   11.321000 C.ar      1 <1>        -0.036000 
     30 C          18.359000    7.209000   11.417000 C.ar      1 <1>        -0.075100 
     31 H          18.645000    6.534000   12.221000 H         1 <1>         0.075500 
     32 C          19.346000    7.557000   10.491000 C.ar      1 <1>        -0.127200 
     33 H          20.353000    7.155000   10.594000 H         1 <1>         0.111300 
     34 C          19.043000    8.413000    9.442000 C.ar      1 <1>        -0.073100 
     35 H          19.808000    8.687000    8.719000 H         1 <1>         0.101400 
     36 C          17.751000    8.921000    9.318000 C.ar      1 <1>        -0.199600 
     37 H          17.532000    9.591000    8.486000 H         1 <1>         0.121800 
     38 N          10.031000    1.080000   11.188000 N.pl3     1 <1>        -0.761500 
     39 H          10.453000    0.572000   10.425000 H         1 <1>         0.370700 
     40 H           9.065000    0.922000   11.433000 H         1 <1>         0.358800 
@<TRIPOS>BOND
     1    1    2 ar   
     2    2    3 ar   
     3    3    4 ar   
     4    4    5 ar   
     5    5    6 ar   
     6    6    1 ar   
     7    6    7 1    
     8    7    8 1    
     9    7    9 1    
    10    5   10 ar   
    11   10   11 ar   
    12   11   12 ar   
    13   12   13 1    
    14   12   14 ar   
    15   14    4 ar   
    16   11   15 1    
    17   15   16 1    
    18   15   17 1    
    19   15   18 1    
    20   18   19 1    
    21   18   20 1    
    22   18   21 1    
    23   21   22 ar   
    24   22   23 1    
    25   22   24 ar   
    26   24   25 1    
    27   24   26 ar   
    28   26   27 1    
    29   26   28 ar   
    30   28   29 ar   
    31   29   21 ar   
    32   29   30 ar   
    33   30   31 1    
    34   30   32 ar   
    35   32   33 1    
    36   32   34 ar   
    37   34   35 1    
    38   34   36 ar   
    39   36   37 1    
    40   36   28 ar   
    41    2   38 1    
    42   38   39 1    
    43   38   40 1    
@<TRIPOS>SUBSTRUCTURE
     1 ****        1 TEMP              0 ****  ****    0 ROOT 
@<TRIPOS>SET
UNITY_3DHIT     STATIC     ATOMS    <user>   **** Atoms matching 3D or FLEX Search
0
