#	Name:			9-12q
#	Creating user name:	jeff
#	Creation time:		Thu Dec  4 18:13:55 2003

#	Modifying user name:	jeff
#	Modification time:	Thu Dec  4 18:13:55 2003

@<TRIPOS>MOLECULE
9-12q
   45    47     1     0     1
SMALL
USER_CHARGES
****
From 3DB ct
@<TRIPOS>ATOM
      1 N          10.179000    2.648000   12.899000 N.ar      1 <1>        -0.653300 
      2 C          10.766000    1.996000   11.900000 C.ar      1 <1>         0.762700 
      3 N          12.034000    2.159000   11.537000 N.ar      1 <1>        -0.665500 
      4 C          12.763000    3.037000   12.218000 C.ar      1 <1>         0.599600 
      5 C          12.271000    3.788000   13.294000 C.ar      1 <1>        -0.298700 
      6 C          10.936000    3.521000   13.588000 C.ar      1 <1>         0.619200 
      7 N          10.277000    4.217000   14.594000 N.pl3     1 <1>        -0.716500 
      8 H          10.834000    4.547000   15.378000 H         1 <1>         0.343800 
      9 H           9.319000    3.949000   14.787000 H         1 <1>         0.349900 
     10 N          13.047000    4.685000   13.984000 N.ar      1 <1>        -0.227200 
     11 C          14.336000    4.816000   13.582000 C.ar      1 <1>         0.112200 
     12 C          14.806000    4.077000   12.511000 C.ar      1 <1>         0.214900 
     13 H          15.829000    4.180000   12.158000 H         1 <1>         0.077800 
     14 N          14.035000    3.187000   11.830000 N.ar      1 <1>        -0.455000 
     15 C          15.233000    5.810000   14.287000 C.3       1 <1>        -0.146700 
     16 H          15.719000    5.309000   15.133000 H         1 <1>         0.095700 
     17 H          14.613000    6.620000   14.688000 H         1 <1>         0.118500 
     18 N          16.226000    6.356000   13.367000 N.pl3     1 <1>        -0.398300 
     19 H          17.171000    5.981000   13.454000 H         1 <1>         0.281100 
     20 C          15.931000    7.122000   12.255000 C.ar      1 <1>         0.321000 
     21 C          16.950000    7.372000   11.325000 C.ar      1 <1>        -0.459300 
     22 H          17.941000    6.949000   11.477000 H         1 <1>         0.150300 
     23 C          16.714000    8.156000   10.196000 C.ar      1 <1>         0.321000 
     24 C          15.468000    8.756000   10.004000 C.ar      1 <1>        -0.180400 
     25 C          14.427000    8.516000   10.909000 C.ar      1 <1>         0.413800 
     26 C          14.674000    7.709000   12.031000 C.ar      1 <1>        -0.419100 
     27 H          13.879000    7.525000   12.747000 H         1 <1>         0.157500 
     28 O          13.226000    9.111000   10.615000 O.3       1 <1>        -0.290600 
     29 C          13.160000    9.899000    9.428000 C.3       1 <1>         0.004300 
     30 H          12.148000   10.311000    9.359000 H         1 <1>         0.056900 
     31 H          13.332000    9.284000    8.539000 H         1 <1>         0.057400 
     32 H          13.860000   10.740000    9.474000 H         1 <1>         0.062000 
     33 O          15.249000    9.526000    8.886000 O.3       1 <1>        -0.244100 
     34 C          16.455000    9.627000    8.122000 C.3       1 <1>         0.039800 
     35 H          16.243000   10.245000    7.244000 H         1 <1>         0.029200 
     36 H          16.787000    8.643000    7.772000 H         1 <1>         0.050400 
     37 H          17.250000   10.114000    8.697000 H         1 <1>         0.042200 
     38 O          17.746000    8.386000    9.323000 O.3       1 <1>        -0.242200 
     39 C          18.907000    7.658000    9.742000 C.3       1 <1>        -0.040800 
     40 H          19.703000    7.856000    9.018000 H         1 <1>         0.075400 
     41 H          18.717000    6.580000    9.752000 H         1 <1>         0.058200 
     42 H          19.250000    7.996000   10.726000 H         1 <1>         0.057800 
     43 N          10.016000    1.101000   11.201000 N.pl3     1 <1>        -0.766700 
     44 H          10.428000    0.588000   10.435000 H         1 <1>         0.371100 
     45 H           9.049000    0.956000   11.451000 H         1 <1>         0.360900 
@<TRIPOS>BOND
     1    1    2 ar   
     2    2    3 ar   
     3    3    4 ar   
     4    4    5 ar   
     5    5    6 ar   
     6    6    1 ar   
     7    6    7 1    
     8    7    8 1    
     9    7    9 1    
    10    5   10 ar   
    11   10   11 ar   
    12   11   12 ar   
    13   12   13 1    
    14   12   14 ar   
    15   14    4 ar   
    16   11   15 1    
    17   15   16 1    
    18   15   17 1    
    19   15   18 1    
    20   18   19 1    
    21   18   20 1    
    22   20   21 ar   
    23   21   22 1    
    24   21   23 ar   
    25   23   24 ar   
    26   24   25 ar   
    27   25   26 ar   
    28   26   27 1    
    29   26   20 ar   
    30   25   28 1    
    31   28   29 1    
    32   29   30 1    
    33   29   31 1    
    34   29   32 1    
    35   24   33 1    
    36   33   34 1    
    37   34   35 1    
    38   34   36 1    
    39   34   37 1    
    40   23   38 1    
    41   38   39 1    
    42   39   40 1    
    43   39   41 1    
    44   39   42 1    
    45    2   43 1    
    46   43   44 1    
    47   43   45 1    
@<TRIPOS>SUBSTRUCTURE
     1 ****        1 TEMP              0 ****  ****    0 ROOT 
@<TRIPOS>SET
UNITY_3DHIT     STATIC     ATOMS    <user>   **** Atoms matching 3D or FLEX Search
0
