#	Name:			9-12e
#	Creating user name:	jeff
#	Creation time:		Thu Dec  4 18:13:54 2003

#	Modifying user name:	jeff
#	Modification time:	Thu Dec  4 18:13:54 2003

@<TRIPOS>MOLECULE
9-12e
   35    37     1     0     1
SMALL
USER_CHARGES
****
From 3DB ct
@<TRIPOS>ATOM
      1 N          10.149000    2.604000   12.866000 N.ar      1 <1>        -0.640300 
      2 C          10.769000    1.970000   11.875000 C.ar      1 <1>         0.748500 
      3 N          12.041000    2.160000   11.539000 N.ar      1 <1>        -0.669100 
      4 C          12.738000    3.049000   12.240000 C.ar      1 <1>         0.631700 
      5 C          12.207000    3.784000   13.307000 C.ar      1 <1>        -0.310100 
      6 C          10.873000    3.488000   13.575000 C.ar      1 <1>         0.605700 
      7 N          10.183000    4.163000   14.575000 N.pl3     1 <1>        -0.713700 
      8 H          10.721000    4.498000   15.370000 H         1 <1>         0.342200 
      9 H           9.227000    3.875000   14.751000 H         1 <1>         0.345400 
     10 N          12.948000    4.696000   14.017000 N.ar      1 <1>        -0.207000 
     11 C          14.239000    4.864000   13.638000 C.ar      1 <1>         0.084200 
     12 C          14.751000    4.133000   12.579000 C.ar      1 <1>         0.208000 
     13 H          15.781000    4.252000   12.253000 H         1 <1>         0.097800 
     14 N          14.015000    3.227000   11.881000 N.ar      1 <1>        -0.464200 
     15 C          15.089000    5.863000   14.380000 C.3       1 <1>        -0.263100 
     16 H          15.273000    5.502000   15.397000 H         1 <1>         0.128400 
     17 H          14.541000    6.809000   14.456000 H         1 <1>         0.111100 
     18 S          16.679000    6.162000   13.518000 S.3       1 <1>        -0.011800 
     19 C          16.120000    7.162000   12.149000 C.ar      1 <1>        -0.142200 
     20 C          17.028000    7.479000   11.133000 C.ar      1 <1>        -0.020400 
     21 H          18.052000    7.110000   11.169000 H         1 <1>         0.111200 
     22 C          16.635000    8.269000   10.049000 C.ar      1 <1>        -0.250200 
     23 H          17.357000    8.491000    9.264000 H         1 <1>         0.141500 
     24 C          15.331000    8.770000    9.973000 C.ar      1 <1>         0.212300 
     25 C          14.424000    8.454000   10.989000 C.ar      1 <1>        -0.281700 
     26 H          13.400000    8.826000   10.949000 H         1 <1>         0.142700 
     27 C          14.819000    7.665000   12.074000 C.ar      1 <1>         0.043400 
     28 H          14.092000    7.461000   12.858000 H         1 <1>         0.082600 
     29 C          14.898000    9.587000    8.790000 C.3       1 <1>        -0.229600 
     30 H          14.532000    8.931000    7.995000 H         1 <1>         0.071500 
     31 H          15.732000   10.183000    8.404000 H         1 <1>         0.060100 
     32 H          14.101000   10.285000    9.068000 H         1 <1>         0.062000 
     33 N          10.052000    1.067000   11.155000 N.pl3     1 <1>        -0.754400 
     34 H          10.487000    0.568000   10.393000 H         1 <1>         0.370300 
     35 H           9.082000    0.903000   11.383000 H         1 <1>         0.357100 
@<TRIPOS>BOND
     1    1    2 ar   
     2    2    3 ar   
     3    3    4 ar   
     4    4    5 ar   
     5    5    6 ar   
     6    6    1 ar   
     7    6    7 1    
     8    7    8 1    
     9    7    9 1    
    10    5   10 ar   
    11   10   11 ar   
    12   11   12 ar   
    13   12   13 1    
    14   12   14 ar   
    15   14    4 ar   
    16   11   15 1    
    17   15   16 1    
    18   15   17 1    
    19   15   18 1    
    20   18   19 1    
    21   19   20 ar   
    22   20   21 1    
    23   20   22 ar   
    24   22   23 1    
    25   22   24 ar   
    26   24   25 ar   
    27   25   26 1    
    28   25   27 ar   
    29   27   28 1    
    30   27   19 ar   
    31   24   29 1    
    32   29   30 1    
    33   29   31 1    
    34   29   32 1    
    35    2   33 1    
    36   33   34 1    
    37   33   35 1    
@<TRIPOS>SUBSTRUCTURE
     1 ****        1 TEMP              0 ****  ****    0 ROOT 
@<TRIPOS>SET
UNITY_3DHIT     STATIC     ATOMS    <user>   **** Atoms matching 3D or FLEX Search
0
