#	Name:			9-12s
#	Creating user name:	jeff
#	Creation time:		Thu Dec  4 18:13:55 2003

#	Modifying user name:	jeff
#	Modification time:	Thu Dec  4 18:13:55 2003

@<TRIPOS>MOLECULE
9-12s
   40    42     1     0     1
SMALL
USER_CHARGES
****
From 3DB ct
@<TRIPOS>ATOM
      1 N          10.172000    2.652000   12.892000 N.ar      1 <1>        -0.648100 
      2 C          10.762000    1.995000   11.897000 C.ar      1 <1>         0.744900 
      3 N          12.031000    2.158000   11.537000 N.ar      1 <1>        -0.658700 
      4 C          12.760000    3.034000   12.220000 C.ar      1 <1>         0.595300 
      5 C          12.263000    3.793000   13.288000 C.ar      1 <1>        -0.283400 
      6 C          10.920000    3.546000   13.563000 C.ar      1 <1>         0.633000 
      7 N          10.284000    4.178000   14.624000 N.pl3     1 <1>        -0.742100 
      8 H          10.612000    5.105000   14.882000 H         1 <1>         0.353300 
      9 H           9.296000    3.986000   14.749000 H         1 <1>         0.353600 
     10 N          13.037000    4.693000   13.976000 N.ar      1 <1>        -0.251500 
     11 C          14.330000    4.821000   13.576000 C.ar      1 <1>         0.111700 
     12 C          14.807000    4.066000   12.520000 C.ar      1 <1>         0.193900 
     13 H          15.836000    4.152000   12.182000 H         1 <1>         0.087400 
     14 N          14.036000    3.175000   11.840000 N.ar      1 <1>        -0.445300 
     15 C          15.251000    5.798000   14.286000 C.3       1 <1>        -0.069100 
     16 H          15.750000    5.269000   15.106000 H         1 <1>         0.086800 
     17 H          14.643000    6.612000   14.696000 H         1 <1>         0.097400 
     18 N          16.248000    6.341000   13.368000 N.pl3     1 <1>        -0.497400 
     19 H          17.210000    6.080000   13.589000 H         1 <1>         0.311700 
     20 C          15.984000    7.148000   12.285000 C.ar      1 <1>         0.362600 
     21 C          17.012000    7.397000   11.366000 C.ar      1 <1>        -0.284100 
     22 H          17.992000    6.946000   11.527000 H         1 <1>         0.137700 
     23 C          16.818000    8.213000   10.240000 C.ar      1 <1>        -0.207700 
     24 C          15.554000    8.776000   10.028000 C.ar      1 <1>        -0.230700 
     25 H          15.379000    9.402000    9.154000 H         1 <1>         0.133100 
     26 C          14.511000    8.544000   10.927000 C.ar      1 <1>         0.355400 
     27 C          14.733000    7.735000   12.046000 C.ar      1 <1>        -0.341800 
     28 H          13.926000    7.550000   12.749000 H         1 <1>         0.159000 
     29 O          13.333000    9.159000   10.599000 O.3       1 <1>        -0.286900 
     30 C          13.323000    9.944000    9.408000 C.3       1 <1>        -0.013100 
     31 H          12.317000   10.358000    9.291000 H         1 <1>         0.079400 
     32 H          13.534000    9.326000    8.528000 H         1 <1>         0.051900 
     33 H          14.023000   10.782000    9.483000 H         1 <1>         0.050700 
     34 C          17.936000    8.444000    9.258000 C.3       1 <1>         1.078900 
     35 F          17.950000    7.524000    8.247000 F         1 <1>        -0.330900 
     36 F          19.182000    8.388000    9.820000 F         1 <1>        -0.328600 
     37 F          17.878000    9.664000    8.640000 F         1 <1>        -0.335500 
     38 N          10.016000    1.095000   11.202000 N.pl3     1 <1>        -0.748200 
     39 H          10.430000    0.578000   10.441000 H         1 <1>         0.368000 
     40 H           9.049000    0.949000   11.452000 H         1 <1>         0.357100 
@<TRIPOS>BOND
     1    1    2 ar   
     2    2    3 ar   
     3    3    4 ar   
     4    4    5 ar   
     5    5    6 ar   
     6    6    1 ar   
     7    6    7 1    
     8    7    8 1    
     9    7    9 1    
    10    5   10 ar   
    11   10   11 ar   
    12   11   12 ar   
    13   12   13 1    
    14   12   14 ar   
    15   14    4 ar   
    16   11   15 1    
    17   15   16 1    
    18   15   17 1    
    19   15   18 1    
    20   18   19 1    
    21   18   20 1    
    22   20   21 ar   
    23   21   22 1    
    24   21   23 ar   
    25   23   24 ar   
    26   24   25 1    
    27   24   26 ar   
    28   26   27 ar   
    29   27   28 1    
    30   27   20 ar   
    31   26   29 1    
    32   29   30 1    
    33   30   31 1    
    34   30   32 1    
    35   30   33 1    
    36   23   34 1    
    37   34   35 1    
    38   34   36 1    
    39   34   37 1    
    40    2   38 1    
    41   38   39 1    
    42   38   40 1    
@<TRIPOS>SUBSTRUCTURE
     1 ****        1 TEMP              0 ****  ****    0 ROOT 
@<TRIPOS>SET
UNITY_3DHIT     STATIC     ATOMS    <user>   **** Atoms matching 3D or FLEX Search
0
