#	Name:			9-12j
#	Creating user name:	jeff
#	Creation time:		Thu Dec  4 18:13:54 2003

#	Modifying user name:	jeff
#	Modification time:	Thu Dec  4 18:13:54 2003

@<TRIPOS>MOLECULE
9-12j
   32    34     1     0     1
SMALL
USER_CHARGES
****
From 3DB ct
@<TRIPOS>ATOM
      1 N          10.147000    2.596000   12.867000 N.ar      1 <1>        -0.632800 
      2 C          10.771000    1.962000   11.878000 C.ar      1 <1>         0.740600 
      3 N          12.042000    2.155000   11.544000 N.ar      1 <1>        -0.665100 
      4 C          12.735000    3.050000   12.241000 C.ar      1 <1>         0.610700 
      5 C          12.200000    3.788000   13.305000 C.ar      1 <1>        -0.260300 
      6 C          10.867000    3.486000   13.573000 C.ar      1 <1>         0.585400 
      7 N          10.172000    4.162000   14.568000 N.pl3     1 <1>        -0.727300 
      8 H          10.704000    4.501000   15.364000 H         1 <1>         0.344800 
      9 H           9.216000    3.870000   14.741000 H         1 <1>         0.354600 
     10 N          12.936000    4.707000   14.008000 N.ar      1 <1>        -0.193600 
     11 C          14.225000    4.883000   13.627000 C.ar      1 <1>         0.033000 
     12 C          14.741000    4.149000   12.573000 C.ar      1 <1>         0.171200 
     13 H          15.769000    4.276000   12.244000 H         1 <1>         0.114700 
     14 N          14.011000    3.234000   11.880000 N.ar      1 <1>        -0.446600 
     15 C          15.064000    5.901000   14.354000 C.3       1 <1>        -0.218700 
     16 H          15.220000    5.580000   15.389000 H         1 <1>         0.132500 
     17 H          14.523000    6.854000   14.377000 H         1 <1>         0.094400 
     18 S          16.679000    6.149000   13.522000 S.3       1 <1>        -0.042500 
     19 C          16.182000    7.170000   12.146000 C.ar      1 <1>         0.045600 
     20 C          14.861000    7.633000   12.099000 C.ar      1 <1>        -0.231500 
     21 H          14.159000    7.387000   12.894000 H         1 <1>         0.146400 
     22 C          14.424000    8.424000   11.033000 C.ar      1 <1>         0.159100 
     23 H          13.396000    8.779000   11.016000 H         1 <1>         0.053100 
     24 C          15.305000    8.748000   10.005000 C.ar      1 <1>        -0.397100 
     25 C          16.618000    8.284000   10.033000 C.ar      1 <1>         0.095500 
     26 H          17.308000    8.527000    9.228000 H         1 <1>         0.068700 
     27 C          17.054000    7.492000   11.100000 C.ar      1 <1>        -0.090400 
     28 H          18.078000    7.125000   11.089000 H         1 <1>         0.097400 
     29 Cl         14.768000    9.722000    8.691000 Cl        1 <1>         0.078900 
     30 N          10.056000    1.056000   11.157000 N.pl3     1 <1>        -0.748200 
     31 H          10.494000    0.560000   10.395000 H         1 <1>         0.371000 
     32 H           9.085000    0.895000   11.380000 H         1 <1>         0.356500 
@<TRIPOS>BOND
     1    1    2 ar   
     2    2    3 ar   
     3    3    4 ar   
     4    4    5 ar   
     5    5    6 ar   
     6    6    1 ar   
     7    6    7 1    
     8    7    8 1    
     9    7    9 1    
    10    5   10 ar   
    11   10   11 ar   
    12   11   12 ar   
    13   12   13 1    
    14   12   14 ar   
    15   14    4 ar   
    16   11   15 1    
    17   15   16 1    
    18   15   17 1    
    19   15   18 1    
    20   18   19 1    
    21   19   20 ar   
    22   20   21 1    
    23   20   22 ar   
    24   22   23 1    
    25   22   24 ar   
    26   24   25 ar   
    27   25   26 1    
    28   25   27 ar   
    29   27   28 1    
    30   27   19 ar   
    31   24   29 1    
    32    2   30 1    
    33   30   31 1    
    34   30   32 1    
@<TRIPOS>SUBSTRUCTURE
     1 ****        1 TEMP              0 ****  ****    0 ROOT 
@<TRIPOS>SET
UNITY_3DHIT     STATIC     ATOMS    <user>   **** Atoms matching 3D or FLEX Search
0
