#	Name:			9-12l
#	Creating user name:	jeff
#	Creation time:		Thu Dec  4 18:13:54 2003

#	Modifying user name:	jeff
#	Modification time:	Thu Dec  4 18:13:54 2003

@<TRIPOS>MOLECULE
9-12l
   40    42     1     0     1
SMALL
USER_CHARGES
****
From 3DB ct
@<TRIPOS>ATOM
      1 N          10.182000    2.638000   12.894000 N.ar      1 <1>        -0.658500 
      2 C          10.784000    1.976000   11.909000 C.ar      1 <1>         0.754500 
      3 N          12.050000    2.156000   11.546000 N.ar      1 <1>        -0.663700 
      4 C          12.762000    3.058000   12.214000 C.ar      1 <1>         0.595900 
      5 C          12.251000    3.823000   13.270000 C.ar      1 <1>        -0.310500 
      6 C          10.913000    3.556000   13.550000 C.ar      1 <1>         0.652600 
      7 N          10.267000    4.192000   14.603000 N.pl3     1 <1>        -0.748700 
      8 H          10.582000    5.127000   14.850000 H         1 <1>         0.353500 
      9 H           9.283000    3.985000   14.732000 H         1 <1>         0.353900 
     10 N          13.007000    4.748000   13.944000 N.ar      1 <1>        -0.244500 
     11 C          14.297000    4.890000   13.546000 C.ar      1 <1>         0.177600 
     12 C          14.786000    4.135000   12.496000 C.ar      1 <1>         0.178500 
     13 H          15.809000    4.246000   12.147000 H         1 <1>         0.087800 
     14 N          14.034000    3.218000   11.831000 N.ar      1 <1>        -0.442500 
     15 C          15.167000    5.919000   14.235000 C.3       1 <1>        -0.231900 
     16 H          15.501000    5.529000   15.201000 H         1 <1>         0.107800 
     17 H          14.556000    6.808000   14.439000 H         1 <1>         0.130500 
     18 N          16.291000    6.283000   13.368000 N.pl3     1 <1>        -0.305200 
     19 H          16.940000    5.505000   13.229000 H         1 <1>         0.267700 
     20 C          16.024000    7.046000   12.232000 C.ar      1 <1>         0.174800 
     21 C          14.686000    7.362000   11.939000 C.ar      1 <1>        -0.353600 
     22 H          13.893000    6.967000   12.573000 H         1 <1>         0.148900 
     23 C          14.339000    8.186000   10.863000 C.ar      1 <1>         0.354100 
     24 C          15.345000    8.717000   10.065000 C.ar      1 <1>        -0.305700 
     25 H          15.133000    9.367000    9.221000 H         1 <1>         0.127000 
     26 C          16.682000    8.416000   10.340000 C.ar      1 <1>        -0.059900 
     27 H          17.456000    8.839000    9.700000 H         1 <1>         0.125100 
     28 C          17.035000    7.574000   11.410000 C.ar      1 <1>        -0.092600 
     29 C          18.495000    7.277000   11.620000 C.3       1 <1>        -0.162900 
     30 H          19.026000    7.248000   10.663000 H         1 <1>         0.060100 
     31 H          18.643000    6.298000   12.087000 H         1 <1>         0.043100 
     32 H          18.951000    8.049000   12.248000 H         1 <1>         0.043300 
     33 O          12.996000    8.398000   10.710000 O.3       1 <1>        -0.292600 
     34 C          12.598000    9.234000    9.624000 C.3       1 <1>         0.038800 
     35 H          11.506000    9.299000    9.638000 H         1 <1>         0.059300 
     36 H          12.895000    8.800000    8.664000 H         1 <1>         0.035700 
     37 H          12.994000   10.248000    9.743000 H         1 <1>         0.032800 
     38 N          10.055000    1.050000   11.230000 N.pl3     1 <1>        -0.756900 
     39 H          10.479000    0.528000   10.478000 H         1 <1>         0.368300 
     40 H           9.090000    0.891000   11.481000 H         1 <1>         0.358200 
@<TRIPOS>BOND
     1    1    2 ar   
     2    2    3 ar   
     3    3    4 ar   
     4    4    5 ar   
     5    5    6 ar   
     6    6    1 ar   
     7    6    7 1    
     8    7    8 1    
     9    7    9 1    
    10    5   10 ar   
    11   10   11 ar   
    12   11   12 ar   
    13   12   13 1    
    14   12   14 ar   
    15   14    4 ar   
    16   11   15 1    
    17   15   16 1    
    18   15   17 1    
    19   15   18 1    
    20   18   19 1    
    21   18   20 1    
    22   20   21 ar   
    23   21   22 1    
    24   21   23 ar   
    25   23   24 ar   
    26   24   25 1    
    27   24   26 ar   
    28   26   27 1    
    29   26   28 ar   
    30   28   20 ar   
    31   28   29 1    
    32   29   30 1    
    33   29   31 1    
    34   29   32 1    
    35   23   33 1    
    36   33   34 1    
    37   34   35 1    
    38   34   36 1    
    39   34   37 1    
    40    2   38 1    
    41   38   39 1    
    42   38   40 1    
@<TRIPOS>SUBSTRUCTURE
     1 ****        1 TEMP              0 ****  ****    0 ROOT 
@<TRIPOS>SET
UNITY_3DHIT     STATIC     ATOMS    <user>   **** Atoms matching 3D or FLEX Search
0
