#	Name:			9-12p
#	Creating user name:	jeff
#	Creation time:		Thu Dec  4 18:13:55 2003

#	Modifying user name:	jeff
#	Modification time:	Thu Dec  4 18:13:55 2003

@<TRIPOS>MOLECULE
9-12p
   41    43     1     0     1
SMALL
USER_CHARGES
****
From 3DB ct
@<TRIPOS>ATOM
      1 N          10.179000    2.648000   12.900000 N.ar      1 <1>        -0.654100 
      2 C          10.765000    1.996000   11.900000 C.ar      1 <1>         0.763900 
      3 N          12.033000    2.159000   11.536000 N.ar      1 <1>        -0.666900 
      4 C          12.763000    3.036000   12.218000 C.ar      1 <1>         0.602200 
      5 C          12.271000    3.787000   13.293000 C.ar      1 <1>        -0.302000 
      6 C          10.936000    3.521000   13.588000 C.ar      1 <1>         0.619700 
      7 N          10.279000    4.218000   14.595000 N.pl3     1 <1>        -0.716700 
      8 H          10.837000    4.550000   15.377000 H         1 <1>         0.343500 
      9 H           9.320000    3.952000   14.789000 H         1 <1>         0.349500 
     10 N          13.047000    4.684000   13.984000 N.ar      1 <1>        -0.224000 
     11 C          14.336000    4.815000   13.581000 C.ar      1 <1>         0.114000 
     12 C          14.806000    4.076000   12.510000 C.ar      1 <1>         0.210100 
     13 H          15.829000    4.180000   12.157000 H         1 <1>         0.080300 
     14 N          14.035000    3.186000   11.829000 N.ar      1 <1>        -0.453300 
     15 C          15.232000    5.809000   14.287000 C.3       1 <1>        -0.149000 
     16 H          15.717000    5.310000   15.134000 H         1 <1>         0.092500 
     17 H          14.611000    6.620000   14.687000 H         1 <1>         0.118400 
     18 N          16.225000    6.355000   13.367000 N.pl3     1 <1>        -0.381000 
     19 H          17.168000    5.974000   13.448000 H         1 <1>         0.278600 
     20 C          15.927000    7.123000   12.258000 C.ar      1 <1>         0.302700 
     21 C          16.940000    7.377000   11.322000 C.ar      1 <1>        -0.473500 
     22 H          17.930000    6.945000   11.473000 H         1 <1>         0.138400 
     23 C          16.722000    8.173000   10.193000 C.ar      1 <1>         0.441100 
     24 C          15.465000    8.737000    9.994000 C.ar      1 <1>        -0.482900 
     25 H          15.252000    9.361000    9.130000 H         1 <1>         0.152300 
     26 C          14.438000    8.513000   10.915000 C.ar      1 <1>         0.439400 
     27 C          14.676000    7.715000   12.041000 C.ar      1 <1>        -0.404600 
     28 H          13.881000    7.544000   12.759000 H         1 <1>         0.145700 
     29 O          13.255000    9.129000   10.605000 O.3       1 <1>        -0.292700 
     30 C          13.221000    9.901000    9.405000 C.3       1 <1>        -0.005000 
     31 H          12.216000   10.324000    9.311000 H         1 <1>         0.068200 
     32 H          13.402000    9.272000    8.528000 H         1 <1>         0.053900 
     33 H          13.931000   10.733000    9.453000 H         1 <1>         0.051900 
     34 O          17.809000    8.320000    9.374000 O.3       1 <1>        -0.296400 
     35 C          19.006000    7.651000    9.769000 C.3       1 <1>         0.038100 
     36 H          19.770000    7.864000    9.015000 H         1 <1>         0.059900 
     37 H          18.859000    6.567000    9.799000 H         1 <1>         0.037400 
     38 H          19.370000    8.031000   10.729000 H         1 <1>         0.035600 
     39 N          10.015000    1.102000   11.201000 N.pl3     1 <1>        -0.768000 
     40 H          10.426000    0.589000   10.435000 H         1 <1>         0.371700 
     41 H           9.048000    0.955000   11.453000 H         1 <1>         0.361100 
@<TRIPOS>BOND
     1    1    2 ar   
     2    2    3 ar   
     3    3    4 ar   
     4    4    5 ar   
     5    5    6 ar   
     6    6    1 ar   
     7    6    7 1    
     8    7    8 1    
     9    7    9 1    
    10    5   10 ar   
    11   10   11 ar   
    12   11   12 ar   
    13   12   13 1    
    14   12   14 ar   
    15   14    4 ar   
    16   11   15 1    
    17   15   16 1    
    18   15   17 1    
    19   15   18 1    
    20   18   19 1    
    21   18   20 1    
    22   20   21 ar   
    23   21   22 1    
    24   21   23 ar   
    25   23   24 ar   
    26   24   25 1    
    27   24   26 ar   
    28   26   27 ar   
    29   27   28 1    
    30   27   20 ar   
    31   26   29 1    
    32   29   30 1    
    33   30   31 1    
    34   30   32 1    
    35   30   33 1    
    36   23   34 1    
    37   34   35 1    
    38   35   36 1    
    39   35   37 1    
    40   35   38 1    
    41    2   39 1    
    42   39   40 1    
    43   39   41 1    
@<TRIPOS>SUBSTRUCTURE
     1 ****        1 TEMP              0 ****  ****    0 ROOT 
@<TRIPOS>SET
UNITY_3DHIT     STATIC     ATOMS    <user>   **** Atoms matching 3D or FLEX Search
0
