#	Name:			9-12u
#	Creating user name:	jeff
#	Creation time:		Thu Dec  4 18:13:55 2003

#	Modifying user name:	jeff
#	Modification time:	Thu Dec  4 18:13:55 2003

@<TRIPOS>MOLECULE
9-12u
   42    44     1     0     1
SMALL
USER_CHARGES
****
From 3DB ct
@<TRIPOS>ATOM
      1 N          10.166000    2.630000   12.886000 N.ar      1 <1>        -0.643800 
      2 C          10.767000    1.982000   11.892000 C.ar      1 <1>         0.734600 
      3 N          12.035000    2.160000   11.537000 N.ar      1 <1>        -0.661000 
      4 C          12.751000    3.044000   12.224000 C.ar      1 <1>         0.604700 
      5 C          12.244000    3.788000   13.297000 C.ar      1 <1>        -0.275800 
      6 C          10.909000    3.509000   13.581000 C.ar      1 <1>         0.609400 
      7 N          10.234000    4.199000   14.581000 N.pl3     1 <1>        -0.720400 
      8 H          10.780000    4.534000   15.370000 H         1 <1>         0.348800 
      9 H           9.275000    3.926000   14.762000 H         1 <1>         0.348200 
     10 N          13.008000    4.691000   13.994000 N.ar      1 <1>        -0.279000 
     11 C          14.290000    4.845000   13.591000 C.ar      1 <1>         0.172300 
     12 C          14.780000    4.105000   12.530000 C.ar      1 <1>         0.142300 
     13 H          15.807000    4.210000   12.192000 H         1 <1>         0.120800 
     14 N          14.024000    3.208000   11.844000 N.ar      1 <1>        -0.455500 
     15 C          15.161000    5.816000   14.341000 C.3       1 <1>        -0.175900 
     16 H          15.656000    5.286000   15.165000 H         1 <1>         0.045400 
     17 H          14.532000    6.583000   14.809000 H         1 <1>         0.075600 
     18 C          16.206000    6.458000   13.426000 C.3       1 <1>         0.101700 
     19 H          16.811000    5.683000   12.936000 H         1 <1>        -0.003900 
     20 H          16.923000    7.048000   14.012000 H         1 <1>         0.023100 
     21 C          16.006000    7.389000   12.248000 C.ar      1 <1>        -0.138700 
     22 C          14.730000    7.942000   12.029000 C.ar      1 <1>        -0.164300 
     23 H          13.909000    7.686000   12.697000 H         1 <1>         0.133900 
     24 C          14.492000    8.814000   10.964000 C.ar      1 <1>         0.241800 
     25 C          15.543000    9.146000   10.114000 C.ar      1 <1>        -0.193500 
     26 H          15.411000    9.822000    9.274000 H         1 <1>         0.126300 
     27 C          16.820000    8.609000   10.325000 C.ar      1 <1>        -0.192200 
     28 H          17.606000    8.904000    9.635000 H         1 <1>         0.127200 
     29 C          17.062000    7.733000   11.387000 C.ar      1 <1>         0.192300 
     30 O          18.277000    7.168000   11.671000 O.3       1 <1>        -0.241300 
     31 C          19.353000    7.441000   10.775000 C.3       1 <1>        -0.012000 
     32 H          20.229000    6.891000   11.131000 H         1 <1>         0.068100 
     33 H          19.605000    8.506000   10.776000 H         1 <1>         0.045300 
     34 H          19.125000    7.086000    9.764000 H         1 <1>         0.050600 
     35 O          13.205000    9.267000   10.870000 O.3       1 <1>        -0.304200 
     36 C          12.918000   10.162000    9.795000 C.3       1 <1>         0.082600 
     37 H          11.856000   10.422000    9.853000 H         1 <1>         0.049700 
     38 H          13.092000    9.681000    8.827000 H         1 <1>         0.025500 
     39 H          13.494000   11.088000    9.890000 H         1 <1>         0.020800 
     40 N          10.032000    1.075000   11.193000 N.pl3     1 <1>        -0.750100 
     41 H          10.455000    0.558000   10.437000 H         1 <1>         0.365900 
     42 H           9.067000    0.915000   11.443000 H         1 <1>         0.354900 
@<TRIPOS>BOND
     1    1    2 ar   
     2    2    3 ar   
     3    3    4 ar   
     4    4    5 ar   
     5    5    6 ar   
     6    6    1 ar   
     7    6    7 1    
     8    7    8 1    
     9    7    9 1    
    10    5   10 ar   
    11   10   11 ar   
    12   11   12 ar   
    13   12   13 1    
    14   12   14 ar   
    15   14    4 ar   
    16   11   15 1    
    17   15   16 1    
    18   15   17 1    
    19   15   18 1    
    20   18   19 1    
    21   18   20 1    
    22   18   21 1    
    23   21   22 ar   
    24   22   23 1    
    25   22   24 ar   
    26   24   25 ar   
    27   25   26 1    
    28   25   27 ar   
    29   27   28 1    
    30   27   29 ar   
    31   29   21 ar   
    32   29   30 1    
    33   30   31 1    
    34   31   32 1    
    35   31   33 1    
    36   31   34 1    
    37   24   35 1    
    38   35   36 1    
    39   36   37 1    
    40   36   38 1    
    41   36   39 1    
    42    2   40 1    
    43   40   41 1    
    44   40   42 1    
@<TRIPOS>SUBSTRUCTURE
     1 ****        1 TEMP              0 ****  ****    0 ROOT 
@<TRIPOS>SET
UNITY_3DHIT     STATIC     ATOMS    <user>   **** Atoms matching 3D or FLEX Search
0
