#	Name:			9-12o
#	Creating user name:	jeff
#	Creation time:		Thu Dec  4 18:13:55 2003

#	Modifying user name:	jeff
#	Modification time:	Thu Dec  4 18:13:55 2003

@<TRIPOS>MOLECULE
9-12o
   44    46     1     0     1
SMALL
USER_CHARGES
****
From 3DB ct
@<TRIPOS>ATOM
      1 N          10.176000    2.632000   12.903000 N.ar      1 <1>        -0.662700 
      2 C          10.768000    1.974000   11.910000 C.ar      1 <1>         0.769800 
      3 N          12.033000    2.148000   11.541000 N.ar      1 <1>        -0.671200 
      4 C          12.754000    3.042000   12.210000 C.ar      1 <1>         0.608500 
      5 C          12.255000    3.800000   13.277000 C.ar      1 <1>        -0.331700 
      6 C          10.924000    3.522000   13.579000 C.ar      1 <1>         0.638900 
      7 N          10.261000    4.225000   14.578000 N.pl3     1 <1>        -0.723900 
      8 H          10.817000    4.573000   15.353000 H         1 <1>         0.345400 
      9 H           9.306000    3.950000   14.777000 H         1 <1>         0.350700 
     10 N          13.022000    4.716000   13.952000 N.ar      1 <1>        -0.225200 
     11 C          14.309000    4.862000   13.545000 C.ar      1 <1>         0.173200 
     12 C          14.785000    4.110000   12.485000 C.ar      1 <1>         0.182700 
     13 H          15.809000    4.208000   12.133000 H         1 <1>         0.088300 
     14 N          14.023000    3.204000   11.817000 N.ar      1 <1>        -0.450100 
     15 C          15.205000    5.861000   14.253000 C.3       1 <1>        -0.253500 
     16 H          15.598000    5.343000   15.138000 H         1 <1>         0.118900 
     17 H          14.620000    6.717000   14.611000 H         1 <1>         0.115200 
     18 N          16.315000    6.333000   13.399000 N.pl3     1 <1>        -0.061000 
     19 C          16.003000    7.116000   12.273000 C.ar      1 <1>         0.020400 
     20 C          14.717000    7.663000   12.106000 C.ar      1 <1>        -0.292300 
     21 H          13.945000    7.478000   12.850000 H         1 <1>         0.138800 
     22 C          14.378000    8.428000   10.984000 C.ar      1 <1>         0.332300 
     23 C          15.335000    8.656000   10.002000 C.ar      1 <1>        -0.248100 
     24 H          15.121000    9.242000    9.112000 H         1 <1>         0.129400 
     25 C          16.623000    8.126000   10.140000 C.ar      1 <1>        -0.188500 
     26 H          17.336000    8.337000    9.348000 H         1 <1>         0.140300 
     27 C          16.967000    7.362000   11.263000 C.ar      1 <1>         0.166600 
     28 O          18.221000    6.839000   11.479000 O.3       1 <1>        -0.254600 
     29 C          19.218000    7.086000   10.491000 C.3       1 <1>        -0.009900 
     30 H          20.141000    6.601000   10.824000 H         1 <1>         0.062700 
     31 H          19.421000    8.157000   10.394000 H         1 <1>         0.046300 
     32 H          18.938000    6.643000    9.530000 H         1 <1>         0.043000 
     33 O          13.088000    8.884000   10.969000 O.3       1 <1>        -0.302900 
     34 C          12.696000    9.669000    9.844000 C.3       1 <1>         0.056400 
     35 H          11.650000    9.955000    9.986000 H         1 <1>         0.056800 
     36 H          12.761000    9.088000    8.918000 H         1 <1>         0.029500 
     37 H          13.288000   10.588000    9.780000 H         1 <1>         0.025200 
     38 C          17.457000    5.432000   13.214000 C.3       1 <1>        -0.152300 
     39 H          18.313000    5.931000   12.748000 H         1 <1>         0.089300 
     40 H          17.172000    4.581000   12.585000 H         1 <1>         0.071500 
     41 H          17.806000    5.042000   14.175000 H         1 <1>         0.066500 
     42 N          10.026000    1.064000   11.224000 N.pl3     1 <1>        -0.772600 
     43 H          10.441000    0.547000   10.463000 H         1 <1>         0.371900 
     44 H           9.062000    0.910000   11.479000 H         1 <1>         0.361800 
@<TRIPOS>BOND
     1    1    2 ar   
     2    2    3 ar   
     3    3    4 ar   
     4    4    5 ar   
     5    5    6 ar   
     6    6    1 ar   
     7    6    7 1    
     8    7    8 1    
     9    7    9 1    
    10    5   10 ar   
    11   10   11 ar   
    12   11   12 ar   
    13   12   13 1    
    14   12   14 ar   
    15   14    4 ar   
    16   11   15 1    
    17   15   16 1    
    18   15   17 1    
    19   15   18 1    
    20   18   19 1    
    21   19   20 ar   
    22   20   21 1    
    23   20   22 ar   
    24   22   23 ar   
    25   23   24 1    
    26   23   25 ar   
    27   25   26 1    
    28   25   27 ar   
    29   27   19 ar   
    30   27   28 1    
    31   28   29 1    
    32   29   30 1    
    33   29   31 1    
    34   29   32 1    
    35   22   33 1    
    36   33   34 1    
    37   34   35 1    
    38   34   36 1    
    39   34   37 1    
    40   18   38 1    
    41   38   39 1    
    42   38   40 1    
    43   38   41 1    
    44    2   42 1    
    45   42   43 1    
    46   42   44 1    
@<TRIPOS>SUBSTRUCTURE
     1 ****        1 TEMP              0 ****  ****    0 ROOT 
@<TRIPOS>SET
UNITY_3DHIT     STATIC     ATOMS    <user>   **** Atoms matching 3D or FLEX Search
0
