#	Name:			9-12f
#	Creating user name:	jeff
#	Creation time:		Thu Dec  4 18:13:54 2003

#	Modifying user name:	jeff
#	Modification time:	Thu Dec  4 18:13:54 2003

@<TRIPOS>MOLECULE
9-12f
   36    38     1     0     1
SMALL
USER_CHARGES
****
From 3DB ct
@<TRIPOS>ATOM
      1 N          10.148000    2.604000   12.865000 N.ar      1 <1>        -0.636400 
      2 C          10.770000    1.970000   11.874000 C.ar      1 <1>         0.748600 
      3 N          12.041000    2.161000   11.540000 N.ar      1 <1>        -0.671000 
      4 C          12.737000    3.049000   12.242000 C.ar      1 <1>         0.631300 
      5 C          12.207000    3.785000   13.310000 C.ar      1 <1>        -0.295700 
      6 C          10.872000    3.487000   13.576000 C.ar      1 <1>         0.592900 
      7 N          10.179000    4.159000   14.575000 N.pl3     1 <1>        -0.711700 
      8 H          10.713000    4.495000   15.372000 H         1 <1>         0.342700 
      9 H           9.223000    3.870000   14.749000 H         1 <1>         0.347900 
     10 N          12.949000    4.696000   14.019000 N.ar      1 <1>        -0.211300 
     11 C          14.239000    4.863000   13.638000 C.ar      1 <1>         0.081200 
     12 C          14.750000    4.131000   12.580000 C.ar      1 <1>         0.198000 
     13 H          15.780000    4.249000   12.253000 H         1 <1>         0.100300 
     14 N          14.014000    3.227000   11.882000 N.ar      1 <1>        -0.460900 
     15 C          15.087000    5.872000   14.369000 C.3       1 <1>        -0.253500 
     16 H          15.272000    5.527000   15.393000 H         1 <1>         0.125800 
     17 H          14.538000    6.817000   14.430000 H         1 <1>         0.113300 
     18 S          16.680000    6.154000   13.506000 S.3       1 <1>        -0.016400 
     19 C          16.130000    7.183000   12.153000 C.ar      1 <1>        -0.048000 
     20 C          14.829000    7.693000   12.187000 C.ar      1 <1>        -0.121700 
     21 H          14.159000    7.457000   13.012000 H         1 <1>         0.107100 
     22 C          14.367000    8.511000   11.156000 C.ar      1 <1>        -0.039900 
     23 H          13.353000    8.903000   11.183000 H         1 <1>         0.104200 
     24 C          15.210000    8.827000   10.091000 C.ar      1 <1>        -0.250700 
     25 H          14.841000    9.466000    9.290000 H         1 <1>         0.142200 
     26 C          16.518000    8.337000   10.050000 C.ar      1 <1>         0.302800 
     27 C          16.977000    7.520000   11.086000 C.ar      1 <1>        -0.186400 
     28 H          17.996000    7.146000   11.088000 H         1 <1>         0.122400 
     29 O          17.241000    8.731000    8.957000 O.3       1 <1>        -0.302900 
     30 C          18.581000    8.252000    8.864000 C.3       1 <1>         0.029900 
     31 H          19.013000    8.646000    7.939000 H         1 <1>         0.066700 
     32 H          18.606000    7.159000    8.805000 H         1 <1>         0.037200 
     33 H          19.188000    8.619000    9.699000 H         1 <1>         0.038700 
     34 N          10.052000    1.069000   11.152000 N.pl3     1 <1>        -0.754000 
     35 H          10.490000    0.571000   10.390000 H         1 <1>         0.370800 
     36 H           9.081000    0.909000   11.376000 H         1 <1>         0.356500 
@<TRIPOS>BOND
     1    1    2 ar   
     2    2    3 ar   
     3    3    4 ar   
     4    4    5 ar   
     5    5    6 ar   
     6    6    1 ar   
     7    6    7 1    
     8    7    8 1    
     9    7    9 1    
    10    5   10 ar   
    11   10   11 ar   
    12   11   12 ar   
    13   12   13 1    
    14   12   14 ar   
    15   14    4 ar   
    16   11   15 1    
    17   15   16 1    
    18   15   17 1    
    19   15   18 1    
    20   18   19 1    
    21   19   20 ar   
    22   20   21 1    
    23   20   22 ar   
    24   22   23 1    
    25   22   24 ar   
    26   24   25 1    
    27   24   26 ar   
    28   26   27 ar   
    29   27   28 1    
    30   27   19 ar   
    31   26   29 1    
    32   29   30 1    
    33   30   31 1    
    34   30   32 1    
    35   30   33 1    
    36    2   34 1    
    37   34   35 1    
    38   34   36 1    
@<TRIPOS>SUBSTRUCTURE
     1 ****        1 TEMP              0 ****  ****    0 ROOT 
@<TRIPOS>SET
UNITY_3DHIT     STATIC     ATOMS    <user>   **** Atoms matching 3D or FLEX Search
0
