#	Name:			9-12n
#	Creating user name:	jeff
#	Creation time:		Thu Dec  4 18:13:54 2003

#	Modifying user name:	jeff
#	Modification time:	Thu Dec  4 18:13:55 2003

@<TRIPOS>MOLECULE
9-12n
   41    43     1     0     1
SMALL
USER_CHARGES
****
From 3DB ct
@<TRIPOS>ATOM
      1 N          10.178000    2.657000   12.899000 N.ar      1 <1>        -0.655800 
      2 C          10.759000    2.006000   11.895000 C.ar      1 <1>         0.760900 
      3 N          12.029000    2.161000   11.534000 N.ar      1 <1>        -0.667300 
      4 C          12.766000    3.027000   12.222000 C.ar      1 <1>         0.611600 
      5 C          12.279000    3.776000   13.302000 C.ar      1 <1>        -0.317800 
      6 C          10.941000    3.518000   13.594000 C.ar      1 <1>         0.627900 
      7 N          10.289000    4.212000   14.605000 N.pl3     1 <1>        -0.719900 
      8 H          10.848000    4.532000   15.391000 H         1 <1>         0.344600 
      9 H           9.328000    3.951000   14.796000 H         1 <1>         0.349300 
     10 N          13.062000    4.663000   13.998000 N.ar      1 <1>        -0.220700 
     11 C          14.352000    4.787000   13.596000 C.ar      1 <1>         0.122800 
     12 C          14.816000    4.050000   12.521000 C.ar      1 <1>         0.199200 
     13 H          15.840000    4.147000   12.169000 H         1 <1>         0.090400 
     14 N          14.039000    3.170000   11.835000 N.ar      1 <1>        -0.458200 
     15 C          15.257000    5.772000   14.307000 C.3       1 <1>        -0.158200 
     16 H          15.782000    5.240000   15.109000 H         1 <1>         0.094900 
     17 H          14.629000    6.549000   14.758000 H         1 <1>         0.115200 
     18 N          16.201000    6.370000   13.371000 N.pl3     1 <1>        -0.288400 
     19 H          17.165000    6.049000   13.454000 H         1 <1>         0.251200 
     20 C          16.025000    7.154000   12.239000 C.ar      1 <1>         0.039500 
     21 C          14.754000    7.745000   12.076000 C.ar      1 <1>        -0.225000 
     22 H          13.990000    7.585000   12.837000 H         1 <1>         0.126700 
     23 C          14.426000    8.531000   10.967000 C.ar      1 <1>         0.290100 
     24 C          15.382000    8.737000    9.983000 C.ar      1 <1>        -0.277200 
     25 H          15.184000    9.340000    9.100000 H         1 <1>         0.129900 
     26 C          16.649000    8.158000   10.108000 C.ar      1 <1>        -0.124800 
     27 H          17.360000    8.350000    9.308000 H         1 <1>         0.124600 
     28 C          16.981000    7.367000   11.219000 C.ar      1 <1>         0.098700 
     29 O          18.214000    6.786000   11.380000 O.3       1 <1>        -0.248600 
     30 C          19.187000    6.983000   10.357000 C.3       1 <1>        -0.022000 
     31 H          20.092000    6.442000   10.652000 H         1 <1>         0.069700 
     32 H          19.449000    8.041000   10.261000 H         1 <1>         0.046400 
     33 H          18.847000    6.565000    9.403000 H         1 <1>         0.049600 
     34 O          13.153000    9.030000   10.969000 O.3       1 <1>        -0.289600 
     35 C          12.778000    9.839000    9.854000 C.3       1 <1>         0.023600 
     36 H          11.740000   10.152000   10.005000 H         1 <1>         0.064200 
     37 H          12.823000    9.267000    8.921000 H         1 <1>         0.039800 
     38 H          13.395000   10.742000    9.799000 H         1 <1>         0.037800 
     39 N          10.003000    1.124000   11.189000 N.pl3     1 <1>        -0.766800 
     40 H          10.411000    0.612000   10.420000 H         1 <1>         0.371000 
     41 H           9.034000    0.985000   11.437000 H         1 <1>         0.360800 
@<TRIPOS>BOND
     1    1    2 ar   
     2    2    3 ar   
     3    3    4 ar   
     4    4    5 ar   
     5    5    6 ar   
     6    6    1 ar   
     7    6    7 1    
     8    7    8 1    
     9    7    9 1    
    10    5   10 ar   
    11   10   11 ar   
    12   11   12 ar   
    13   12   13 1    
    14   12   14 ar   
    15   14    4 ar   
    16   11   15 1    
    17   15   16 1    
    18   15   17 1    
    19   15   18 1    
    20   18   19 1    
    21   18   20 1    
    22   20   21 ar   
    23   21   22 1    
    24   21   23 ar   
    25   23   24 ar   
    26   24   25 1    
    27   24   26 ar   
    28   26   27 1    
    29   26   28 ar   
    30   28   20 ar   
    31   28   29 1    
    32   29   30 1    
    33   30   31 1    
    34   30   32 1    
    35   30   33 1    
    36   23   34 1    
    37   34   35 1    
    38   35   36 1    
    39   35   37 1    
    40   35   38 1    
    41    2   39 1    
    42   39   40 1    
    43   39   41 1    
@<TRIPOS>SUBSTRUCTURE
     1 ****        1 TEMP              0 ****  ****    0 ROOT 
@<TRIPOS>SET
UNITY_3DHIT     STATIC     ATOMS    <user>   **** Atoms matching 3D or FLEX Search
0
