#	Name:			9-12r
#	Creating user name:	jeff
#	Creation time:		Thu Dec  4 18:13:55 2003

#	Modifying user name:	jeff
#	Modification time:	Thu Dec  4 18:13:55 2003

@<TRIPOS>MOLECULE
9-12r
   40    42     1     0     1
SMALL
USER_CHARGES
****
From 3DB ct
@<TRIPOS>ATOM
      1 N          10.172000    2.659000   12.893000 N.ar      1 <1>        -0.652800 
      2 C          10.757000    2.004000   11.894000 C.ar      1 <1>         0.750600 
      3 N          12.027000    2.159000   11.534000 N.ar      1 <1>        -0.666700 
      4 C          12.762000    3.027000   12.222000 C.ar      1 <1>         0.615700 
      5 C          12.271000    3.784000   13.294000 C.ar      1 <1>        -0.314600 
      6 C          10.926000    3.545000   13.568000 C.ar      1 <1>         0.648900 
      7 N          10.295000    4.176000   14.633000 N.pl3     1 <1>        -0.743600 
      8 H          10.629000    5.099000   14.895000 H         1 <1>         0.355400 
      9 H           9.306000    3.989000   14.758000 H         1 <1>         0.353100 
     10 N          13.050000    4.675000   13.986000 N.ar      1 <1>        -0.232600 
     11 C          14.345000    4.795000   13.587000 C.ar      1 <1>         0.104500 
     12 C          14.817000    4.041000   12.527000 C.ar      1 <1>         0.184400 
     13 H          15.847000    4.121000   12.190000 H         1 <1>         0.093700 
     14 N          14.039000    3.161000   11.842000 N.ar      1 <1>        -0.452700 
     15 C          15.275000    5.760000   14.305000 C.3       1 <1>        -0.062200 
     16 H          15.826000    5.194000   15.064000 H         1 <1>         0.081700 
     17 H          14.659000    6.530000   14.782000 H         1 <1>         0.092800 
     18 N          16.207000    6.377000   13.368000 N.pl3     1 <1>        -0.390300 
     19 H          17.188000    6.182000   13.578000 H         1 <1>         0.284700 
     20 C          16.017000    7.174000   12.255000 C.ar      1 <1>        -0.012700 
     21 C          14.738000    7.749000   12.105000 C.ar      1 <1>         0.039700 
     22 H          13.975000    7.548000   12.859000 H         1 <1>         0.103400 
     23 C          14.402000    8.573000   11.019000 C.ar      1 <1>        -0.398400 
     24 C          15.382000    8.844000   10.063000 C.ar      1 <1>        -0.025100 
     25 H          15.160000    9.490000    9.214000 H         1 <1>         0.120700 
     26 C          16.659000    8.289000   10.182000 C.ar      1 <1>        -0.198200 
     27 H          17.379000    8.533000    9.405000 H         1 <1>         0.126000 
     28 C          16.987000    7.457000   11.264000 C.ar      1 <1>         0.238200 
     29 O          18.228000    6.891000   11.421000 O.3       1 <1>        -0.276800 
     30 C          19.215000    7.152000   10.426000 C.3       1 <1>         0.015800 
     31 H          20.125000    6.616000   10.713000 H         1 <1>         0.068300 
     32 H          19.457000    8.218000   10.382000 H         1 <1>         0.043000 
     33 H          18.899000    6.771000    9.449000 H         1 <1>         0.042900 
     34 C          13.028000    9.181000   10.917000 C.3       1 <1>         1.075700 
     35 F          12.919000   10.360000   11.601000 F         1 <1>        -0.331100 
     36 F          12.037000    8.379000   11.414000 F         1 <1>        -0.327200 
     37 F          12.647000    9.466000    9.634000 F         1 <1>        -0.328400 
     38 N          10.005000    1.112000   11.195000 N.pl3     1 <1>        -0.751600 
     39 H          10.415000    0.597000   10.430000 H         1 <1>         0.368300 
     40 H           9.037000    0.970000   11.445000 H         1 <1>         0.357700 
@<TRIPOS>BOND
     1    1    2 ar   
     2    2    3 ar   
     3    3    4 ar   
     4    4    5 ar   
     5    5    6 ar   
     6    6    1 ar   
     7    6    7 1    
     8    7    8 1    
     9    7    9 1    
    10    5   10 ar   
    11   10   11 ar   
    12   11   12 ar   
    13   12   13 1    
    14   12   14 ar   
    15   14    4 ar   
    16   11   15 1    
    17   15   16 1    
    18   15   17 1    
    19   15   18 1    
    20   18   19 1    
    21   18   20 1    
    22   20   21 ar   
    23   21   22 1    
    24   21   23 ar   
    25   23   24 ar   
    26   24   25 1    
    27   24   26 ar   
    28   26   27 1    
    29   26   28 ar   
    30   28   20 ar   
    31   28   29 1    
    32   29   30 1    
    33   30   31 1    
    34   30   32 1    
    35   30   33 1    
    36   23   34 1    
    37   34   35 1    
    38   34   36 1    
    39   34   37 1    
    40    2   38 1    
    41   38   39 1    
    42   38   40 1    
@<TRIPOS>SUBSTRUCTURE
     1 ****        1 TEMP              0 ****  ****    0 ROOT 
@<TRIPOS>SET
UNITY_3DHIT     STATIC     ATOMS    <user>   **** Atoms matching 3D or FLEX Search
0
