#	Name:			9-12h
#	Creating user name:	jeff
#	Creation time:		Thu Dec  4 18:13:54 2003

#	Modifying user name:	jeff
#	Modification time:	Thu Dec  4 18:13:54 2003

@<TRIPOS>MOLECULE
9-12h
   40    42     1     0     1
SMALL
USER_CHARGES
****
From 3DB ct
@<TRIPOS>ATOM
      1 N          10.146000    2.609000   12.862000 N.ar      1 <1>        -0.636500 
      2 C          10.766000    1.977000   11.869000 C.ar      1 <1>         0.751800 
      3 N          12.040000    2.163000   11.539000 N.ar      1 <1>        -0.677800 
      4 C          12.740000    3.044000   12.247000 C.ar      1 <1>         0.652200 
      5 C          12.211000    3.772000   13.320000 C.ar      1 <1>        -0.315100 
      6 C          10.873000    3.484000   13.578000 C.ar      1 <1>         0.591900 
      7 N          10.181000    4.162000   14.575000 N.pl3     1 <1>        -0.699100 
      8 H          10.715000    4.492000   15.374000 H         1 <1>         0.342700 
      9 H           9.220000    3.886000   14.739000 H         1 <1>         0.342500 
     10 N          12.956000    4.673000   14.038000 N.ar      1 <1>        -0.204800 
     11 C          14.246000    4.845000   13.657000 C.ar      1 <1>         0.091000 
     12 C          14.754000    4.126000   12.589000 C.ar      1 <1>         0.178300 
     13 H          15.781000    4.251000   12.257000 H         1 <1>         0.113000 
     14 N          14.016000    3.225000   11.886000 N.ar      1 <1>        -0.465900 
     15 C          15.096000    5.848000   14.393000 C.3       1 <1>        -0.245100 
     16 H          15.304000    5.491000   15.407000 H         1 <1>         0.120100 
     17 H          14.538000    6.787000   14.476000 H         1 <1>         0.106200 
     18 S          16.668000    6.156000   13.502000 S.3       1 <1>        -0.007000 
     19 C          16.113000    7.193000   12.157000 C.ar      1 <1>        -0.190300 
     20 C          14.762000    7.547000   12.119000 C.ar      1 <1>         0.128300 
     21 H          14.072000    7.180000   12.878000 H         1 <1>         0.073000 
     22 C          14.268000    8.376000   11.108000 C.ar      1 <1>        -0.366800 
     23 H          13.208000    8.613000   11.125000 H         1 <1>         0.163000 
     24 C          15.125000    8.872000   10.122000 C.ar      1 <1>         0.292300 
     25 C          16.493000    8.531000   10.158000 C.ar      1 <1>         0.072000 
     26 C          16.977000    7.700000   11.178000 C.ar      1 <1>        -0.128400 
     27 H          18.032000    7.454000   11.232000 H         1 <1>         0.140500 
     28 O          17.268000    9.070000    9.159000 O.3       1 <1>        -0.221900 
     29 C          18.657000    8.750000    9.159000 C.3       1 <1>        -0.033200 
     30 H          19.109000    9.236000    8.288000 H         1 <1>         0.070500 
     31 H          18.814000    7.671000    9.058000 H         1 <1>         0.053800 
     32 H          19.151000    9.143000   10.053000 H         1 <1>         0.058400 
     33 O          14.735000    9.692000    9.092000 O.3       1 <1>        -0.286600 
     34 C          15.741000   10.107000    8.171000 C.3       1 <1>         0.052000 
     35 H          15.262000   10.748000    7.425000 H         1 <1>         0.050400 
     36 H          16.172000    9.249000    7.645000 H         1 <1>         0.033400 
     37 H          16.514000   10.699000    8.671000 H         1 <1>         0.028700 
     38 N          10.047000    1.081000   11.141000 N.pl3     1 <1>        -0.756300 
     39 H          10.486000    0.580000   10.382000 H         1 <1>         0.371900 
     40 H           9.076000    0.917000   11.364000 H         1 <1>         0.357000 
@<TRIPOS>BOND
     1    1    2 ar   
     2    2    3 ar   
     3    3    4 ar   
     4    4    5 ar   
     5    5    6 ar   
     6    6    1 ar   
     7    6    7 1    
     8    7    8 1    
     9    7    9 1    
    10    5   10 ar   
    11   10   11 ar   
    12   11   12 ar   
    13   12   13 1    
    14   12   14 ar   
    15   14    4 ar   
    16   11   15 1    
    17   15   16 1    
    18   15   17 1    
    19   15   18 1    
    20   18   19 1    
    21   19   20 ar   
    22   20   21 1    
    23   20   22 ar   
    24   22   23 1    
    25   22   24 ar   
    26   24   25 ar   
    27   25   26 ar   
    28   26   27 1    
    29   26   19 ar   
    30   25   28 1    
    31   28   29 1    
    32   29   30 1    
    33   29   31 1    
    34   29   32 1    
    35   24   33 1    
    36   33   34 1    
    37   34   35 1    
    38   34   36 1    
    39   34   37 1    
    40    2   38 1    
    41   38   39 1    
    42   38   40 1    
@<TRIPOS>SUBSTRUCTURE
     1 ****        1 TEMP              0 ****  ****    0 ROOT 
@<TRIPOS>SET
UNITY_3DHIT     STATIC     ATOMS    <user>   **** Atoms matching 3D or FLEX Search
0
