#	Name:			9-12i
#	Creating user name:	jeff
#	Creation time:		Thu Dec  4 18:13:54 2003

#	Modifying user name:	jeff
#	Modification time:	Thu Dec  4 18:13:54 2003

@<TRIPOS>MOLECULE
9-12i
   32    34     1     0     1
SMALL
USER_CHARGES
****
From 3DB ct
@<TRIPOS>ATOM
      1 N          10.148000    2.596000   12.868000 N.ar      1 <1>        -0.629100 
      2 C          10.771000    1.960000   11.880000 C.ar      1 <1>         0.746100 
      3 N          12.042000    2.156000   11.542000 N.ar      1 <1>        -0.673400 
      4 C          12.734000    3.053000   12.238000 C.ar      1 <1>         0.632500 
      5 C          12.200000    3.791000   13.302000 C.ar      1 <1>        -0.275700 
      6 C          10.867000    3.488000   13.571000 C.ar      1 <1>         0.573900 
      7 N          10.171000    4.165000   14.565000 N.pl3     1 <1>        -0.708300 
      8 H          10.704000    4.507000   15.360000 H         1 <1>         0.342000 
      9 H           9.216000    3.871000   14.739000 H         1 <1>         0.347100 
     10 N          12.936000    4.712000   14.005000 N.ar      1 <1>        -0.217900 
     11 C          14.224000    4.887000   13.622000 C.ar      1 <1>         0.095500 
     12 C          14.740000    4.152000   12.569000 C.ar      1 <1>         0.157300 
     13 H          15.768000    4.276000   12.241000 H         1 <1>         0.117300 
     14 N          14.009000    3.237000   11.877000 N.ar      1 <1>        -0.449300 
     15 C          15.068000    5.900000   14.352000 C.3       1 <1>        -0.271500 
     16 H          15.219000    5.572000   15.386000 H         1 <1>         0.136400 
     17 H          14.533000    6.856000   14.379000 H         1 <1>         0.112300 
     18 S          16.684000    6.149000   13.523000 S.3       1 <1>        -0.006800 
     19 C          16.181000    7.169000   12.147000 C.ar      1 <1>        -0.185200 
     20 C          14.860000    7.630000   12.100000 C.ar      1 <1>         0.046700 
     21 H          14.157000    7.383000   12.894000 H         1 <1>         0.092400 
     22 C          14.423000    8.423000   11.036000 C.ar      1 <1>        -0.252300 
     23 H          13.396000    8.783000   11.011000 H         1 <1>         0.126800 
     24 C          15.303000    8.751000   10.005000 C.ar      1 <1>         0.237200 
     25 H          14.959000    9.369000    9.179000 H         1 <1>         0.041400 
     26 C          16.613000    8.279000   10.042000 C.ar      1 <1>        -0.507000 
     27 C          17.055000    7.487000   11.103000 C.ar      1 <1>         0.262900 
     28 H          18.076000    7.115000   11.101000 H         1 <1>         0.042500 
     29 Cl         17.698000    8.673000    8.763000 Cl        1 <1>         0.089300 
     30 N          10.059000    1.048000   11.166000 N.pl3     1 <1>        -0.752400 
     31 H          10.496000    0.549000   10.405000 H         1 <1>         0.373100 
     32 H           9.090000    0.880000   11.396000 H         1 <1>         0.356300 
@<TRIPOS>BOND
     1    1    2 ar   
     2    2    3 ar   
     3    3    4 ar   
     4    4    5 ar   
     5    5    6 ar   
     6    6    1 ar   
     7    6    7 1    
     8    7    8 1    
     9    7    9 1    
    10    5   10 ar   
    11   10   11 ar   
    12   11   12 ar   
    13   12   13 1    
    14   12   14 ar   
    15   14    4 ar   
    16   11   15 1    
    17   15   16 1    
    18   15   17 1    
    19   15   18 1    
    20   18   19 1    
    21   19   20 ar   
    22   20   21 1    
    23   20   22 ar   
    24   22   23 1    
    25   22   24 ar   
    26   24   25 1    
    27   24   26 ar   
    28   26   27 ar   
    29   27   28 1    
    30   27   19 ar   
    31   26   29 1    
    32    2   30 1    
    33   30   31 1    
    34   30   32 1    
@<TRIPOS>SUBSTRUCTURE
     1 ****        1 TEMP              0 ****  ****    0 ROOT 
@<TRIPOS>SET
UNITY_3DHIT     STATIC     ATOMS    <user>   **** Atoms matching 3D or FLEX Search
0
