#	Name:			9-13u
#	Creating user name:	jeff
#	Creation time:		Thu Dec  4 18:13:56 2003

#	Modifying user name:	jeff
#	Modification time:	Thu Dec  4 18:13:56 2003

@<TRIPOS>MOLECULE
9-13u
   46    48     1     0     1
SMALL
USER_CHARGES
****
From 3DB ct
@<TRIPOS>ATOM
      1 N          10.125000    2.561000   12.865000 N.ar      1 <1>        -0.708300 
      2 C          10.773000    1.933000   11.896000 C.ar      1 <1>         0.797600 
      3 N          12.036000    2.167000   11.575000 N.ar      1 <1>        -0.700800 
      4 C          12.698000    3.084000   12.261000 C.ar      1 <1>         0.825300 
      5 C          12.147000    3.827000   13.309000 C.ar      1 <1>        -0.830100 
      6 C          10.796000    3.491000   13.561000 C.ar      1 <1>         0.806200 
      7 N          10.031000    4.090000   14.552000 N.pl3     1 <1>        -0.755600 
      8 H          10.349000    3.916000   15.502000 H         1 <1>         0.319900 
      9 H           9.852000    5.081000   14.414000 H         1 <1>         0.325800 
     10 C          13.002000    4.799000   13.965000 C.ar      1 <1>         0.435600 
     11 C          14.338000    4.958000   13.535000 C.ar      1 <1>        -0.397100 
     12 C          14.741000    4.151000   12.485000 C.ar      1 <1>         0.371900 
     13 H          15.748000    4.195000   12.077000 H         1 <1>         0.088800 
     14 N          13.954000    3.244000   11.863000 N.ar      1 <1>        -0.588000 
     15 C          15.281000    5.955000   14.184000 C.3       1 <1>         0.071400 
     16 H          15.613000    5.523000   15.137000 H         1 <1>         0.026500 
     17 H          14.704000    6.861000   14.412000 H         1 <1>         0.034100 
     18 C          16.529000    6.379000   13.392000 C.3       1 <1>        -0.108200 
     19 H          17.101000    5.494000   13.086000 H         1 <1>         0.047100 
     20 H          17.209000    6.969000   14.020000 H         1 <1>         0.048400 
     21 C          16.167000    7.183000   12.158000 C.ar      1 <1>        -0.041600 
     22 C          14.866000    7.705000   12.043000 C.ar      1 <1>        -0.218800 
     23 H          14.137000    7.519000   12.831000 H         1 <1>         0.143200 
     24 C          14.485000    8.463000   10.933000 C.ar      1 <1>         0.247900 
     25 C          15.417000    8.706000    9.928000 C.ar      1 <1>        -0.192200 
     26 H          15.171000    9.289000    9.044000 H         1 <1>         0.127800 
     27 C          16.718000    8.198000   10.032000 C.ar      1 <1>        -0.215400 
     28 H          17.407000    8.418000    9.220000 H         1 <1>         0.133700 
     29 C          17.104000    7.439000   11.141000 C.ar      1 <1>         0.205800 
     30 O          18.353000    6.909000   11.327000 O.3       1 <1>        -0.248900 
     31 C          19.335000    7.180000   10.329000 C.3       1 <1>         0.009200 
     32 H          20.267000    6.699000   10.642000 H         1 <1>         0.063400 
     33 H          19.526000    8.255000   10.247000 H         1 <1>         0.038800 
     34 H          19.044000    6.750000    9.365000 H         1 <1>         0.046400 
     35 O          13.191000    8.903000   10.954000 O.3       1 <1>        -0.300900 
     36 C          12.780000    9.740000    9.873000 C.3       1 <1>         0.075800 
     37 H          11.730000   10.003000   10.038000 H         1 <1>         0.051500 
     38 H          12.846000    9.209000    8.918000 H         1 <1>         0.025000 
     39 H          13.358000   10.669000    9.854000 H         1 <1>         0.024000 
     40 C          12.470000    5.637000   15.105000 C.3       1 <1>        -0.194700 
     41 H          12.170000    4.995000   15.939000 H         1 <1>         0.073900 
     42 H          11.629000    6.248000   14.765000 H         1 <1>         0.055900 
     43 H          13.201000    6.338000   15.515000 H         1 <1>         0.037000 
     44 N          10.099000    0.988000   11.185000 N.pl3     1 <1>        -0.804900 
     45 H          10.565000    0.491000   10.440000 H         1 <1>         0.376700 
     46 H           9.135000    0.788000   11.409000 H         1 <1>         0.371000 
@<TRIPOS>BOND
     1    1    2 ar   
     2    2    3 ar   
     3    3    4 ar   
     4    4    5 ar   
     5    5    6 ar   
     6    6    1 ar   
     7    6    7 1    
     8    7    8 1    
     9    7    9 1    
    10    5   10 ar   
    11   10   11 ar   
    12   11   12 ar   
    13   12   13 1    
    14   12   14 ar   
    15   14    4 ar   
    16   11   15 1    
    17   15   16 1    
    18   15   17 1    
    19   15   18 1    
    20   18   19 1    
    21   18   20 1    
    22   18   21 1    
    23   21   22 ar   
    24   22   23 1    
    25   22   24 ar   
    26   24   25 ar   
    27   25   26 1    
    28   25   27 ar   
    29   27   28 1    
    30   27   29 ar   
    31   29   21 ar   
    32   29   30 1    
    33   30   31 1    
    34   31   32 1    
    35   31   33 1    
    36   31   34 1    
    37   24   35 1    
    38   35   36 1    
    39   36   37 1    
    40   36   38 1    
    41   36   39 1    
    42   10   40 1    
    43   40   41 1    
    44   40   42 1    
    45   40   43 1    
    46    2   44 1    
    47   44   45 1    
    48   44   46 1    
@<TRIPOS>SUBSTRUCTURE
     1 ****        1 TEMP              0 ****  ****    0 ROOT 
@<TRIPOS>SET
UNITY_3DHIT     STATIC     ATOMS    <user>   **** Atoms matching 3D or FLEX Search
0
