#	Name:			9-13f
#	Creating user name:	jeff
#	Creation time:		Thu Dec  4 18:13:55 2003

#	Modifying user name:	jeff
#	Modification time:	Thu Dec  4 18:13:55 2003

@<TRIPOS>MOLECULE
9-13f
   40    42     1     0     1
SMALL
USER_CHARGES
****
From 3DB ct
@<TRIPOS>ATOM
      1 N          10.105000    2.581000   12.779000 N.ar      1 <1>        -0.704000 
      2 C          10.810000    1.942000   11.858000 C.ar      1 <1>         0.803300 
      3 N          12.090000    2.173000   11.612000 N.ar      1 <1>        -0.698800 
      4 C          12.711000    3.097000   12.325000 C.ar      1 <1>         0.816100 
      5 C          12.096000    3.854000   13.329000 C.ar      1 <1>        -0.805200 
      6 C          10.733000    3.522000   13.503000 C.ar      1 <1>         0.789100 
      7 N           9.910000    4.131000   14.438000 N.pl3     1 <1>        -0.739600 
      8 H          10.164000    3.960000   15.408000 H         1 <1>         0.319100 
      9 H           9.745000    5.122000   14.284000 H         1 <1>         0.318500 
     10 C          12.908000    4.834000   14.027000 C.ar      1 <1>         0.435500 
     11 C          14.262000    4.986000   13.668000 C.ar      1 <1>        -0.397500 
     12 C          14.736000    4.161000   12.661000 C.ar      1 <1>         0.405600 
     13 H          15.775000    4.212000   12.337000 H         1 <1>         0.070600 
     14 N          13.991000    3.247000   12.003000 N.ar      1 <1>        -0.583500 
     15 C          15.231000    5.951000   14.309000 C.3       1 <1>        -0.112800 
     16 H          15.442000    5.656000   15.343000 H         1 <1>         0.123400 
     17 H          14.775000    6.946000   14.371000 H         1 <1>         0.064800 
     18 S          16.779000    6.076000   13.339000 S.3       1 <1>        -0.048200 
     19 C          16.215000    7.131000   12.015000 C.ar      1 <1>        -0.016300 
     20 C          14.905000    7.619000   11.988000 C.ar      1 <1>        -0.186600 
     21 H          14.199000    7.371000   12.778000 H         1 <1>         0.129400 
     22 C          14.482000    8.429000   10.935000 C.ar      1 <1>        -0.024900 
     23 H          13.463000    8.810000   10.916000 H         1 <1>         0.100600 
     24 C          15.365000    8.746000    9.904000 C.ar      1 <1>        -0.242100 
     25 H          15.025000    9.380000    9.086000 H         1 <1>         0.137200 
     26 C          16.674000    8.257000    9.912000 C.ar      1 <1>         0.292500 
     27 C          17.094000    7.445000   10.969000 C.ar      1 <1>        -0.187400 
     28 H          18.105000    7.046000   11.001000 H         1 <1>         0.132300 
     29 O          17.434000    8.639000    8.840000 O.3       1 <1>        -0.301900 
     30 C          18.779000    8.165000    8.803000 C.3       1 <1>         0.058400 
     31 H          19.246000    8.563000    7.897000 H         1 <1>         0.059600 
     32 H          18.808000    7.072000    8.742000 H         1 <1>         0.028600 
     33 H          19.349000    8.531000    9.662000 H         1 <1>         0.030900 
     34 C          12.314000    5.682000   15.126000 C.3       1 <1>        -0.202000 
     35 H          11.952000    5.048000   15.940000 H         1 <1>         0.070400 
     36 H          11.504000    6.301000   14.731000 H         1 <1>         0.067100 
     37 H          13.026000    6.373000   15.581000 H         1 <1>         0.050700 
     38 N          10.180000    0.989000   11.121000 N.pl3     1 <1>        -0.803600 
     39 H          10.688000    0.485000   10.409000 H         1 <1>         0.379000 
     40 H           9.205000    0.789000   11.290000 H         1 <1>         0.371300 
@<TRIPOS>BOND
     1    1    2 ar   
     2    2    3 ar   
     3    3    4 ar   
     4    4    5 ar   
     5    5    6 ar   
     6    6    1 ar   
     7    6    7 1    
     8    7    8 1    
     9    7    9 1    
    10    5   10 ar   
    11   10   11 ar   
    12   11   12 ar   
    13   12   13 1    
    14   12   14 ar   
    15   14    4 ar   
    16   11   15 1    
    17   15   16 1    
    18   15   17 1    
    19   15   18 1    
    20   18   19 1    
    21   19   20 ar   
    22   20   21 1    
    23   20   22 ar   
    24   22   23 1    
    25   22   24 ar   
    26   24   25 1    
    27   24   26 ar   
    28   26   27 ar   
    29   27   28 1    
    30   27   19 ar   
    31   26   29 1    
    32   29   30 1    
    33   30   31 1    
    34   30   32 1    
    35   30   33 1    
    36   10   34 1    
    37   34   35 1    
    38   34   36 1    
    39   34   37 1    
    40    2   38 1    
    41   38   39 1    
    42   38   40 1    
@<TRIPOS>SUBSTRUCTURE
     1 ****        1 TEMP              0 ****  ****    0 ROOT 
@<TRIPOS>SET
UNITY_3DHIT     STATIC     ATOMS    <user>   **** Atoms matching 3D or FLEX Search
0
