#	Name:			9-13g
#	Creating user name:	jeff
#	Creation time:		Thu Dec  4 18:13:55 2003

#	Modifying user name:	jeff
#	Modification time:	Thu Dec  4 18:13:56 2003

@<TRIPOS>MOLECULE
9-13g
   40    42     1     0     1
SMALL
USER_CHARGES
****
From 3DB ct
@<TRIPOS>ATOM
      1 N          10.102000    2.580000   12.768000 N.ar      1 <1>        -0.711300 
      2 C          10.813000    1.946000   11.849000 C.ar      1 <1>         0.810000 
      3 N          12.095000    2.178000   11.612000 N.ar      1 <1>        -0.701200 
      4 C          12.710000    3.099000   12.333000 C.ar      1 <1>         0.820800 
      5 C          12.089000    3.850000   13.338000 C.ar      1 <1>        -0.827000 
      6 C          10.726000    3.515000   13.502000 C.ar      1 <1>         0.805800 
      7 N           9.896000    4.120000   14.435000 N.pl3     1 <1>        -0.747100 
      8 H          10.153000    3.957000   15.406000 H         1 <1>         0.321200 
      9 H           9.721000    5.109000   14.276000 H         1 <1>         0.320300 
     10 C          12.895000    4.827000   14.047000 C.ar      1 <1>         0.447500 
     11 C          14.255000    4.970000   13.708000 C.ar      1 <1>        -0.380700 
     12 C          14.732000    4.164000   12.687000 C.ar      1 <1>         0.395500 
     13 H          15.770000    4.227000   12.361000 H         1 <1>         0.072100 
     14 N          13.992000    3.254000   12.018000 N.ar      1 <1>        -0.585000 
     15 C          15.216000    5.942000   14.353000 C.3       1 <1>        -0.126600 
     16 H          15.451000    5.607000   15.370000 H         1 <1>         0.127500 
     17 H          14.750000    6.926000   14.465000 H         1 <1>         0.056800 
     18 S          16.775000    6.063000   13.401000 S.3       1 <1>        -0.043200 
     19 C          16.231000    7.100000   12.057000 C.ar      1 <1>        -0.133400 
     20 C          17.138000    7.440000   11.049000 C.ar      1 <1>         0.008500 
     21 H          18.160000    7.066000   11.074000 H         1 <1>         0.117200 
     22 C          16.748000    8.264000    9.985000 C.ar      1 <1>        -0.287200 
     23 H          17.490000    8.494000    9.224000 H         1 <1>         0.129000 
     24 C          15.448000    8.763000    9.924000 C.ar      1 <1>         0.369500 
     25 C          14.545000    8.433000   10.938000 C.ar      1 <1>        -0.297100 
     26 H          13.528000    8.821000   10.909000 H         1 <1>         0.142700 
     27 C          14.933000    7.611000   12.001000 C.ar      1 <1>        -0.015200 
     28 H          14.209000    7.388000   12.781000 H         1 <1>         0.120700 
     29 O          14.942000    9.574000    8.946000 O.3       1 <1>        -0.317400 
     30 C          15.808000    9.876000    7.853000 C.3       1 <1>         0.064400 
     31 H          15.261000   10.529000    7.166000 H         1 <1>         0.059700 
     32 H          16.081000    8.969000    7.304000 H         1 <1>         0.029600 
     33 H          16.696000   10.418000    8.193000 H         1 <1>         0.028500 
     34 C          12.289000    5.682000   15.134000 C.3       1 <1>        -0.219700 
     35 H          12.988000    6.397000   15.570000 H         1 <1>         0.053000 
     36 H          11.942000    5.053000   15.959000 H         1 <1>         0.072800 
     37 H          11.466000    6.279000   14.731000 H         1 <1>         0.075100 
     38 N          10.188000    0.995000   11.103000 N.pl3     1 <1>        -0.810900 
     39 H          10.702000    0.492000   10.395000 H         1 <1>         0.380300 
     40 H           9.211000    0.796000   11.265000 H         1 <1>         0.374600 
@<TRIPOS>BOND
     1    1    2 ar   
     2    2    3 ar   
     3    3    4 ar   
     4    4    5 ar   
     5    5    6 ar   
     6    6    1 ar   
     7    6    7 1    
     8    7    8 1    
     9    7    9 1    
    10    5   10 ar   
    11   10   11 ar   
    12   11   12 ar   
    13   12   13 1    
    14   12   14 ar   
    15   14    4 ar   
    16   11   15 1    
    17   15   16 1    
    18   15   17 1    
    19   15   18 1    
    20   18   19 1    
    21   19   20 ar   
    22   20   21 1    
    23   20   22 ar   
    24   22   23 1    
    25   22   24 ar   
    26   24   25 ar   
    27   25   26 1    
    28   25   27 ar   
    29   27   28 1    
    30   27   19 ar   
    31   24   29 1    
    32   29   30 1    
    33   30   31 1    
    34   30   32 1    
    35   30   33 1    
    36   10   34 1    
    37   34   35 1    
    38   34   36 1    
    39   34   37 1    
    40    2   38 1    
    41   38   39 1    
    42   38   40 1    
@<TRIPOS>SUBSTRUCTURE
     1 ****        1 TEMP              0 ****  ****    0 ROOT 
@<TRIPOS>SET
UNITY_3DHIT     STATIC     ATOMS    <user>   **** Atoms matching 3D or FLEX Search
0
