#	Name:			9-13b
#	Creating user name:	jeff
#	Creation time:		Thu Dec  4 18:13:55 2003

#	Modifying user name:	jeff
#	Modification time:	Thu Dec  4 18:13:55 2003

@<TRIPOS>MOLECULE
9-13b
   36    38     1     0     1
SMALL
USER_CHARGES
****
From 3DB ct
@<TRIPOS>ATOM
      1 N          10.103000    2.592000   12.772000 N.ar      1 <1>        -0.711000 
      2 C          10.808000    1.949000   11.854000 C.ar      1 <1>         0.812800 
      3 N          12.090000    2.171000   11.613000 N.ar      1 <1>        -0.706100 
      4 C          12.714000    3.090000   12.330000 C.ar      1 <1>         0.848300 
      5 C          12.101000    3.847000   13.336000 C.ar      1 <1>        -0.874000 
      6 C          10.735000    3.526000   13.501000 C.ar      1 <1>         0.805800 
      7 N           9.910000    4.143000   14.431000 N.pl3     1 <1>        -0.735500 
      8 H          10.152000    3.964000   15.402000 H         1 <1>         0.317200 
      9 H           9.763000    5.138000   14.279000 H         1 <1>         0.315600 
     10 C          12.917000    4.818000   14.042000 C.ar      1 <1>         0.526600 
     11 C          14.270000    4.970000   13.680000 C.ar      1 <1>        -0.413300 
     12 C          14.742000    4.148000   12.670000 C.ar      1 <1>         0.360500 
     13 H          15.781000    4.198000   12.345000 H         1 <1>         0.104900 
     14 N          13.995000    3.236000   12.010000 N.ar      1 <1>        -0.589400 
     15 C          15.240000    5.934000   14.322000 C.3       1 <1>        -0.193300 
     16 H          15.454000    5.636000   15.354000 H         1 <1>         0.143600 
     17 H          14.781000    6.928000   14.389000 H         1 <1>         0.087500 
     18 S          16.784000    6.065000   13.347000 S.3       1 <1>        -0.045000 
     19 C          16.224000    7.124000   12.026000 C.ar      1 <1>        -0.062300 
     20 C          17.075000    7.518000   10.988000 C.ar      1 <1>         0.032800 
     21 H          18.110000    7.185000   10.957000 H         1 <1>         0.081100 
     22 C          16.609000    8.359000    9.975000 C.ar      1 <1>        -0.184100 
     23 H          17.276000    8.660000    9.168000 H         1 <1>         0.124000 
     24 C          15.293000    8.819000    9.997000 C.ar      1 <1>        -0.062500 
     25 H          14.932000    9.476000    9.208000 H         1 <1>         0.101900 
     26 C          14.444000    8.442000   11.035000 C.ar      1 <1>        -0.126000 
     27 H          13.417000    8.804000   11.058000 H         1 <1>         0.107100 
     28 C          14.909000    7.601000   12.049000 C.ar      1 <1>        -0.097000 
     29 H          14.230000    7.319000   12.853000 H         1 <1>         0.113500 
     30 C          12.328000    5.658000   15.149000 C.3       1 <1>        -0.214200 
     31 H          11.941000    5.016000   15.947000 H         1 <1>         0.062900 
     32 H          11.537000    6.303000   14.756000 H         1 <1>         0.070400 
     33 H          13.050000    6.320000   15.630000 H         1 <1>         0.054500 
     34 N          10.174000    1.001000   11.112000 N.pl3     1 <1>        -0.814600 
     35 H          10.684000    0.492000   10.404000 H         1 <1>         0.382000 
     36 H           9.197000    0.810000   11.274000 H         1 <1>         0.375300 
@<TRIPOS>BOND
     1    1    2 ar   
     2    2    3 ar   
     3    3    4 ar   
     4    4    5 ar   
     5    5    6 ar   
     6    6    1 ar   
     7    6    7 1    
     8    7    8 1    
     9    7    9 1    
    10    5   10 ar   
    11   10   11 ar   
    12   11   12 ar   
    13   12   13 1    
    14   12   14 ar   
    15   14    4 ar   
    16   11   15 1    
    17   15   16 1    
    18   15   17 1    
    19   15   18 1    
    20   18   19 1    
    21   19   20 ar   
    22   20   21 1    
    23   20   22 ar   
    24   22   23 1    
    25   22   24 ar   
    26   24   25 1    
    27   24   26 ar   
    28   26   27 1    
    29   26   28 ar   
    30   28   29 1    
    31   28   19 ar   
    32   10   30 1    
    33   30   31 1    
    34   30   32 1    
    35   30   33 1    
    36    2   34 1    
    37   34   35 1    
    38   34   36 1    
@<TRIPOS>SUBSTRUCTURE
     1 ****        1 TEMP              0 ****  ****    0 ROOT 
@<TRIPOS>SET
UNITY_3DHIT     STATIC     ATOMS    <user>   **** Atoms matching 3D or FLEX Search
0
