#	Name:			9-13r
#	Creating user name:	jeff
#	Creation time:		Thu Dec  4 18:13:56 2003

#	Modifying user name:	jeff
#	Modification time:	Thu Dec  4 18:13:56 2003

@<TRIPOS>MOLECULE
9-13r
   44    46     1     0     1
SMALL
USER_CHARGES
****
From 3DB ct
@<TRIPOS>ATOM
      1 N          10.126000    2.616000   12.808000 N.ar      1 <1>        -0.712800 
      2 C          10.800000    1.965000   11.873000 C.ar      1 <1>         0.806800 
      3 N          12.079000    2.169000   11.601000 N.ar      1 <1>        -0.702100 
      4 C          12.731000    3.083000   12.300000 C.ar      1 <1>         0.846600 
      5 C          12.147000    3.856000   13.312000 C.ar      1 <1>        -0.873500 
      6 C          10.785000    3.543000   13.519000 C.ar      1 <1>         0.823000 
      7 N           9.996000    4.161000   14.479000 N.pl3     1 <1>        -0.752300 
      8 H          10.296000    4.011000   15.439000 H         1 <1>         0.320700 
      9 H           9.816000    5.148000   14.313000 H         1 <1>         0.323900 
     10 C          12.987000    4.827000   13.988000 C.ar      1 <1>         0.510000 
     11 C          14.346000    4.928000   13.629000 C.ar      1 <1>        -0.464300 
     12 C          14.784000    4.104000   12.606000 C.ar      1 <1>         0.412600 
     13 H          15.816000    4.141000   12.259000 H         1 <1>         0.083500 
     14 N          14.008000    3.209000   11.956000 N.ar      1 <1>        -0.602800 
     15 C          15.341000    5.878000   14.261000 C.3       1 <1>         0.114400 
     16 H          15.838000    5.373000   15.099000 H         1 <1>         0.075300 
     17 H          14.800000    6.734000   14.680000 H         1 <1>         0.059500 
     18 N          16.326000    6.287000   13.276000 N.pl3     1 <1>        -0.525400 
     19 H          17.279000    5.965000   13.435000 H         1 <1>         0.310500 
     20 C          16.095000    7.096000   12.174000 C.ar      1 <1>         0.095700 
     21 C          14.790000    7.616000   12.044000 C.ar      1 <1>        -0.003100 
     22 H          14.041000    7.368000   12.798000 H         1 <1>         0.104900 
     23 C          14.409000    8.445000   10.977000 C.ar      1 <1>        -0.404900 
     24 C          15.369000    8.783000   10.022000 C.ar      1 <1>        -0.034600 
     25 H          15.112000    9.436000    9.188000 H         1 <1>         0.122700 
     26 C          16.670000    8.284000   10.122000 C.ar      1 <1>        -0.192100 
     27 H          17.372000    8.578000    9.345000 H         1 <1>         0.128000 
     28 C          17.044000    7.443000   11.182000 C.ar      1 <1>         0.209000 
     29 O          18.311000    6.932000   11.315000 O.3       1 <1>        -0.263800 
     30 C          19.297000    7.326000   10.364000 C.3       1 <1>        -0.005800 
     31 H          20.234000    6.830000   10.634000 H         1 <1>         0.072800 
     32 H          19.471000    8.406000   10.400000 H         1 <1>         0.045400 
     33 H          19.026000    6.996000    9.355000 H         1 <1>         0.051400 
     34 C          13.007000    8.988000   10.892000 C.3       1 <1>         1.119400 
     35 F          12.856000   10.168000   11.568000 F         1 <1>        -0.339900 
     36 F          12.061000    8.147000   11.411000 F         1 <1>        -0.342600 
     37 F          12.594000    9.245000    9.614000 F         1 <1>        -0.336000 
     38 C          12.424000    5.722000   15.066000 C.3       1 <1>        -0.220800 
     39 H          12.117000    5.126000   15.930000 H         1 <1>         0.073300 
     40 H          11.580000    6.299000   14.676000 H         1 <1>         0.075000 
     41 H          13.136000    6.462000   15.434000 H         1 <1>         0.045800 
     42 N          10.135000    1.027000   11.146000 N.pl3     1 <1>        -0.804900 
     43 H          10.616000    0.519000   10.418000 H         1 <1>         0.378400 
     44 H           9.156000    0.858000   11.328000 H         1 <1>         0.373000 
@<TRIPOS>BOND
     1    1    2 ar   
     2    2    3 ar   
     3    3    4 ar   
     4    4    5 ar   
     5    5    6 ar   
     6    6    1 ar   
     7    6    7 1    
     8    7    8 1    
     9    7    9 1    
    10    5   10 ar   
    11   10   11 ar   
    12   11   12 ar   
    13   12   13 1    
    14   12   14 ar   
    15   14    4 ar   
    16   11   15 1    
    17   15   16 1    
    18   15   17 1    
    19   15   18 1    
    20   18   19 1    
    21   18   20 1    
    22   20   21 ar   
    23   21   22 1    
    24   21   23 ar   
    25   23   24 ar   
    26   24   25 1    
    27   24   26 ar   
    28   26   27 1    
    29   26   28 ar   
    30   28   20 ar   
    31   28   29 1    
    32   29   30 1    
    33   30   31 1    
    34   30   32 1    
    35   30   33 1    
    36   23   34 1    
    37   34   35 1    
    38   34   36 1    
    39   34   37 1    
    40   10   38 1    
    41   38   39 1    
    42   38   40 1    
    43   38   41 1    
    44    2   42 1    
    45   42   43 1    
    46   42   44 1    
@<TRIPOS>SUBSTRUCTURE
     1 ****        1 TEMP              0 ****  ****    0 ROOT 
@<TRIPOS>SET
UNITY_3DHIT     STATIC     ATOMS    <user>   **** Atoms matching 3D or FLEX Search
0
