#	Name:			9-13t
#	Creating user name:	jeff
#	Creation time:		Thu Dec  4 18:13:56 2003

#	Modifying user name:	jeff
#	Modification time:	Thu Dec  4 18:13:56 2003

@<TRIPOS>MOLECULE
9-13t
   44    47     1     0     1
SMALL
USER_CHARGES
****
From 3DB ct
@<TRIPOS>ATOM
      1 N          10.128000    2.579000   12.866000 N.ar      1 <1>        -0.715100 
      2 C          10.767000    1.950000   11.892000 C.ar      1 <1>         0.811700 
      3 N          12.032000    2.171000   11.571000 N.ar      1 <1>        -0.703000 
      4 C          12.706000    3.075000   12.262000 C.ar      1 <1>         0.826500 
      5 C          12.165000    3.818000   13.315000 C.ar      1 <1>        -0.857400 
      6 C          10.812000    3.497000   13.568000 C.ar      1 <1>         0.817600 
      7 N          10.056000    4.096000   14.565000 N.pl3     1 <1>        -0.755300 
      8 H          10.375000    3.913000   15.513000 H         1 <1>         0.320600 
      9 H           9.886000    5.090000   14.434000 H         1 <1>         0.324300 
     10 C          13.033000    4.776000   13.977000 C.ar      1 <1>         0.472700 
     11 C          14.371000    4.920000   13.548000 C.ar      1 <1>        -0.391300 
     12 C          14.763000    4.114000   12.492000 C.ar      1 <1>         0.381400 
     13 H          15.771000    4.147000   12.084000 H         1 <1>         0.077100 
     14 N          13.964000    3.221000   11.865000 N.ar      1 <1>        -0.585000 
     15 C          15.327000    5.900000   14.202000 C.3       1 <1>        -0.062400 
     16 H          15.687000    5.441000   15.133000 H         1 <1>         0.060200 
     17 H          14.751000    6.793000   14.474000 H         1 <1>         0.060100 
     18 C          16.557000    6.347000   13.395000 C.3       1 <1>        -0.126900 
     19 H          17.158000    5.488000   13.074000 H         1 <1>         0.077300 
     20 H          17.226000    6.939000   14.035000 H         1 <1>         0.051900 
     21 C          16.169000    7.181000   12.187000 C.ar      1 <1>         0.059800 
     22 C          14.846000    7.657000   12.125000 C.ar      1 <1>        -0.134500 
     23 H          14.142000    7.433000   12.926000 H         1 <1>         0.113200 
     24 C          14.411000    8.417000   11.045000 C.ar      1 <1>        -0.093400 
     25 H          13.386000    8.780000   11.011000 H         1 <1>         0.109800 
     26 C          15.290000    8.711000   10.007000 C.ar      1 <1>        -0.214200 
     27 H          14.928000    9.308000    9.170000 H         1 <1>         0.132100 
     28 C          16.613000    8.248000   10.030000 C.ar      1 <1>         0.168200 
     29 C          17.074000    7.470000   11.125000 C.ar      1 <1>        -0.077200 
     30 C          18.417000    7.026000   11.089000 C.ar      1 <1>        -0.070600 
     31 H          18.829000    6.422000   11.895000 H         1 <1>         0.083800 
     32 C          19.267000    7.338000   10.024000 C.ar      1 <1>        -0.139200 
     33 H          20.295000    6.981000   10.027000 H         1 <1>         0.113500 
     34 C          18.799000    8.102000    8.964000 C.ar      1 <1>        -0.058800 
     35 H          19.457000    8.348000    8.134000 H         1 <1>         0.099600 
     36 C          17.480000    8.553000    8.968000 C.ar      1 <1>        -0.208700 
     37 H          17.131000    9.151000    8.126000 H         1 <1>         0.124500 
     38 C          12.511000    5.616000   15.120000 C.3       1 <1>        -0.215400 
     39 H          12.206000    4.975000   15.952000 H         1 <1>         0.075800 
     40 H          11.675000    6.236000   14.783000 H         1 <1>         0.059200 
     41 H          13.249000    6.309000   15.529000 H         1 <1>         0.047600 
     42 N          10.080000    1.019000   11.176000 N.pl3     1 <1>        -0.813500 
     43 H          10.538000    0.521000   10.427000 H         1 <1>         0.379900 
     44 H           9.114000    0.830000   11.400000 H         1 <1>         0.373800 
@<TRIPOS>BOND
     1    1    2 ar   
     2    2    3 ar   
     3    3    4 ar   
     4    4    5 ar   
     5    5    6 ar   
     6    6    1 ar   
     7    6    7 1    
     8    7    8 1    
     9    7    9 1    
    10    5   10 ar   
    11   10   11 ar   
    12   11   12 ar   
    13   12   13 1    
    14   12   14 ar   
    15   14    4 ar   
    16   11   15 1    
    17   15   16 1    
    18   15   17 1    
    19   15   18 1    
    20   18   19 1    
    21   18   20 1    
    22   18   21 1    
    23   21   22 ar   
    24   22   23 1    
    25   22   24 ar   
    26   24   25 1    
    27   24   26 ar   
    28   26   27 1    
    29   26   28 ar   
    30   28   29 ar   
    31   29   21 ar   
    32   29   30 ar   
    33   30   31 1    
    34   30   32 ar   
    35   32   33 1    
    36   32   34 ar   
    37   34   35 1    
    38   34   36 ar   
    39   36   37 1    
    40   36   28 ar   
    41   10   38 1    
    42   38   39 1    
    43   38   40 1    
    44   38   41 1    
    45    2   42 1    
    46   42   43 1    
    47   42   44 1    
@<TRIPOS>SUBSTRUCTURE
     1 ****        1 TEMP              0 ****  ****    0 ROOT 
@<TRIPOS>SET
UNITY_3DHIT     STATIC     ATOMS    <user>   **** Atoms matching 3D or FLEX Search
0
