#	Name:			9-13i
#	Creating user name:	jeff
#	Creation time:		Thu Dec  4 18:13:56 2003

#	Modifying user name:	jeff
#	Modification time:	Thu Dec  4 18:13:56 2003

@<TRIPOS>MOLECULE
9-13i
   36    38     1     0     1
SMALL
USER_CHARGES
****
From 3DB ct
@<TRIPOS>ATOM
      1 N          10.104000    2.592000   12.774000 N.ar      1 <1>        -0.714500 
      2 C          10.808000    1.948000   11.855000 C.ar      1 <1>         0.808200 
      3 N          12.090000    2.171000   11.613000 N.ar      1 <1>        -0.699200 
      4 C          12.714000    3.090000   12.329000 C.ar      1 <1>         0.829300 
      5 C          12.102000    3.847000   13.335000 C.ar      1 <1>        -0.841100 
      6 C          10.735000    3.526000   13.501000 C.ar      1 <1>         0.818300 
      7 N           9.911000    4.144000   14.431000 N.pl3     1 <1>        -0.754200 
      8 H          10.153000    3.966000   15.402000 H         1 <1>         0.323600 
      9 H           9.763000    5.138000   14.278000 H         1 <1>         0.319700 
     10 C          12.918000    4.818000   14.040000 C.ar      1 <1>         0.444700 
     11 C          14.271000    4.970000   13.679000 C.ar      1 <1>        -0.415000 
     12 C          14.742000    4.148000   12.668000 C.ar      1 <1>         0.441600 
     13 H          15.781000    4.199000   12.342000 H         1 <1>         0.059300 
     14 N          13.995000    3.237000   12.008000 N.ar      1 <1>        -0.596400 
     15 C          15.241000    5.934000   14.320000 C.3       1 <1>        -0.146300 
     16 H          15.455000    5.634000   15.352000 H         1 <1>         0.139100 
     17 H          14.782000    6.927000   14.389000 H         1 <1>         0.069500 
     18 S          16.785000    6.066000   13.347000 S.3       1 <1>        -0.020100 
     19 C          16.219000    7.126000   12.028000 C.ar      1 <1>        -0.224300 
     20 C          14.912000    7.627000   12.008000 C.ar      1 <1>         0.045200 
     21 H          14.207000    7.380000   12.799000 H         1 <1>         0.099700 
     22 C          14.487000    8.447000   10.959000 C.ar      1 <1>        -0.272300 
     23 H          13.470000    8.835000   10.950000 H         1 <1>         0.128600 
     24 C          15.363000    8.763000    9.922000 C.ar      1 <1>         0.275300 
     25 H          15.025000    9.401000    9.108000 H         1 <1>         0.034800 
     26 C          16.660000    8.253000    9.935000 C.ar      1 <1>        -0.552100 
     27 C          17.090000    7.434000   10.979000 C.ar      1 <1>         0.319500 
     28 H          18.105000    7.042000   10.974000 H         1 <1>         0.041700 
     29 Cl         17.741000    8.638000    8.650000 Cl        1 <1>         0.095500 
     30 C          12.329000    5.660000   15.147000 C.3       1 <1>        -0.181100 
     31 H          11.941000    5.020000   15.945000 H         1 <1>         0.068200 
     32 H          11.538000    6.305000   14.752000 H         1 <1>         0.064300 
     33 H          13.051000    6.322000   15.627000 H         1 <1>         0.041900 
     34 N          10.173000    1.000000   11.114000 N.pl3     1 <1>        -0.806500 
     35 H          10.681000    0.493000   10.403000 H         1 <1>         0.380100 
     36 H           9.195000    0.811000   11.277000 H         1 <1>         0.374600 
@<TRIPOS>BOND
     1    1    2 ar   
     2    2    3 ar   
     3    3    4 ar   
     4    4    5 ar   
     5    5    6 ar   
     6    6    1 ar   
     7    6    7 1    
     8    7    8 1    
     9    7    9 1    
    10    5   10 ar   
    11   10   11 ar   
    12   11   12 ar   
    13   12   13 1    
    14   12   14 ar   
    15   14    4 ar   
    16   11   15 1    
    17   15   16 1    
    18   15   17 1    
    19   15   18 1    
    20   18   19 1    
    21   19   20 ar   
    22   20   21 1    
    23   20   22 ar   
    24   22   23 1    
    25   22   24 ar   
    26   24   25 1    
    27   24   26 ar   
    28   26   27 ar   
    29   27   28 1    
    30   27   19 ar   
    31   26   29 1    
    32   10   30 1    
    33   30   31 1    
    34   30   32 1    
    35   30   33 1    
    36    2   34 1    
    37   34   35 1    
    38   34   36 1    
@<TRIPOS>SUBSTRUCTURE
     1 ****        1 TEMP              0 ****  ****    0 ROOT 
@<TRIPOS>SET
UNITY_3DHIT     STATIC     ATOMS    <user>   **** Atoms matching 3D or FLEX Search
0
