#	Name:			9-13d
#	Creating user name:	jeff
#	Creation time:		Thu Dec  4 18:13:55 2003

#	Modifying user name:	jeff
#	Modification time:	Thu Dec  4 18:13:55 2003

@<TRIPOS>MOLECULE
9-13d
   39    41     1     0     1
SMALL
USER_CHARGES
****
From 3DB ct
@<TRIPOS>ATOM
      1 N          10.104000    2.591000   12.773000 N.ar      1 <1>        -0.711500 
      2 C          10.809000    1.948000   11.855000 C.ar      1 <1>         0.806300 
      3 N          12.091000    2.171000   11.613000 N.ar      1 <1>        -0.692500 
      4 C          12.714000    3.091000   12.329000 C.ar      1 <1>         0.815700 
      5 C          12.102000    3.848000   13.335000 C.ar      1 <1>        -0.830400 
      6 C          10.735000    3.526000   13.501000 C.ar      1 <1>         0.808100 
      7 N           9.911000    4.143000   14.431000 N.pl3     1 <1>        -0.746400 
      8 H          10.155000    3.968000   15.402000 H         1 <1>         0.320100 
      9 H           9.760000    5.137000   14.276000 H         1 <1>         0.319600 
     10 C          12.917000    4.820000   14.039000 C.ar      1 <1>         0.446500 
     11 C          14.270000    4.972000   13.679000 C.ar      1 <1>        -0.422600 
     12 C          14.742000    4.150000   12.668000 C.ar      1 <1>         0.448400 
     13 H          15.781000    4.200000   12.343000 H         1 <1>         0.062700 
     14 N          13.995000    3.239000   12.008000 N.ar      1 <1>        -0.597800 
     15 C          15.241000    5.933000   14.322000 C.3       1 <1>        -0.139100 
     16 H          15.456000    5.633000   15.353000 H         1 <1>         0.133200 
     17 H          14.783000    6.927000   14.391000 H         1 <1>         0.070300 
     18 S          16.786000    6.064000   13.347000 S.3       1 <1>        -0.043700 
     19 C          16.223000    7.121000   12.025000 C.ar      1 <1>        -0.057800 
     20 C          14.922000    7.630000   12.000000 C.ar      1 <1>        -0.082700 
     21 H          14.213000    7.396000   12.792000 H         1 <1>         0.115400 
     22 C          14.503000    8.437000   10.941000 C.ar      1 <1>        -0.140200 
     23 H          13.486000    8.827000   10.924000 H         1 <1>         0.112600 
     24 C          15.380000    8.738000    9.899000 C.ar      1 <1>        -0.125500 
     25 H          15.035000    9.362000    9.076000 H         1 <1>         0.119900 
     26 C          16.687000    8.238000    9.910000 C.ar      1 <1>         0.094700 
     27 C          17.095000    7.415000   10.971000 C.ar      1 <1>        -0.143200 
     28 H          18.105000    7.007000   10.971000 H         1 <1>         0.149300 
     29 C          17.620000    8.526000    8.770000 C.3       1 <1>        -0.234700 
     30 H          17.512000    7.760000    7.996000 H         1 <1>         0.075100 
     31 H          18.660000    8.542000    9.111000 H         1 <1>         0.067200 
     32 H          17.408000    9.506000    8.331000 H         1 <1>         0.067600 
     33 C          12.328000    5.661000   15.146000 C.3       1 <1>        -0.177300 
     34 H          11.946000    5.020000   15.946000 H         1 <1>         0.064300 
     35 H          11.534000    6.302000   14.753000 H         1 <1>         0.061000 
     36 H          13.049000    6.327000   15.623000 H         1 <1>         0.042500 
     37 N          10.175000    0.998000   11.115000 N.pl3     1 <1>        -0.807700 
     38 H          10.685000    0.488000   10.409000 H         1 <1>         0.378100 
     39 H           9.198000    0.806000   11.280000 H         1 <1>         0.374400 
@<TRIPOS>BOND
     1    1    2 ar   
     2    2    3 ar   
     3    3    4 ar   
     4    4    5 ar   
     5    5    6 ar   
     6    6    1 ar   
     7    6    7 1    
     8    7    8 1    
     9    7    9 1    
    10    5   10 ar   
    11   10   11 ar   
    12   11   12 ar   
    13   12   13 1    
    14   12   14 ar   
    15   14    4 ar   
    16   11   15 1    
    17   15   16 1    
    18   15   17 1    
    19   15   18 1    
    20   18   19 1    
    21   19   20 ar   
    22   20   21 1    
    23   20   22 ar   
    24   22   23 1    
    25   22   24 ar   
    26   24   25 1    
    27   24   26 ar   
    28   26   27 ar   
    29   27   28 1    
    30   27   19 ar   
    31   26   29 1    
    32   29   30 1    
    33   29   31 1    
    34   29   32 1    
    35   10   33 1    
    36   33   34 1    
    37   33   35 1    
    38   33   36 1    
    39    2   37 1    
    40   37   38 1    
    41   37   39 1    
@<TRIPOS>SUBSTRUCTURE
     1 ****        1 TEMP              0 ****  ****    0 ROOT 
@<TRIPOS>SET
UNITY_3DHIT     STATIC     ATOMS    <user>   **** Atoms matching 3D or FLEX Search
0
