#	Name:			9-13j
#	Creating user name:	jeff
#	Creation time:		Thu Dec  4 18:13:56 2003

#	Modifying user name:	jeff
#	Modification time:	Thu Dec  4 18:13:56 2003

@<TRIPOS>MOLECULE
9-13j
   36    38     1     0     1
SMALL
USER_CHARGES
****
From 3DB ct
@<TRIPOS>ATOM
      1 N          10.105000    2.591000   12.774000 N.ar      1 <1>        -0.713100 
      2 C          10.810000    1.947000   11.857000 C.ar      1 <1>         0.814900 
      3 N          12.091000    2.173000   11.612000 N.ar      1 <1>        -0.702300 
      4 C          12.714000    3.094000   12.327000 C.ar      1 <1>         0.837200 
      5 C          12.101000    3.851000   13.333000 C.ar      1 <1>        -0.854800 
      6 C          10.736000    3.528000   13.500000 C.ar      1 <1>         0.808900 
      7 N           9.911000    4.144000   14.430000 N.pl3     1 <1>        -0.740200 
      8 H          10.155000    3.967000   15.402000 H         1 <1>         0.320200 
      9 H           9.759000    5.138000   14.276000 H         1 <1>         0.315800 
     10 C          12.916000    4.823000   14.037000 C.ar      1 <1>         0.500100 
     11 C          14.270000    4.973000   13.677000 C.ar      1 <1>        -0.410700 
     12 C          14.741000    4.152000   12.665000 C.ar      1 <1>         0.354700 
     13 H          15.780000    4.202000   12.341000 H         1 <1>         0.104200 
     14 N          13.994000    3.241000   12.005000 N.ar      1 <1>        -0.583100 
     15 C          15.243000    5.932000   14.322000 C.3       1 <1>        -0.172600 
     16 H          15.458000    5.630000   15.352000 H         1 <1>         0.140700 
     17 H          14.786000    6.926000   14.393000 H         1 <1>         0.082900 
     18 S          16.786000    6.061000   13.346000 S.3       1 <1>        -0.052300 
     19 C          16.220000    7.118000   12.027000 C.ar      1 <1>         0.031100 
     20 C          17.072000    7.510000   10.989000 C.ar      1 <1>        -0.079200 
     21 H          18.106000    7.173000   10.958000 H         1 <1>         0.102600 
     22 C          16.610000    8.358000    9.978000 C.ar      1 <1>         0.092900 
     23 H          17.284000    8.655000    9.177000 H         1 <1>         0.073000 
     24 C          15.295000    8.819000   10.006000 C.ar      1 <1>        -0.412000 
     25 C          14.441000    8.442000   11.040000 C.ar      1 <1>         0.161900 
     26 H          13.415000    8.802000   11.070000 H         1 <1>         0.052800 
     27 C          14.905000    7.596000   12.051000 C.ar      1 <1>        -0.211800 
     28 H          14.226000    7.314000   12.855000 H         1 <1>         0.133700 
     29 Cl         14.728000    9.866000    8.764000 Cl        1 <1>         0.080800 
     30 C          12.327000    5.664000   15.143000 C.3       1 <1>        -0.198500 
     31 H          11.946000    5.024000   15.945000 H         1 <1>         0.062300 
     32 H          11.531000    6.303000   14.749000 H         1 <1>         0.066600 
     33 H          13.047000    6.333000   15.617000 H         1 <1>         0.050400 
     34 N          10.178000    0.993000   11.120000 N.pl3     1 <1>        -0.816400 
     35 H          10.690000    0.481000   10.417000 H         1 <1>         0.382600 
     36 H           9.203000    0.795000   11.290000 H         1 <1>         0.376900 
@<TRIPOS>BOND
     1    1    2 ar   
     2    2    3 ar   
     3    3    4 ar   
     4    4    5 ar   
     5    5    6 ar   
     6    6    1 ar   
     7    6    7 1    
     8    7    8 1    
     9    7    9 1    
    10    5   10 ar   
    11   10   11 ar   
    12   11   12 ar   
    13   12   13 1    
    14   12   14 ar   
    15   14    4 ar   
    16   11   15 1    
    17   15   16 1    
    18   15   17 1    
    19   15   18 1    
    20   18   19 1    
    21   19   20 ar   
    22   20   21 1    
    23   20   22 ar   
    24   22   23 1    
    25   22   24 ar   
    26   24   25 ar   
    27   25   26 1    
    28   25   27 ar   
    29   27   28 1    
    30   27   19 ar   
    31   24   29 1    
    32   10   30 1    
    33   30   31 1    
    34   30   32 1    
    35   30   33 1    
    36    2   34 1    
    37   34   35 1    
    38   34   36 1    
@<TRIPOS>SUBSTRUCTURE
     1 ****        1 TEMP              0 ****  ****    0 ROOT 
@<TRIPOS>SET
UNITY_3DHIT     STATIC     ATOMS    <user>   **** Atoms matching 3D or FLEX Search
0
