#	Name:			9-13l
#	Creating user name:	jeff
#	Creation time:		Thu Dec  4 18:13:56 2003

#	Modifying user name:	jeff
#	Modification time:	Thu Dec  4 18:13:56 2003

@<TRIPOS>MOLECULE
9-13l
   44    46     1     0     1
SMALL
USER_CHARGES
****
From 3DB ct
@<TRIPOS>ATOM
      1 N          10.137000    2.629000   12.822000 N.ar      1 <1>        -0.714500 
      2 C          10.800000    1.967000   11.886000 C.ar      1 <1>         0.807400 
      3 N          12.077000    2.165000   11.601000 N.ar      1 <1>        -0.699800 
      4 C          12.739000    3.080000   12.288000 C.ar      1 <1>         0.828400 
      5 C          12.171000    3.860000   13.303000 C.ar      1 <1>        -0.856800 
      6 C          10.808000    3.557000   13.522000 C.ar      1 <1>         0.820900 
      7 N          10.028000    4.188000   14.481000 N.pl3     1 <1>        -0.754600 
      8 H          10.329000    4.042000   15.441000 H         1 <1>         0.320000 
      9 H           9.856000    5.176000   14.309000 H         1 <1>         0.324800 
     10 C          13.022000    4.829000   13.966000 C.ar      1 <1>         0.469200 
     11 C          14.376000    4.925000   13.589000 C.ar      1 <1>        -0.380600 
     12 C          14.798000    4.098000   12.562000 C.ar      1 <1>         0.397800 
     13 H          15.826000    4.133000   12.201000 H         1 <1>         0.077300 
     14 N          14.013000    3.200000   11.928000 N.ar      1 <1>        -0.591400 
     15 C          15.383000    5.874000   14.197000 C.3       1 <1>         0.003300 
     16 H          15.852000    5.389000   15.060000 H         1 <1>         0.077500 
     17 H          14.876000    6.759000   14.600000 H         1 <1>         0.096400 
     18 N          16.377000    6.243000   13.195000 N.pl3     1 <1>        -0.468900 
     19 H          16.977000    5.473000   12.900000 H         1 <1>         0.305800 
     20 C          16.009000    7.130000   12.184000 C.ar      1 <1>         0.244200 
     21 C          14.693000    7.628000   12.189000 C.ar      1 <1>        -0.381000 
     22 H          13.992000    7.275000   12.945000 H         1 <1>         0.145000 
     23 C          14.257000    8.581000   11.263000 C.ar      1 <1>         0.377200 
     24 C          15.152000    9.059000   10.313000 C.ar      1 <1>        -0.312200 
     25 H          14.869000    9.804000    9.574000 H         1 <1>         0.128800 
     26 C          16.462000    8.576000   10.289000 C.ar      1 <1>        -0.085800 
     27 H          17.147000    8.960000    9.532000 H         1 <1>         0.133200 
     28 C          16.900000    7.604000   11.207000 C.ar      1 <1>        -0.075900 
     29 C          18.318000    7.113000   11.085000 C.3       1 <1>        -0.161500 
     30 H          18.647000    7.132000   10.040000 H         1 <1>         0.056800 
     31 H          18.412000    6.075000   11.421000 H         1 <1>         0.048800 
     32 H          18.989000    7.748000   11.670000 H         1 <1>         0.037800 
     33 O          12.951000    8.963000   11.401000 O.3       1 <1>        -0.306200 
     34 C          12.465000    9.935000   10.476000 C.3       1 <1>         0.058300 
     35 H          11.414000   10.124000   10.713000 H         1 <1>         0.055200 
     36 H          12.513000    9.558000    9.449000 H         1 <1>         0.030200 
     37 H          13.007000   10.881000   10.579000 H         1 <1>         0.028300 
     38 C          12.475000    5.725000   15.051000 C.3       1 <1>        -0.211000 
     39 H          12.172000    5.130000   15.918000 H         1 <1>         0.072700 
     40 H          11.632000    6.309000   14.671000 H         1 <1>         0.066500 
     41 H          13.195000    6.460000   15.415000 H         1 <1>         0.045700 
     42 N          10.126000    1.025000   11.173000 N.pl3     1 <1>        -0.806900 
     43 H          10.602000    0.503000   10.452000 H         1 <1>         0.377700 
     44 H           9.150000    0.853000   11.370000 H         1 <1>         0.372400 
@<TRIPOS>BOND
     1    1    2 ar   
     2    2    3 ar   
     3    3    4 ar   
     4    4    5 ar   
     5    5    6 ar   
     6    6    1 ar   
     7    6    7 1    
     8    7    8 1    
     9    7    9 1    
    10    5   10 ar   
    11   10   11 ar   
    12   11   12 ar   
    13   12   13 1    
    14   12   14 ar   
    15   14    4 ar   
    16   11   15 1    
    17   15   16 1    
    18   15   17 1    
    19   15   18 1    
    20   18   19 1    
    21   18   20 1    
    22   20   21 ar   
    23   21   22 1    
    24   21   23 ar   
    25   23   24 ar   
    26   24   25 1    
    27   24   26 ar   
    28   26   27 1    
    29   26   28 ar   
    30   28   20 ar   
    31   28   29 1    
    32   29   30 1    
    33   29   31 1    
    34   29   32 1    
    35   23   33 1    
    36   33   34 1    
    37   34   35 1    
    38   34   36 1    
    39   34   37 1    
    40   10   38 1    
    41   38   39 1    
    42   38   40 1    
    43   38   41 1    
    44    2   42 1    
    45   42   43 1    
    46   42   44 1    
@<TRIPOS>SUBSTRUCTURE
     1 ****        1 TEMP              0 ****  ****    0 ROOT 
@<TRIPOS>SET
UNITY_3DHIT     STATIC     ATOMS    <user>   **** Atoms matching 3D or FLEX Search
0
