#	Name:			9-13s
#	Creating user name:	jeff
#	Creation time:		Thu Dec  4 18:13:56 2003

#	Modifying user name:	jeff
#	Modification time:	Thu Dec  4 18:13:56 2003

@<TRIPOS>MOLECULE
9-13s
   44    46     1     0     1
SMALL
USER_CHARGES
****
From 3DB ct
@<TRIPOS>ATOM
      1 N          10.129000    2.658000   12.802000 N.ar      1 <1>        -0.710800 
      2 C          10.790000    1.992000   11.868000 C.ar      1 <1>         0.807600 
      3 N          12.075000    2.165000   11.601000 N.ar      1 <1>        -0.701200 
      4 C          12.747000    3.059000   12.306000 C.ar      1 <1>         0.843200 
      5 C          12.183000    3.838000   13.323000 C.ar      1 <1>        -0.869200 
      6 C          10.810000    3.566000   13.519000 C.ar      1 <1>         0.819100 
      7 N          10.031000    4.207000   14.472000 N.pl3     1 <1>        -0.750300 
      8 H          10.302000    4.029000   15.436000 H         1 <1>         0.320800 
      9 H           9.902000    5.204000   14.318000 H         1 <1>         0.323700 
     10 C          13.047000    4.779000   14.011000 C.ar      1 <1>         0.515700 
     11 C          14.403000    4.863000   13.639000 C.ar      1 <1>        -0.464600 
     12 C          14.822000    4.037000   12.610000 C.ar      1 <1>         0.413800 
     13 H          15.853000    4.057000   12.258000 H         1 <1>         0.077000 
     14 N          14.027000    3.158000   11.961000 N.ar      1 <1>        -0.598900 
     15 C          15.414000    5.797000   14.263000 C.3       1 <1>         0.106100 
     16 H          15.981000    5.267000   15.039000 H         1 <1>         0.073300 
     17 H          14.890000    6.615000   14.771000 H         1 <1>         0.067400 
     18 N          16.327000    6.296000   13.248000 N.pl3     1 <1>        -0.596900 
     19 H          17.303000    6.020000   13.331000 H         1 <1>         0.334800 
     20 C          15.962000    7.119000   12.201000 C.ar      1 <1>         0.344700 
     21 C          14.648000    7.605000   12.157000 C.ar      1 <1>        -0.171800 
     22 H          13.946000    7.319000   12.942000 H         1 <1>         0.118600 
     23 C          14.206000    8.453000   11.130000 C.ar      1 <1>        -0.245400 
     24 C          15.105000    8.805000   10.116000 C.ar      1 <1>        -0.260900 
     25 H          14.778000    9.452000    9.302000 H         1 <1>         0.154300 
     26 C          16.419000    8.337000   10.134000 C.ar      1 <1>         0.397400 
     27 C          16.839000    7.501000   11.176000 C.ar      1 <1>        -0.370700 
     28 H          17.860000    7.134000   11.195000 H         1 <1>         0.135000 
     29 O          17.189000    8.763000    9.086000 O.3       1 <1>        -0.308200 
     30 C          18.543000    8.315000    9.053000 C.3       1 <1>         0.047700 
     31 H          19.012000    8.739000    8.160000 H         1 <1>         0.067400 
     32 H          18.594000    7.224000    8.971000 H         1 <1>         0.035000 
     33 H          19.097000    8.675000    9.925000 H         1 <1>         0.031200 
     34 C          12.782000    8.940000   11.098000 C.3       1 <1>         1.110100 
     35 F          12.629000   10.150000   10.478000 F         1 <1>        -0.333500 
     36 F          12.230000    9.102000   12.340000 F         1 <1>        -0.345900 
     37 F          11.945000    8.084000   10.437000 F         1 <1>        -0.335000 
     38 C          12.510000    5.662000   15.111000 C.3       1 <1>        -0.236600 
     39 H          13.258000    6.335000   15.535000 H         1 <1>         0.050700 
     40 H          12.146000    5.051000   15.943000 H         1 <1>         0.077200 
     41 H          11.713000    6.304000   14.726000 H         1 <1>         0.080000 
     42 N          10.105000    1.070000   11.137000 N.pl3     1 <1>        -0.802700 
     43 H          10.580000    0.545000   10.418000 H         1 <1>         0.378300 
     44 H           9.124000    0.917000   11.319000 H         1 <1>         0.372600 
@<TRIPOS>BOND
     1    1    2 ar   
     2    2    3 ar   
     3    3    4 ar   
     4    4    5 ar   
     5    5    6 ar   
     6    6    1 ar   
     7    6    7 1    
     8    7    8 1    
     9    7    9 1    
    10    5   10 ar   
    11   10   11 ar   
    12   11   12 ar   
    13   12   13 1    
    14   12   14 ar   
    15   14    4 ar   
    16   11   15 1    
    17   15   16 1    
    18   15   17 1    
    19   15   18 1    
    20   18   19 1    
    21   18   20 1    
    22   20   21 ar   
    23   21   22 1    
    24   21   23 ar   
    25   23   24 ar   
    26   24   25 1    
    27   24   26 ar   
    28   26   27 ar   
    29   27   28 1    
    30   27   20 ar   
    31   26   29 1    
    32   29   30 1    
    33   30   31 1    
    34   30   32 1    
    35   30   33 1    
    36   23   34 1    
    37   34   35 1    
    38   34   36 1    
    39   34   37 1    
    40   10   38 1    
    41   38   39 1    
    42   38   40 1    
    43   38   41 1    
    44    2   42 1    
    45   42   43 1    
    46   42   44 1    
@<TRIPOS>SUBSTRUCTURE
     1 ****        1 TEMP              0 ****  ****    0 ROOT 
@<TRIPOS>SET
UNITY_3DHIT     STATIC     ATOMS    <user>   **** Atoms matching 3D or FLEX Search
0
