#	Name:			9-13m
#	Creating user name:	jeff
#	Creation time:		Thu Dec  4 18:13:56 2003

#	Modifying user name:	jeff
#	Modification time:	Thu Dec  4 18:13:56 2003

@<TRIPOS>MOLECULE
9-13m
   44    46     1     0     1
SMALL
USER_CHARGES
****
From 3DB ct
@<TRIPOS>ATOM
      1 N          10.119000    2.645000   12.805000 N.ar      1 <1>        -0.708100 
      2 C          10.784000    1.964000   11.884000 C.ar      1 <1>         0.797700 
      3 N          12.066000    2.144000   11.610000 N.ar      1 <1>        -0.696800 
      4 C          12.733000    3.054000   12.298000 C.ar      1 <1>         0.825800 
      5 C          12.169000    3.839000   13.309000 C.ar      1 <1>        -0.838000 
      6 C          10.795000    3.573000   13.502000 C.ar      1 <1>         0.809100 
      7 N          10.009000    4.238000   14.431000 N.pl3     1 <1>        -0.752200 
      8 H          10.223000    4.029000   15.402000 H         1 <1>         0.318900 
      9 H           9.937000    5.243000   14.291000 H         1 <1>         0.325400 
     10 C          13.034000    4.786000   13.989000 C.ar      1 <1>         0.449500 
     11 C          14.369000    4.940000   13.558000 C.ar      1 <1>        -0.386400 
     12 C          14.793000    4.078000   12.560000 C.ar      1 <1>         0.379500 
     13 H          15.821000    4.092000   12.201000 H         1 <1>         0.094400 
     14 N          14.009000    3.161000   11.946000 N.ar      1 <1>        -0.590100 
     15 C          15.338000    5.926000   14.181000 C.3       1 <1>         0.091900 
     16 H          15.736000    5.474000   15.095000 H         1 <1>         0.063400 
     17 H          14.806000    6.845000   14.452000 H         1 <1>         0.071600 
     18 N          16.399000    6.312000   13.252000 N.pl3     1 <1>        -0.466300 
     19 H          16.936000    5.506000   12.920000 H         1 <1>         0.281900 
     20 C          16.043000    7.173000   12.197000 C.ar      1 <1>        -0.016400 
     21 C          17.009000    7.472000   11.200000 C.ar      1 <1>         0.171500 
     22 C          16.663000    8.263000   10.101000 C.ar      1 <1>        -0.181000 
     23 H          17.376000    8.511000    9.320000 H         1 <1>         0.126600 
     24 C          15.365000    8.753000    9.974000 C.ar      1 <1>        -0.142400 
     25 H          15.097000    9.363000    9.113000 H         1 <1>         0.120600 
     26 C          14.410000    8.469000   10.948000 C.ar      1 <1>        -0.202300 
     27 H          13.403000    8.867000   10.830000 H         1 <1>         0.135600 
     28 C          14.738000    7.692000   12.071000 C.ar      1 <1>         0.129500 
     29 C          13.664000    7.446000   13.098000 C.3       1 <1>        -0.198600 
     30 H          13.090000    6.552000   12.838000 H         1 <1>         0.059500 
     31 H          12.976000    8.297000   13.150000 H         1 <1>         0.049700 
     32 H          14.087000    7.327000   14.101000 H         1 <1>         0.063300 
     33 O          18.256000    6.929000   11.411000 O.3       1 <1>        -0.244400 
     34 C          19.275000    7.259000   10.470000 C.3       1 <1>        -0.024200 
     35 H          20.194000    6.755000   10.785000 H         1 <1>         0.068700 
     36 H          19.471000    8.336000   10.463000 H         1 <1>         0.044400 
     37 H          19.020000    6.893000    9.470000 H         1 <1>         0.052000 
     38 C          12.519000    5.608000   15.147000 C.3       1 <1>        -0.213500 
     39 H          12.042000    4.964000   15.890000 H         1 <1>         0.075900 
     40 H          11.819000    6.369000   14.791000 H         1 <1>         0.060700 
     41 H          13.312000    6.120000   15.698000 H         1 <1>         0.048300 
     42 N          10.105000    1.022000   11.175000 N.pl3     1 <1>        -0.801800 
     43 H          10.582000    0.485000   10.466000 H         1 <1>         0.376600 
     44 H           9.126000    0.864000   11.363000 H         1 <1>         0.370800 
@<TRIPOS>BOND
     1    1    2 ar   
     2    2    3 ar   
     3    3    4 ar   
     4    4    5 ar   
     5    5    6 ar   
     6    6    1 ar   
     7    6    7 1    
     8    7    8 1    
     9    7    9 1    
    10    5   10 ar   
    11   10   11 ar   
    12   11   12 ar   
    13   12   13 1    
    14   12   14 ar   
    15   14    4 ar   
    16   11   15 1    
    17   15   16 1    
    18   15   17 1    
    19   15   18 1    
    20   18   19 1    
    21   18   20 1    
    22   20   21 ar   
    23   21   22 ar   
    24   22   23 1    
    25   22   24 ar   
    26   24   25 1    
    27   24   26 ar   
    28   26   27 1    
    29   26   28 ar   
    30   28   20 ar   
    31   28   29 1    
    32   29   30 1    
    33   29   31 1    
    34   29   32 1    
    35   21   33 1    
    36   33   34 1    
    37   34   35 1    
    38   34   36 1    
    39   34   37 1    
    40   10   38 1    
    41   38   39 1    
    42   38   40 1    
    43   38   41 1    
    44    2   42 1    
    45   42   43 1    
    46   42   44 1    
@<TRIPOS>SUBSTRUCTURE
     1 ****        1 TEMP              0 ****  ****    0 ROOT 
@<TRIPOS>SET
UNITY_3DHIT     STATIC     ATOMS    <user>   **** Atoms matching 3D or FLEX Search
0
