#	Name:			9-13h
#	Creating user name:	jeff
#	Creation time:		Thu Dec  4 18:13:56 2003

#	Modifying user name:	jeff
#	Modification time:	Thu Dec  4 18:13:56 2003

@<TRIPOS>MOLECULE
9-13h
   44    46     1     0     1
SMALL
USER_CHARGES
****
From 3DB ct
@<TRIPOS>ATOM
      1 N          10.101000    2.572000   12.770000 N.ar      1 <1>        -0.705700 
      2 C          10.816000    1.936000   11.854000 C.ar      1 <1>         0.796600 
      3 N          12.096000    2.175000   11.615000 N.ar      1 <1>        -0.688900 
      4 C          12.707000    3.103000   12.332000 C.ar      1 <1>         0.813900 
      5 C          12.082000    3.854000   13.335000 C.ar      1 <1>        -0.820900 
      6 C          10.720000    3.515000   13.498000 C.ar      1 <1>         0.802400 
      7 N           9.886000    4.122000   14.426000 N.pl3     1 <1>        -0.746100 
      8 H          10.131000    3.953000   15.398000 H         1 <1>         0.319200 
      9 H           9.721000    5.114000   14.269000 H         1 <1>         0.320600 
     10 C          12.884000    4.837000   14.040000 C.ar      1 <1>         0.449400 
     11 C          14.237000    5.002000   13.685000 C.ar      1 <1>        -0.444500 
     12 C          14.721000    4.184000   12.677000 C.ar      1 <1>         0.454200 
     13 H          15.761000    4.246000   12.356000 H         1 <1>         0.061100 
     14 N          13.987000    3.264000   12.015000 N.ar      1 <1>        -0.599700 
     15 C          15.194000    5.975000   14.331000 C.3       1 <1>        -0.078000 
     16 H          15.377000    5.702000   15.375000 H         1 <1>         0.117800 
     17 H          14.742000    6.974000   14.360000 H         1 <1>         0.050000 
     18 S          16.768000    6.069000   13.400000 S.3       1 <1>        -0.041600 
     19 C          16.252000    7.102000   12.039000 C.ar      1 <1>        -0.145700 
     20 C          14.957000    7.614000   11.970000 C.ar      1 <1>        -0.006500 
     21 H          14.228000    7.399000   12.749000 H         1 <1>         0.121700 
     22 C          14.565000    8.406000   10.886000 C.ar      1 <1>        -0.298200 
     23 H          13.546000    8.782000   10.880000 H         1 <1>         0.152500 
     24 C          15.466000    8.688000    9.856000 C.ar      1 <1>         0.273700 
     25 C          16.774000    8.164000    9.915000 C.ar      1 <1>         0.080100 
     26 C          17.155000    7.370000   11.004000 C.ar      1 <1>        -0.128000 
     27 H          18.156000    6.951000   11.070000 H         1 <1>         0.149000 
     28 O          17.596000    8.485000    8.861000 O.3       1 <1>        -0.221500 
     29 C          18.927000    7.973000    8.887000 C.3       1 <1>        -0.027300 
     30 H          19.437000    8.329000    7.987000 H         1 <1>         0.069300 
     31 H          18.927000    6.878000    8.859000 H         1 <1>         0.052000 
     32 H          19.477000    8.351000    9.754000 H         1 <1>         0.054800 
     33 O          15.173000    9.454000    8.754000 O.3       1 <1>        -0.287200 
     34 C          16.211000    9.642000    7.794000 C.3       1 <1>         0.033500 
     35 H          15.812000   10.272000    6.993000 H         1 <1>         0.057000 
     36 H          16.514000    8.689000    7.349000 H         1 <1>         0.038800 
     37 H          17.065000   10.166000    8.236000 H         1 <1>         0.036000 
     38 C          12.281000    5.673000   15.143000 C.3       1 <1>        -0.188900 
     39 H          11.909000    5.029000   15.946000 H         1 <1>         0.067800 
     40 H          11.476000    6.298000   14.747000 H         1 <1>         0.063800 
     41 H          12.990000    6.355000   15.616000 H         1 <1>         0.046000 
     42 N          10.196000    0.979000   11.113000 N.pl3     1 <1>        -0.801200 
     43 H          10.713000    0.475000   10.408000 H         1 <1>         0.376900 
     44 H           9.220000    0.776000   11.275000 H         1 <1>         0.371900 
@<TRIPOS>BOND
     1    1    2 ar   
     2    2    3 ar   
     3    3    4 ar   
     4    4    5 ar   
     5    5    6 ar   
     6    6    1 ar   
     7    6    7 1    
     8    7    8 1    
     9    7    9 1    
    10    5   10 ar   
    11   10   11 ar   
    12   11   12 ar   
    13   12   13 1    
    14   12   14 ar   
    15   14    4 ar   
    16   11   15 1    
    17   15   16 1    
    18   15   17 1    
    19   15   18 1    
    20   18   19 1    
    21   19   20 ar   
    22   20   21 1    
    23   20   22 ar   
    24   22   23 1    
    25   22   24 ar   
    26   24   25 ar   
    27   25   26 ar   
    28   26   27 1    
    29   26   19 ar   
    30   25   28 1    
    31   28   29 1    
    32   29   30 1    
    33   29   31 1    
    34   29   32 1    
    35   24   33 1    
    36   33   34 1    
    37   34   35 1    
    38   34   36 1    
    39   34   37 1    
    40   10   38 1    
    41   38   39 1    
    42   38   40 1    
    43   38   41 1    
    44    2   42 1    
    45   42   43 1    
    46   42   44 1    
@<TRIPOS>SUBSTRUCTURE
     1 ****        1 TEMP              0 ****  ****    0 ROOT 
@<TRIPOS>SET
UNITY_3DHIT     STATIC     ATOMS    <user>   **** Atoms matching 3D or FLEX Search
0
