#	Name:			9-13e
#	Creating user name:	jeff
#	Creation time:		Thu Dec  4 18:13:55 2003

#	Modifying user name:	jeff
#	Modification time:	Thu Dec  4 18:13:55 2003

@<TRIPOS>MOLECULE
9-13e
   39    41     1     0     1
SMALL
USER_CHARGES
****
From 3DB ct
@<TRIPOS>ATOM
      1 N          10.103000    2.592000   12.772000 N.ar      1 <1>        -0.708400 
      2 C          10.808000    1.949000   11.854000 C.ar      1 <1>         0.809900 
      3 N          12.091000    2.172000   11.613000 N.ar      1 <1>        -0.697900 
      4 C          12.714000    3.090000   12.330000 C.ar      1 <1>         0.818700 
      5 C          12.101000    3.847000   13.336000 C.ar      1 <1>        -0.826200 
      6 C          10.735000    3.526000   13.501000 C.ar      1 <1>         0.799100 
      7 N           9.910000    4.142000   14.431000 N.pl3     1 <1>        -0.738800 
      8 H          10.154000    3.967000   15.402000 H         1 <1>         0.317600 
      9 H           9.758000    5.136000   14.276000 H         1 <1>         0.315600 
     10 C          12.916000    4.819000   14.042000 C.ar      1 <1>         0.460200 
     11 C          14.270000    4.970000   13.681000 C.ar      1 <1>        -0.411600 
     12 C          14.742000    4.147000   12.671000 C.ar      1 <1>         0.399300 
     13 H          15.782000    4.197000   12.348000 H         1 <1>         0.071000 
     14 N          13.995000    3.237000   12.011000 N.ar      1 <1>        -0.581600 
     15 C          15.240000    5.933000   14.325000 C.3       1 <1>        -0.067000 
     16 H          15.454000    5.634000   15.356000 H         1 <1>         0.111800 
     17 H          14.781000    6.926000   14.392000 H         1 <1>         0.042800 
     18 S          16.784000    6.065000   13.350000 S.3       1 <1>        -0.060800 
     19 C          16.225000    7.123000   12.027000 C.ar      1 <1>        -0.034400 
     20 C          17.073000    7.514000   10.988000 C.ar      1 <1>        -0.041700 
     21 H          18.108000    7.179000   10.954000 H         1 <1>         0.113300 
     22 C          16.607000    8.356000    9.973000 C.ar      1 <1>        -0.222800 
     23 H          17.284000    8.640000    9.167000 H         1 <1>         0.139400 
     24 C          15.292000    8.833000    9.993000 C.ar      1 <1>         0.162900 
     25 C          14.444000    8.439000   11.034000 C.ar      1 <1>        -0.174200 
     26 H          13.412000    8.786000   11.065000 H         1 <1>         0.123600 
     27 C          14.911000    7.598000   12.048000 C.ar      1 <1>        -0.144100 
     28 H          14.231000    7.314000   12.850000 H         1 <1>         0.133500 
     29 C          14.782000    9.710000    8.887000 C.3       1 <1>        -0.225300 
     30 H          14.352000    9.095000    8.091000 H         1 <1>         0.070400 
     31 H          15.590000   10.319000    8.467000 H         1 <1>         0.064000 
     32 H          14.015000   10.398000    9.258000 H         1 <1>         0.059400 
     33 C          12.327000    5.658000   15.150000 C.3       1 <1>        -0.214800 
     34 H          11.947000    5.016000   15.949000 H         1 <1>         0.068800 
     35 H          11.532000    6.298000   14.758000 H         1 <1>         0.073300 
     36 H          13.047000    6.325000   15.626000 H         1 <1>         0.053900 
     37 N          10.175000    1.001000   11.112000 N.pl3     1 <1>        -0.816500 
     38 H          10.684000    0.492000   10.405000 H         1 <1>         0.381600 
     39 H           9.197000    0.809000   11.276000 H         1 <1>         0.376500 
@<TRIPOS>BOND
     1    1    2 ar   
     2    2    3 ar   
     3    3    4 ar   
     4    4    5 ar   
     5    5    6 ar   
     6    6    1 ar   
     7    6    7 1    
     8    7    8 1    
     9    7    9 1    
    10    5   10 ar   
    11   10   11 ar   
    12   11   12 ar   
    13   12   13 1    
    14   12   14 ar   
    15   14    4 ar   
    16   11   15 1    
    17   15   16 1    
    18   15   17 1    
    19   15   18 1    
    20   18   19 1    
    21   19   20 ar   
    22   20   21 1    
    23   20   22 ar   
    24   22   23 1    
    25   22   24 ar   
    26   24   25 ar   
    27   25   26 1    
    28   25   27 ar   
    29   27   28 1    
    30   27   19 ar   
    31   24   29 1    
    32   29   30 1    
    33   29   31 1    
    34   29   32 1    
    35   10   33 1    
    36   33   34 1    
    37   33   35 1    
    38   33   36 1    
    39    2   37 1    
    40   37   38 1    
    41   37   39 1    
@<TRIPOS>SUBSTRUCTURE
     1 ****        1 TEMP              0 ****  ****    0 ROOT 
@<TRIPOS>SET
UNITY_3DHIT     STATIC     ATOMS    <user>   **** Atoms matching 3D or FLEX Search
0
