#	Name:			9-14b
#	Creating user name:	jeff
#	Creation time:		Thu Dec  4 18:13:56 2003

#	Modifying user name:	jeff
#	Modification time:	Thu Dec  4 18:13:57 2003

@<TRIPOS>MOLECULE
9-14b
   44    46     1     0     1
SMALL
USER_CHARGES
****
From 3DB ct
@<TRIPOS>ATOM
      1 N          10.130000    2.620000   12.813000 N.ar      1 <1>        -0.715400 
      2 C          10.802000    1.964000   11.879000 C.ar      1 <1>         0.811400 
      3 N          12.080000    2.168000   11.603000 N.ar      1 <1>        -0.702500 
      4 C          12.734000    3.084000   12.296000 C.ar      1 <1>         0.836100 
      5 C          12.155000    3.859000   13.309000 C.ar      1 <1>        -0.872200 
      6 C          10.793000    3.549000   13.520000 C.ar      1 <1>         0.822100 
      7 N          10.004000    4.175000   14.474000 N.pl3     1 <1>        -0.751700 
      8 H          10.299000    4.027000   15.437000 H         1 <1>         0.319500 
      9 H           9.829000    5.162000   14.305000 H         1 <1>         0.322400 
     10 C          12.998000    4.830000   13.980000 C.ar      1 <1>         0.495600 
     11 C          14.354000    4.934000   13.611000 C.ar      1 <1>        -0.418200 
     12 C          14.786000    4.110000   12.584000 C.ar      1 <1>         0.407800 
     13 H          15.816000    4.152000   12.230000 H         1 <1>         0.079100 
     14 N          14.009000    3.210000   11.944000 N.ar      1 <1>        -0.593900 
     15 C          15.352000    5.888000   14.225000 C.3       1 <1>         0.007300 
     16 H          15.800000    5.415000   15.105000 H         1 <1>         0.082800 
     17 H          14.841000    6.782000   14.603000 H         1 <1>         0.079800 
     18 N          16.369000    6.236000   13.239000 N.pl3     1 <1>        -0.438300 
     19 H          16.967000    5.457000   12.964000 H         1 <1>         0.298100 
     20 C          16.029000    7.112000   12.210000 C.ar      1 <1>         0.047500 
     21 C          14.713000    7.601000   12.168000 C.ar      1 <1>        -0.059700 
     22 H          13.982000    7.256000   12.899000 H         1 <1>         0.107100 
     23 C          14.307000    8.546000   11.218000 C.ar      1 <1>        -0.277800 
     24 H          13.275000    8.882000   11.245000 H         1 <1>         0.151000 
     25 C          15.220000    9.030000   10.289000 C.ar      1 <1>         0.276900 
     26 C          16.532000    8.552000   10.318000 C.ar      1 <1>        -0.259300 
     27 H          17.246000    8.929000    9.586000 H         1 <1>         0.143500 
     28 C          16.947000    7.588000   11.259000 C.ar      1 <1>         0.045000 
     29 C          18.371000    7.106000   11.186000 C.3       1 <1>        -0.194600 
     30 H          18.732000    7.117000   10.152000 H         1 <1>         0.061200 
     31 H          18.463000    6.073000   11.536000 H         1 <1>         0.060600 
     32 H          19.019000    7.753000   11.785000 H         1 <1>         0.050400 
     33 O          14.965000    9.956000    9.316000 O.3       1 <1>        -0.296800 
     34 C          16.056000   10.311000    8.467000 C.3       1 <1>         0.046000 
     35 H          15.691000   11.053000    7.751000 H         1 <1>         0.058100 
     36 H          16.410000    9.444000    7.899000 H         1 <1>         0.029900 
     37 H          16.867000   10.770000    9.041000 H         1 <1>         0.027500 
     38 C          12.440000    5.720000   15.065000 C.3       1 <1>        -0.219600 
     39 H          12.133000    5.121000   15.927000 H         1 <1>         0.073600 
     40 H          11.598000    6.303000   14.681000 H         1 <1>         0.065900 
     41 H          13.156000    6.456000   15.436000 H         1 <1>         0.051100 
     42 N          10.136000    1.020000   11.160000 N.pl3     1 <1>        -0.809300 
     43 H          10.619000    0.502000   10.441000 H         1 <1>         0.379000 
     44 H           9.160000    0.843000   11.350000 H         1 <1>         0.373200 
@<TRIPOS>BOND
     1    1    2 ar   
     2    2    3 ar   
     3    3    4 ar   
     4    4    5 ar   
     5    5    6 ar   
     6    6    1 ar   
     7    6    7 1    
     8    7    8 1    
     9    7    9 1    
    10    5   10 ar   
    11   10   11 ar   
    12   11   12 ar   
    13   12   13 1    
    14   12   14 ar   
    15   14    4 ar   
    16   11   15 1    
    17   15   16 1    
    18   15   17 1    
    19   15   18 1    
    20   18   19 1    
    21   18   20 1    
    22   20   21 ar   
    23   21   22 1    
    24   21   23 ar   
    25   23   24 1    
    26   23   25 ar   
    27   25   26 ar   
    28   26   27 1    
    29   26   28 ar   
    30   28   20 ar   
    31   28   29 1    
    32   29   30 1    
    33   29   31 1    
    34   29   32 1    
    35   25   33 1    
    36   33   34 1    
    37   34   35 1    
    38   34   36 1    
    39   34   37 1    
    40   10   38 1    
    41   38   39 1    
    42   38   40 1    
    43   38   41 1    
    44    2   42 1    
    45   42   43 1    
    46   42   44 1    
@<TRIPOS>SUBSTRUCTURE
     1 ****        1 TEMP              0 ****  ****    0 ROOT 
@<TRIPOS>SET
UNITY_3DHIT     STATIC     ATOMS    <user>   **** Atoms matching 3D or FLEX Search
0
