#	Name:			9-14h
#	Creating user name:	jeff
#	Creation time:		Thu Dec  4 18:13:57 2003

#	Modifying user name:	jeff
#	Modification time:	Thu Dec  4 18:13:57 2003

@<TRIPOS>MOLECULE
9-14h
   48    50     1     0     1
SMALL
USER_CHARGES
****
From 3DB ct
@<TRIPOS>ATOM
      1 N          10.109000    2.640000   12.779000 N.ar      1 <1>        -0.716900 
      2 C          10.789000    1.973000   11.860000 C.ar      1 <1>         0.815800 
      3 N          12.076000    2.159000   11.609000 N.ar      1 <1>        -0.705900 
      4 C          12.730000    3.061000   12.320000 C.ar      1 <1>         0.847900 
      5 C          12.147000    3.832000   13.333000 C.ar      1 <1>        -0.892300 
      6 C          10.771000    3.558000   13.501000 C.ar      1 <1>         0.826800 
      7 N           9.970000    4.204000   14.431000 N.pl3     1 <1>        -0.750500 
      8 H          10.182000    3.989000   15.402000 H         1 <1>         0.319600 
      9 H           9.885000    5.209000   14.299000 H         1 <1>         0.321500 
     10 C          12.997000    4.772000   14.039000 C.ar      1 <1>         0.519600 
     11 C          14.345000    4.908000   13.649000 C.ar      1 <1>        -0.420800 
     12 C          14.785000    4.077000   12.631000 C.ar      1 <1>         0.402900 
     13 H          15.816000    4.114000   12.282000 H         1 <1>         0.082200 
     14 N          14.011000    3.176000   11.987000 N.ar      1 <1>        -0.598500 
     15 C          15.339000    5.876000   14.262000 C.3       1 <1>        -0.076200 
     16 H          15.840000    5.421000   15.126000 H         1 <1>         0.109400 
     17 H          14.751000    6.712000   14.662000 H         1 <1>         0.084000 
     18 N          16.370000    6.322000   13.310000 N.pl3     1 <1>        -0.187300 
     19 C          16.057000    7.115000   12.211000 C.ar      1 <1>         0.142600 
     20 C          14.779000    7.674000   12.059000 C.ar      1 <1>        -0.185000 
     21 H          14.010000    7.512000   12.814000 H         1 <1>         0.115300 
     22 C          14.441000    8.478000   10.962000 C.ar      1 <1>        -0.152700 
     23 H          13.430000    8.876000   10.925000 H         1 <1>         0.137000 
     24 C          15.382000    8.747000    9.972000 C.ar      1 <1>         0.152000 
     25 C          16.672000    8.203000   10.090000 C.ar      1 <1>         0.115000 
     26 C          16.991000    7.399000   11.198000 C.ar      1 <1>        -0.247200 
     27 H          17.978000    6.953000   11.263000 H         1 <1>         0.127900 
     28 O          17.544000    8.506000    9.071000 O.3       1 <1>        -0.226200 
     29 C          18.853000    7.945000    9.134000 C.3       1 <1>        -0.040700 
     30 H          19.413000    8.311000    8.269000 H         1 <1>         0.069400 
     31 H          18.815000    6.853000    9.068000 H         1 <1>         0.060600 
     32 H          19.380000    8.273000   10.036000 H         1 <1>         0.054700 
     33 O          15.148000    9.520000    8.862000 O.3       1 <1>        -0.296900 
     34 C          16.216000    9.662000    7.928000 C.3       1 <1>         0.090300 
     35 H          15.865000   10.307000    7.117000 H         1 <1>         0.032600 
     36 H          16.487000    8.695000    7.491000 H         1 <1>         0.032500 
     37 H          17.081000   10.148000    8.390000 H         1 <1>         0.024100 
     38 C          17.780000    6.084000   13.633000 C.3       1 <1>        -0.098300 
     39 H          18.174000    5.254000   13.038000 H         1 <1>         0.064000 
     40 H          17.916000    5.839000   14.691000 H         1 <1>         0.079400 
     41 H          18.388000    6.977000   13.449000 H         1 <1>         0.055400 
     42 C          12.453000    5.608000   15.171000 C.3       1 <1>        -0.219700 
     43 H          11.985000    4.970000   15.926000 H         1 <1>         0.071100 
     44 H          11.737000    6.343000   14.790000 H         1 <1>         0.066600 
     45 H          13.225000    6.160000   15.711000 H         1 <1>         0.053100 
     46 N          10.125000    1.039000   11.127000 N.pl3     1 <1>        -0.812700 
     47 H          10.616000    0.512000   10.419000 H         1 <1>         0.380100 
     48 H           9.144000    0.875000   11.297000 H         1 <1>         0.374300 
@<TRIPOS>BOND
     1    1    2 ar   
     2    2    3 ar   
     3    3    4 ar   
     4    4    5 ar   
     5    5    6 ar   
     6    6    1 ar   
     7    6    7 1    
     8    7    8 1    
     9    7    9 1    
    10    5   10 ar   
    11   10   11 ar   
    12   11   12 ar   
    13   12   13 1    
    14   12   14 ar   
    15   14    4 ar   
    16   11   15 1    
    17   15   16 1    
    18   15   17 1    
    19   15   18 1    
    20   18   19 1    
    21   19   20 ar   
    22   20   21 1    
    23   20   22 ar   
    24   22   23 1    
    25   22   24 ar   
    26   24   25 ar   
    27   25   26 ar   
    28   26   27 1    
    29   26   19 ar   
    30   25   28 1    
    31   28   29 1    
    32   29   30 1    
    33   29   31 1    
    34   29   32 1    
    35   24   33 1    
    36   33   34 1    
    37   34   35 1    
    38   34   36 1    
    39   34   37 1    
    40   18   38 1    
    41   38   39 1    
    42   38   40 1    
    43   38   41 1    
    44   10   42 1    
    45   42   43 1    
    46   42   44 1    
    47   42   45 1    
    48    2   46 1    
    49   46   47 1    
    50   46   48 1    
@<TRIPOS>SUBSTRUCTURE
     1 ****        1 TEMP              0 ****  ****    0 ROOT 
@<TRIPOS>SET
UNITY_3DHIT     STATIC     ATOMS    <user>   **** Atoms matching 3D or FLEX Search
0
