#	Name:			9-14k
#	Creating user name:	jeff
#	Creation time:		Thu Dec  4 18:13:57 2003

#	Modifying user name:	jeff
#	Modification time:	Thu Dec  4 18:13:57 2003

@<TRIPOS>MOLECULE
9-14k
   47    49     1     0     1
SMALL
USER_CHARGES
****
From 3DB ct
@<TRIPOS>ATOM
      1 N          10.120000    2.620000   12.794000 N.ar      1 <1>        -0.711800 
      2 C          10.805000    1.959000   11.873000 C.ar      1 <1>         0.810500 
      3 N          12.086000    2.162000   11.612000 N.ar      1 <1>        -0.699000 
      4 C          12.731000    3.080000   12.312000 C.ar      1 <1>         0.815000 
      5 C          12.143000    3.849000   13.323000 C.ar      1 <1>        -0.826900 
      6 C          10.773000    3.553000   13.504000 C.ar      1 <1>         0.808500 
      7 N           9.968000    4.192000   14.436000 N.pl3     1 <1>        -0.747800 
      8 H          10.195000    3.992000   15.407000 H         1 <1>         0.321100 
      9 H           9.862000    5.194000   14.295000 H         1 <1>         0.323200 
     10 C          12.982000    4.811000   14.013000 C.ar      1 <1>         0.455000 
     11 C          14.325000    4.963000   13.613000 C.ar      1 <1>        -0.437000 
     12 C          14.771000    4.133000   12.598000 C.ar      1 <1>         0.418500 
     13 H          15.798000    4.186000   12.239000 H         1 <1>         0.057700 
     14 N          14.008000    3.213000   11.968000 N.ar      1 <1>        -0.585300 
     15 C          15.304000    5.959000   14.206000 C.3       1 <1>         0.088800 
     16 H          15.724000    5.566000   15.141000 H         1 <1>         0.082700 
     17 H          14.737000    6.858000   14.480000 H         1 <1>         0.029300 
     18 N          16.391000    6.262000   13.263000 N.pl3     1 <1>        -0.236500 
     19 C          16.112000    7.095000   12.168000 C.ar      1 <1>         0.019400 
     20 C          14.795000    7.582000   12.049000 C.ar      1 <1>        -0.056000 
     21 H          14.060000    7.303000   12.805000 H         1 <1>         0.119800 
     22 C          14.408000    8.431000   11.002000 C.ar      1 <1>        -0.371000 
     23 C          15.359000    8.778000   10.039000 C.ar      1 <1>        -0.005000 
     24 H          15.087000    9.427000    9.206000 H         1 <1>         0.118100 
     25 C          16.669000    8.297000   10.125000 C.ar      1 <1>        -0.236400 
     26 H          17.362000    8.595000    9.342000 H         1 <1>         0.136800 
     27 C          17.056000    7.455000   11.177000 C.ar      1 <1>         0.283800 
     28 O          18.313000    6.916000   11.298000 O.3       1 <1>        -0.266900 
     29 C          19.303000    7.327000   10.358000 C.3       1 <1>        -0.019000 
     30 H          20.233000    6.806000   10.606000 H         1 <1>         0.071500 
     31 H          19.494000    8.402000   10.433000 H         1 <1>         0.050200 
     32 H          19.023000    7.040000    9.339000 H         1 <1>         0.053000 
     33 C          12.987000    8.924000   10.908000 C.3       1 <1>         1.098700 
     34 F          12.851000   10.084000   10.195000 F         1 <1>        -0.336600 
     35 F          12.420000    9.184000   12.126000 F         1 <1>        -0.336300 
     36 F          12.155000    8.025000   10.302000 F         1 <1>        -0.336200 
     37 C          17.685000    5.743000   13.519000 C.3       1 <1>        -0.060500 
     38 H          17.855000    4.666000   13.406000 H         1 <1>         0.066300 
     39 H          18.099000    6.026000   14.491000 H         1 <1>         0.040300 
     40 H          18.250000    6.269000   12.742000 H         1 <1>         0.071300 
     41 C          12.430000    5.652000   15.138000 C.3       1 <1>        -0.215400 
     42 H          11.977000    5.016000   15.903000 H         1 <1>         0.071400 
     43 H          11.700000    6.369000   14.752000 H         1 <1>         0.075000 
     44 H          13.194000    6.224000   15.666000 H         1 <1>         0.053700 
     45 N          10.148000    1.012000   11.149000 N.pl3     1 <1>        -0.809700 
     46 H          10.638000    0.494000   10.435000 H         1 <1>         0.379000 
     47 H           9.168000    0.841000   11.324000 H         1 <1>         0.374600 
@<TRIPOS>BOND
     1    1    2 ar   
     2    2    3 ar   
     3    3    4 ar   
     4    4    5 ar   
     5    5    6 ar   
     6    6    1 ar   
     7    6    7 1    
     8    7    8 1    
     9    7    9 1    
    10    5   10 ar   
    11   10   11 ar   
    12   11   12 ar   
    13   12   13 1    
    14   12   14 ar   
    15   14    4 ar   
    16   11   15 1    
    17   15   16 1    
    18   15   17 1    
    19   15   18 1    
    20   18   19 1    
    21   19   20 ar   
    22   20   21 1    
    23   20   22 ar   
    24   22   23 ar   
    25   23   24 1    
    26   23   25 ar   
    27   25   26 1    
    28   25   27 ar   
    29   27   19 ar   
    30   27   28 1    
    31   28   29 1    
    32   29   30 1    
    33   29   31 1    
    34   29   32 1    
    35   22   33 1    
    36   33   34 1    
    37   33   35 1    
    38   33   36 1    
    39   18   37 1    
    40   37   38 1    
    41   37   39 1    
    42   37   40 1    
    43   10   41 1    
    44   41   42 1    
    45   41   43 1    
    46   41   44 1    
    47    2   45 1    
    48   45   46 1    
    49   45   47 1    
@<TRIPOS>SUBSTRUCTURE
     1 ****        1 TEMP              0 ****  ****    0 ROOT 
@<TRIPOS>SET
UNITY_3DHIT     STATIC     ATOMS    <user>   **** Atoms matching 3D or FLEX Search
0
