#	Name:			9-14m
#	Creating user name:	jeff
#	Creation time:		Thu Dec  4 18:13:57 2003

#	Modifying user name:	jeff
#	Modification time:	Thu Dec  4 18:13:57 2003

@<TRIPOS>MOLECULE
9-14m
   46    49     1     0     1
SMALL
USER_CHARGES
****
From 3DB ct
@<TRIPOS>ATOM
      1 N          10.122000    2.627000   12.802000 N.ar      1 <1>        -0.711700 
      2 C          10.798000    1.963000   11.876000 C.ar      1 <1>         0.813100 
      3 N          12.079000    2.160000   11.608000 N.ar      1 <1>        -0.706300 
      4 C          12.732000    3.074000   12.304000 C.ar      1 <1>         0.828300 
      5 C          12.154000    3.849000   13.316000 C.ar      1 <1>        -0.853500 
      6 C          10.784000    3.557000   13.509000 C.ar      1 <1>         0.806800 
      7 N           9.990000    4.197000   14.449000 N.pl3     1 <1>        -0.752500 
      8 H          10.238000    4.010000   15.418000 H         1 <1>         0.320900 
      9 H           9.870000    5.195000   14.300000 H         1 <1>         0.323300 
     10 C          13.000000    4.809000   13.998000 C.ar      1 <1>         0.501300 
     11 C          14.347000    4.942000   13.603000 C.ar      1 <1>        -0.444200 
     12 C          14.783000    4.106000   12.588000 C.ar      1 <1>         0.415400 
     13 H          15.811000    4.147000   12.231000 H         1 <1>         0.064000 
     14 N          14.009000    3.197000   11.957000 N.ar      1 <1>        -0.586300 
     15 C          15.338000    5.920000   14.200000 C.3       1 <1>         0.020800 
     16 H          15.778000    5.508000   15.118000 H         1 <1>         0.088400 
     17 H          14.781000    6.813000   14.515000 H         1 <1>         0.050800 
     18 N          16.407000    6.256000   13.246000 N.pl3     1 <1>        -0.260500 
     19 C          16.065000    7.110000   12.178000 C.ar      1 <1>         0.189400 
     20 C          14.766000    7.639000   12.080000 C.ar      1 <1>        -0.202900 
     21 H          14.011000    7.394000   12.824000 H         1 <1>         0.122700 
     22 C          14.416000    8.505000   11.047000 C.ar      1 <1>        -0.082100 
     23 H          13.406000    8.906000   10.991000 H         1 <1>         0.110800 
     24 C          15.362000    8.864000   10.091000 C.ar      1 <1>        -0.234200 
     25 H          15.066000    9.544000    9.292000 H         1 <1>         0.133400 
     26 C          16.669000    8.362000   10.152000 C.ar      1 <1>         0.186200 
     27 C          17.037000    7.477000   11.198000 C.ar      1 <1>        -0.076900 
     28 C          18.363000    6.987000   11.203000 C.ar      1 <1>        -0.069500 
     29 H          18.685000    6.295000   11.980000 H         1 <1>         0.100800 
     30 C          19.291000    7.360000   10.227000 C.ar      1 <1>        -0.147000 
     31 H          20.304000    6.965000   10.261000 H         1 <1>         0.114100 
     32 C          18.915000    8.233000    9.215000 C.ar      1 <1>        -0.045800 
     33 H          19.633000    8.528000    8.452000 H         1 <1>         0.098800 
     34 C          17.612000    8.730000    9.177000 C.ar      1 <1>        -0.231600 
     35 H          17.337000    9.411000    8.372000 H         1 <1>         0.128000 
     36 C          17.601000    6.094000   13.569000 C.3       1 <1>        -0.086000 
     37 H          18.297000    6.179000   12.728000 H         1 <1>         0.074100 
     38 H          17.749000    5.100000   14.002000 H         1 <1>         0.059100 
     39 H          17.876000    6.840000   14.323000 H         1 <1>         0.035300 
     40 C          12.454000    5.662000   15.117000 C.3       1 <1>        -0.228100 
     41 H          12.050000    5.031000   15.913000 H         1 <1>         0.075200 
     42 H          11.685000    6.341000   14.736000 H         1 <1>         0.064700 
     43 H          13.210000    6.285000   15.599000 H         1 <1>         0.053100 
     44 N          10.133000    1.019000   11.156000 N.pl3     1 <1>        -0.812600 
     45 H          10.618000    0.495000   10.444000 H         1 <1>         0.380000 
     46 H           9.155000    0.848000   11.340000 H         1 <1>         0.372900 
@<TRIPOS>BOND
     1    1    2 ar   
     2    2    3 ar   
     3    3    4 ar   
     4    4    5 ar   
     5    5    6 ar   
     6    6    1 ar   
     7    6    7 1    
     8    7    8 1    
     9    7    9 1    
    10    5   10 ar   
    11   10   11 ar   
    12   11   12 ar   
    13   12   13 1    
    14   12   14 ar   
    15   14    4 ar   
    16   11   15 1    
    17   15   16 1    
    18   15   17 1    
    19   15   18 1    
    20   18   19 1    
    21   19   20 ar   
    22   20   21 1    
    23   20   22 ar   
    24   22   23 1    
    25   22   24 ar   
    26   24   25 1    
    27   24   26 ar   
    28   26   27 ar   
    29   27   19 ar   
    30   27   28 ar   
    31   28   29 1    
    32   28   30 ar   
    33   30   31 1    
    34   30   32 ar   
    35   32   33 1    
    36   32   34 ar   
    37   34   35 1    
    38   34   26 ar   
    39   18   36 1    
    40   36   37 1    
    41   36   38 1    
    42   36   39 1    
    43   10   40 1    
    44   40   41 1    
    45   40   42 1    
    46   40   43 1    
    47    2   44 1    
    48   44   45 1    
    49   44   46 1    
@<TRIPOS>SUBSTRUCTURE
     1 ****        1 TEMP              0 ****  ****    0 ROOT 
@<TRIPOS>SET
UNITY_3DHIT     STATIC     ATOMS    <user>   **** Atoms matching 3D or FLEX Search
0
