#	Name:			9-14a
#	Creating user name:	jeff
#	Creation time:		Thu Dec  4 18:13:56 2003

#	Modifying user name:	jeff
#	Modification time:	Thu Dec  4 18:13:56 2003

@<TRIPOS>MOLECULE
9-14a
   43    45     1     0     1
SMALL
USER_CHARGES
****
From 3DB ct
@<TRIPOS>ATOM
      1 N          10.130000    2.622000   12.816000 N.ar      1 <1>        -0.713600 
      2 C          10.799000    1.964000   11.881000 C.ar      1 <1>         0.806900 
      3 N          12.077000    2.165000   11.602000 N.ar      1 <1>        -0.700800 
      4 C          12.734000    3.081000   12.294000 C.ar      1 <1>         0.831700 
      5 C          12.159000    3.857000   13.307000 C.ar      1 <1>        -0.859300 
      6 C          10.796000    3.551000   13.520000 C.ar      1 <1>         0.819200 
      7 N          10.011000    4.179000   14.476000 N.pl3     1 <1>        -0.754200 
      8 H          10.306000    4.030000   15.438000 H         1 <1>         0.320000 
      9 H           9.838000    5.166000   14.307000 H         1 <1>         0.323900 
     10 C          13.005000    4.828000   13.976000 C.ar      1 <1>         0.476900 
     11 C          14.360000    4.929000   13.604000 C.ar      1 <1>        -0.413500 
     12 C          14.789000    4.104000   12.578000 C.ar      1 <1>         0.410100 
     13 H          15.818000    4.144000   12.221000 H         1 <1>         0.077300 
     14 N          14.009000    3.205000   11.939000 N.ar      1 <1>        -0.593700 
     15 C          15.361000    5.882000   14.216000 C.3       1 <1>         0.033900 
     16 H          15.814000    5.408000   15.093000 H         1 <1>         0.076900 
     17 H          14.852000    6.775000   14.598000 H         1 <1>         0.079300 
     18 N          16.372000    6.233000   13.224000 N.pl3     1 <1>        -0.477000 
     19 H          16.957000    5.450000   12.932000 H         1 <1>         0.303800 
     20 C          16.021000    7.121000   12.207000 C.ar      1 <1>         0.177900 
     21 C          14.703000    7.611000   12.184000 C.ar      1 <1>        -0.284300 
     22 H          13.990000    7.253000   12.927000 H         1 <1>         0.143800 
     23 C          14.283000    8.561000   11.243000 C.ar      1 <1>         0.161100 
     24 C          15.210000    9.058000   10.328000 C.ar      1 <1>        -0.254600 
     25 H          14.919000    9.816000    9.601000 H         1 <1>         0.134800 
     26 C          16.522000    8.584000   10.333000 C.ar      1 <1>        -0.101500 
     27 H          17.226000    8.979000    9.601000 H         1 <1>         0.124800 
     28 C          16.937000    7.606000   11.256000 C.ar      1 <1>        -0.022500 
     29 C          18.360000    7.122000   11.172000 C.3       1 <1>        -0.186500 
     30 H          18.714000    7.138000   10.136000 H         1 <1>         0.061400 
     31 H          18.453000    6.088000   11.517000 H         1 <1>         0.055400 
     32 H          19.012000    7.765000   11.771000 H         1 <1>         0.045900 
     33 C          12.878000    9.087000   11.270000 C.3       1 <1>        -0.177000 
     34 H          12.810000    9.938000   11.956000 H         1 <1>         0.055200 
     35 H          12.178000    8.311000   11.597000 H         1 <1>         0.046200 
     36 H          12.562000    9.411000   10.273000 H         1 <1>         0.054700 
     37 C          12.450000    5.719000   15.061000 C.3       1 <1>        -0.210200 
     38 H          12.143000    5.121000   15.924000 H         1 <1>         0.073600 
     39 H          11.609000    6.304000   14.678000 H         1 <1>         0.062000 
     40 H          13.168000    6.453000   15.432000 H         1 <1>         0.047400 
     41 N          10.130000    1.021000   11.163000 N.pl3     1 <1>        -0.805600 
     42 H          10.611000    0.502000   10.444000 H         1 <1>         0.377800 
     43 H           9.155000    0.847000   11.355000 H         1 <1>         0.372400 
@<TRIPOS>BOND
     1    1    2 ar   
     2    2    3 ar   
     3    3    4 ar   
     4    4    5 ar   
     5    5    6 ar   
     6    6    1 ar   
     7    6    7 1    
     8    7    8 1    
     9    7    9 1    
    10    5   10 ar   
    11   10   11 ar   
    12   11   12 ar   
    13   12   13 1    
    14   12   14 ar   
    15   14    4 ar   
    16   11   15 1    
    17   15   16 1    
    18   15   17 1    
    19   15   18 1    
    20   18   19 1    
    21   18   20 1    
    22   20   21 ar   
    23   21   22 1    
    24   21   23 ar   
    25   23   24 ar   
    26   24   25 1    
    27   24   26 ar   
    28   26   27 1    
    29   26   28 ar   
    30   28   20 ar   
    31   28   29 1    
    32   29   30 1    
    33   29   31 1    
    34   29   32 1    
    35   23   33 1    
    36   33   34 1    
    37   33   35 1    
    38   33   36 1    
    39   10   37 1    
    40   37   38 1    
    41   37   39 1    
    42   37   40 1    
    43    2   41 1    
    44   41   42 1    
    45   41   43 1    
@<TRIPOS>SUBSTRUCTURE
     1 ****        1 TEMP              0 ****  ****    0 ROOT 
@<TRIPOS>SET
UNITY_3DHIT     STATIC     ATOMS    <user>   **** Atoms matching 3D or FLEX Search
0
