#	Name:			9-14c
#	Creating user name:	jeff
#	Creation time:		Thu Dec  4 18:13:57 2003

#	Modifying user name:	jeff
#	Modification time:	Thu Dec  4 18:13:57 2003

@<TRIPOS>MOLECULE
9-14c
   44    46     1     0     1
SMALL
USER_CHARGES
****
From 3DB ct
@<TRIPOS>ATOM
      1 N          10.123000    2.622000   12.801000 N.ar      1 <1>        -0.709900 
      2 C          10.799000    1.969000   11.869000 C.ar      1 <1>         0.800700 
      3 N          12.080000    2.169000   11.603000 N.ar      1 <1>        -0.699000 
      4 C          12.733000    3.079000   12.306000 C.ar      1 <1>         0.836700 
      5 C          12.149000    3.851000   13.319000 C.ar      1 <1>        -0.854800 
      6 C          10.783000    3.546000   13.516000 C.ar      1 <1>         0.812700 
      7 N           9.991000    4.168000   14.470000 N.pl3     1 <1>        -0.752600 
      8 H          10.271000    4.000000   15.433000 H         1 <1>         0.319700 
      9 H           9.834000    5.161000   14.315000 H         1 <1>         0.323600 
     10 C          12.990000    4.816000   14.001000 C.ar      1 <1>         0.475200 
     11 C          14.347000    4.924000   13.636000 C.ar      1 <1>        -0.431400 
     12 C          14.786000    4.100000   12.613000 C.ar      1 <1>         0.410500 
     13 H          15.818000    4.140000   12.265000 H         1 <1>         0.085700 
     14 N          14.011000    3.203000   11.965000 N.ar      1 <1>        -0.601000 
     15 C          15.338000    5.884000   14.259000 C.3       1 <1>         0.087000 
     16 H          15.838000    5.390000   15.102000 H         1 <1>         0.073500 
     17 H          14.795000    6.742000   14.669000 H         1 <1>         0.061300 
     18 N          16.321000    6.288000   13.270000 N.pl3     1 <1>        -0.465100 
     19 H          17.267000    5.939000   13.408000 H         1 <1>         0.287100 
     20 C          16.092000    7.101000   12.169000 C.ar      1 <1>         0.095400 
     21 C          14.788000    7.623000   12.036000 C.ar      1 <1>        -0.214800 
     22 H          14.038000    7.376000   12.788000 H         1 <1>         0.138200 
     23 C          14.414000    8.448000   10.966000 C.ar      1 <1>         0.116700 
     24 C          15.371000    8.788000   10.015000 C.ar      1 <1>        -0.231700 
     25 H          15.117000    9.443000    9.183000 H         1 <1>         0.139200 
     26 C          16.671000    8.288000   10.118000 C.ar      1 <1>        -0.148400 
     27 H          17.376000    8.583000    9.344000 H         1 <1>         0.121600 
     28 C          17.042000    7.446000   11.179000 C.ar      1 <1>         0.131600 
     29 O          18.308000    6.932000   11.314000 O.3       1 <1>        -0.253300 
     30 C          19.297000    7.325000   10.365000 C.3       1 <1>        -0.004900 
     31 H          20.226000    6.805000   10.620000 H         1 <1>         0.065100 
     32 H          19.491000    8.401000   10.423000 H         1 <1>         0.040500 
     33 H          19.014000    7.022000    9.352000 H         1 <1>         0.047900 
     34 C          13.022000    9.002000   10.883000 C.3       1 <1>        -0.182900 
     35 H          12.962000    9.947000   11.431000 H         1 <1>         0.057000 
     36 H          12.296000    8.300000   11.306000 H         1 <1>         0.047200 
     37 H          12.733000    9.177000    9.841000 H         1 <1>         0.057000 
     38 C          12.428000    5.699000   15.089000 C.3       1 <1>        -0.206400 
     39 H          12.092000    5.091000   15.933000 H         1 <1>         0.071700 
     40 H          11.606000    6.305000   14.698000 H         1 <1>         0.063200 
     41 H          13.152000    6.410000   15.492000 H         1 <1>         0.045600 
     42 N          10.135000    1.032000   11.139000 N.pl3     1 <1>        -0.804300 
     43 H          10.620000    0.517000   10.419000 H         1 <1>         0.377400 
     44 H           9.157000    0.858000   11.320000 H         1 <1>         0.371600 
@<TRIPOS>BOND
     1    1    2 ar   
     2    2    3 ar   
     3    3    4 ar   
     4    4    5 ar   
     5    5    6 ar   
     6    6    1 ar   
     7    6    7 1    
     8    7    8 1    
     9    7    9 1    
    10    5   10 ar   
    11   10   11 ar   
    12   11   12 ar   
    13   12   13 1    
    14   12   14 ar   
    15   14    4 ar   
    16   11   15 1    
    17   15   16 1    
    18   15   17 1    
    19   15   18 1    
    20   18   19 1    
    21   18   20 1    
    22   20   21 ar   
    23   21   22 1    
    24   21   23 ar   
    25   23   24 ar   
    26   24   25 1    
    27   24   26 ar   
    28   26   27 1    
    29   26   28 ar   
    30   28   20 ar   
    31   28   29 1    
    32   29   30 1    
    33   30   31 1    
    34   30   32 1    
    35   30   33 1    
    36   23   34 1    
    37   34   35 1    
    38   34   36 1    
    39   34   37 1    
    40   10   38 1    
    41   38   39 1    
    42   38   40 1    
    43   38   41 1    
    44    2   42 1    
    45   42   43 1    
    46   42   44 1    
@<TRIPOS>SUBSTRUCTURE
     1 ****        1 TEMP              0 ****  ****    0 ROOT 
@<TRIPOS>SET
UNITY_3DHIT     STATIC     ATOMS    <user>   **** Atoms matching 3D or FLEX Search
0
