#	Name:			9-15c
#	Creating user name:	jeff
#	Creation time:		Thu Dec  4 18:13:57 2003

#	Modifying user name:	jeff
#	Modification time:	Thu Dec  4 18:13:57 2003

@<TRIPOS>MOLECULE
9-15c
   46    48     1     0     1
SMALL
USER_CHARGES
****
From 3DB ct
@<TRIPOS>ATOM
      1 N          10.172000    2.664000   12.896000 N.ar      1 <1>        -0.695700 
      2 C          10.767000    2.019000   11.895000 C.ar      1 <1>         0.808900 
      3 N          12.041000    2.172000   11.547000 N.ar      1 <1>        -0.712000 
      4 C          12.774000    3.034000   12.235000 C.ar      1 <1>         0.835300 
      5 C          12.258000    3.765000   13.303000 C.ar      1 <1>        -0.765100 
      6 C          10.919000    3.517000   13.606000 C.ar      1 <1>         0.763900 
      7 N          10.253000    4.185000   14.618000 N.pl3     1 <1>        -0.751700 
      8 H          10.748000    4.375000   15.483000 H         1 <1>         0.331800 
      9 H           9.280000    3.921000   14.740000 H         1 <1>         0.328300 
     10 C          13.106000    4.678000   13.977000 C.ar      1 <1>         0.247800 
     11 H          12.723000    5.275000   14.803000 H         1 <1>         0.082900 
     12 C          14.434000    4.822000   13.583000 C.ar      1 <1>        -0.255800 
     13 C          14.845000    4.052000   12.510000 C.ar      1 <1>         0.378600 
     14 H          15.863000    4.121000   12.131000 H         1 <1>         0.072000 
     15 N          14.046000    3.175000   11.849000 N.ar      1 <1>        -0.588700 
     16 C          15.366000    5.789000   14.259000 C.3       1 <1>        -0.159800 
     17 H          15.905000    5.270000   15.062000 H         1 <1>         0.102100 
     18 H          14.782000    6.592000   14.725000 H         1 <1>         0.126300 
     19 N          16.299000    6.337000   13.289000 N.pl3     1 <1>        -0.408900 
     20 H          17.279000    6.083000   13.399000 H         1 <1>         0.296700 
     21 C          15.941000    7.125000   12.213000 C.ar      1 <1>         0.307900 
     22 C          16.904000    7.399000   11.232000 C.ar      1 <1>        -0.454300 
     23 H          17.908000    6.990000   11.326000 H         1 <1>         0.142200 
     24 C          16.596000    8.191000   10.126000 C.ar      1 <1>         0.332100 
     25 C          15.332000    8.770000   10.005000 C.ar      1 <1>        -0.195400 
     26 C          14.342000    8.498000   10.958000 C.ar      1 <1>         0.391800 
     27 C          14.660000    7.682000   12.055000 C.ar      1 <1>        -0.373600 
     28 H          13.905000    7.470000   12.805000 H         1 <1>         0.138100 
     29 O          13.116000    9.072000   10.731000 O.3       1 <1>        -0.304600 
     30 C          12.974000    9.869000    9.558000 C.3       1 <1>         0.066300 
     31 H          11.947000   10.246000    9.536000 H         1 <1>         0.040200 
     32 H          13.128000    9.271000    8.654000 H         1 <1>         0.044100 
     33 H          13.646000   10.733000    9.585000 H         1 <1>         0.046100 
     34 O          15.041000    9.544000    8.907000 O.3       1 <1>        -0.232500 
     35 C          16.181000    9.608000    8.043000 C.3       1 <1>         0.006200 
     36 H          15.913000   10.232000    7.185000 H         1 <1>         0.039600 
     37 H          16.451000    8.614000    7.669000 H         1 <1>         0.053300 
     38 H          17.036000   10.072000    8.546000 H         1 <1>         0.044000 
     39 O          17.572000    8.450000    9.198000 O.3       1 <1>        -0.222700 
     40 C          18.759000    7.720000    9.526000 C.3       1 <1>        -0.044400 
     41 H          19.497000    7.915000    8.742000 H         1 <1>         0.076600 
     42 H          18.567000    6.642000    9.552000 H         1 <1>         0.057500 
     43 H          19.178000    8.058000   10.480000 H         1 <1>         0.057500 
     44 N          10.015000    1.139000   11.178000 N.pl3     1 <1>        -0.804200 
     45 H          10.430000    0.633000   10.409000 H         1 <1>         0.380800 
     46 H           9.044000    1.003000   11.416000 H         1 <1>         0.370400 
@<TRIPOS>BOND
     1    1    2 ar   
     2    2    3 ar   
     3    3    4 ar   
     4    4    5 ar   
     5    5    6 ar   
     6    6    1 ar   
     7    6    7 1    
     8    7    8 1    
     9    7    9 1    
    10    5   10 ar   
    11   10   11 1    
    12   10   12 ar   
    13   12   13 ar   
    14   13   14 1    
    15   13   15 ar   
    16   15    4 ar   
    17   12   16 1    
    18   16   17 1    
    19   16   18 1    
    20   16   19 1    
    21   19   20 1    
    22   19   21 1    
    23   21   22 ar   
    24   22   23 1    
    25   22   24 ar   
    26   24   25 ar   
    27   25   26 ar   
    28   26   27 ar   
    29   27   28 1    
    30   27   21 ar   
    31   26   29 1    
    32   29   30 1    
    33   30   31 1    
    34   30   32 1    
    35   30   33 1    
    36   25   34 1    
    37   34   35 1    
    38   35   36 1    
    39   35   37 1    
    40   35   38 1    
    41   24   39 1    
    42   39   40 1    
    43   40   41 1    
    44   40   42 1    
    45   40   43 1    
    46    2   44 1    
    47   44   45 1    
    48   44   46 1    
@<TRIPOS>SUBSTRUCTURE
     1 ****        1 TEMP              0 ****  ****    0 ROOT 
@<TRIPOS>SET
UNITY_3DHIT     STATIC     ATOMS    <user>   **** Atoms matching 3D or FLEX Search
0
