#	Name:			9-15b
#	Creating user name:	jeff
#	Creation time:		Thu Dec  4 18:13:57 2003

#	Modifying user name:	jeff
#	Modification time:	Thu Dec  4 18:13:57 2003

@<TRIPOS>MOLECULE
9-15b
   34    36     1     0     1
SMALL
USER_CHARGES
****
From 3DB ct
@<TRIPOS>ATOM
      1 N          10.152000    2.638000   12.881000 N.ar      1 <1>        -0.690200 
      2 C          10.764000    1.997000   11.887000 C.ar      1 <1>         0.803700 
      3 N          12.039000    2.167000   11.549000 N.ar      1 <1>        -0.708900 
      4 C          12.755000    3.040000   12.241000 C.ar      1 <1>         0.838700 
      5 C          12.221000    3.766000   13.303000 C.ar      1 <1>        -0.762500 
      6 C          10.883000    3.501000   13.596000 C.ar      1 <1>         0.755100 
      7 N          10.201000    4.163000   14.602000 N.pl3     1 <1>        -0.748000 
      8 H          10.688000    4.360000   15.470000 H         1 <1>         0.330000 
      9 H           9.229000    3.888000   14.717000 H         1 <1>         0.326600 
     10 C          13.050000    4.690000   13.983000 C.ar      1 <1>         0.259500 
     11 H          12.654000    5.283000   14.805000 H         1 <1>         0.076600 
     12 C          14.379000    4.853000   13.600000 C.ar      1 <1>        -0.310700 
     13 C          14.810000    4.087000   12.531000 C.ar      1 <1>         0.398500 
     14 H          15.831000    4.168000   12.160000 H         1 <1>         0.074500 
     15 N          14.028000    3.198000   11.864000 N.ar      1 <1>        -0.592800 
     16 C          15.294000    5.831000   14.285000 C.3       1 <1>        -0.060500 
     17 H          15.795000    5.335000   15.125000 H         1 <1>         0.096100 
     18 H          14.695000    6.650000   14.702000 H         1 <1>         0.098500 
     19 N          16.271000    6.343000   13.341000 N.pl3     1 <1>        -0.557000 
     20 H          17.240000    6.061000   13.476000 H         1 <1>         0.331300 
     21 C          15.961000    7.129000   12.249000 C.ar      1 <1>         0.411400 
     22 C          16.956000    7.386000   11.295000 C.ar      1 <1>        -0.410900 
     23 H          17.953000    6.962000   11.418000 H         1 <1>         0.136600 
     24 C          16.706000    8.185000   10.174000 C.ar      1 <1>         0.268000 
     25 H          17.501000    8.363000    9.454000 H         1 <1>         0.045200 
     26 C          15.445000    8.741000    9.993000 C.ar      1 <1>        -0.523800 
     27 C          14.440000    8.504000   10.925000 C.ar      1 <1>         0.213500 
     28 H          13.450000    8.935000   10.794000 H         1 <1>         0.053000 
     29 C          14.701000    7.704000   12.045000 C.ar      1 <1>        -0.298500 
     30 H          13.890000    7.543000   12.751000 H         1 <1>         0.121500 
     31 Cl         15.127000    9.725000    8.617000 Cl        1 <1>         0.073800 
     32 N          10.032000    1.105000   11.166000 N.pl3     1 <1>        -0.800700 
     33 H          10.461000    0.599000   10.406000 H         1 <1>         0.381400 
     34 H           9.061000    0.953000   11.399000 H         1 <1>         0.370900 
@<TRIPOS>BOND
     1    1    2 ar   
     2    2    3 ar   
     3    3    4 ar   
     4    4    5 ar   
     5    5    6 ar   
     6    6    1 ar   
     7    6    7 1    
     8    7    8 1    
     9    7    9 1    
    10    5   10 ar   
    11   10   11 1    
    12   10   12 ar   
    13   12   13 ar   
    14   13   14 1    
    15   13   15 ar   
    16   15    4 ar   
    17   12   16 1    
    18   16   17 1    
    19   16   18 1    
    20   16   19 1    
    21   19   20 1    
    22   19   21 1    
    23   21   22 ar   
    24   22   23 1    
    25   22   24 ar   
    26   24   25 1    
    27   24   26 ar   
    28   26   27 ar   
    29   27   28 1    
    30   27   29 ar   
    31   29   30 1    
    32   29   21 ar   
    33   26   31 1    
    34    2   32 1    
    35   32   33 1    
    36   32   34 1    
@<TRIPOS>SUBSTRUCTURE
     1 ****        1 TEMP              0 ****  ****    0 ROOT 
@<TRIPOS>SET
UNITY_3DHIT     STATIC     ATOMS    <user>   **** Atoms matching 3D or FLEX Search
0
