#	Name:			9-15a
#	Creating user name:	jeff
#	Creation time:		Thu Dec  4 18:13:57 2003

#	Modifying user name:	jeff
#	Modification time:	Thu Dec  4 18:13:57 2003

@<TRIPOS>MOLECULE
9-15a
   40    43     1     0     1
SMALL
USER_CHARGES
****
From 3DB ct
@<TRIPOS>ATOM
      1 N          10.151000    2.634000   12.879000 N.ar      1 <1>        -0.697200 
      2 C          10.765000    1.997000   11.885000 C.ar      1 <1>         0.810500 
      3 N          12.041000    2.168000   11.550000 N.ar      1 <1>        -0.711200 
      4 C          12.755000    3.042000   12.244000 C.ar      1 <1>         0.836300 
      5 C          12.217000    3.767000   13.305000 C.ar      1 <1>        -0.776700 
      6 C          10.879000    3.498000   13.596000 C.ar      1 <1>         0.769000 
      7 N          10.195000    4.155000   14.603000 N.pl3     1 <1>        -0.756500 
      8 H          10.681000    4.350000   15.473000 H         1 <1>         0.331100 
      9 H           9.224000    3.877000   14.716000 H         1 <1>         0.328000 
     10 C          13.043000    4.695000   13.985000 C.ar      1 <1>         0.259100 
     11 H          12.642000    5.287000   14.805000 H         1 <1>         0.078400 
     12 C          14.373000    4.857000   13.605000 C.ar      1 <1>        -0.285900 
     13 C          14.807000    4.090000   12.538000 C.ar      1 <1>         0.406400 
     14 H          15.829000    4.172000   12.171000 H         1 <1>         0.067200 
     15 N          14.028000    3.200000   11.870000 N.ar      1 <1>        -0.592000 
     16 C          15.286000    5.839000   14.286000 C.3       1 <1>        -0.122500 
     17 H          15.768000    5.342000   15.137000 H         1 <1>         0.097400 
     18 H          14.696000    6.674000   14.685000 H         1 <1>         0.101800 
     19 N          16.279000    6.324000   13.342000 N.pl3     1 <1>        -0.398400 
     20 H          17.190000    5.876000   13.389000 H         1 <1>         0.292300 
     21 C          15.998000    7.140000   12.251000 C.ar      1 <1>         0.137900 
     22 C          14.713000    7.681000   12.069000 C.ar      1 <1>        -0.166300 
     23 H          13.903000    7.452000   12.758000 H         1 <1>         0.102500 
     24 C          14.416000    8.517000   10.995000 C.ar      1 <1>        -0.064200 
     25 H          13.408000    8.911000   10.874000 H         1 <1>         0.110700 
     26 C          15.406000    8.846000   10.078000 C.ar      1 <1>        -0.273800 
     27 H          15.151000    9.502000    9.245000 H         1 <1>         0.133500 
     28 C          16.707000    8.354000   10.228000 C.ar      1 <1>         0.185500 
     29 C          17.025000    7.501000   11.320000 C.ar      1 <1>        -0.049000 
     30 C          18.370000    7.062000   11.415000 C.ar      1 <1>        -0.127500 
     31 H          18.692000    6.420000   12.233000 H         1 <1>         0.095400 
     32 C          19.343000    7.432000   10.480000 C.ar      1 <1>        -0.122400 
     33 H          20.365000    7.074000   10.589000 H         1 <1>         0.105400 
     34 C          19.003000    8.258000    9.419000 C.ar      1 <1>        -0.062100 
     35 H          19.756000    8.550000    8.689000 H         1 <1>         0.099200 
     36 C          17.694000    8.717000    9.296000 C.ar      1 <1>        -0.212600 
     37 H          17.449000    9.370000    8.458000 H         1 <1>         0.124400 
     38 N          10.034000    1.107000   11.160000 N.pl3     1 <1>        -0.806700 
     39 H          10.464000    0.605000   10.397000 H         1 <1>         0.381600 
     40 H           9.063000    0.956000   11.388000 H         1 <1>         0.371400 
@<TRIPOS>BOND
     1    1    2 ar   
     2    2    3 ar   
     3    3    4 ar   
     4    4    5 ar   
     5    5    6 ar   
     6    6    1 ar   
     7    6    7 1    
     8    7    8 1    
     9    7    9 1    
    10    5   10 ar   
    11   10   11 1    
    12   10   12 ar   
    13   12   13 ar   
    14   13   14 1    
    15   13   15 ar   
    16   15    4 ar   
    17   12   16 1    
    18   16   17 1    
    19   16   18 1    
    20   16   19 1    
    21   19   20 1    
    22   19   21 1    
    23   21   22 ar   
    24   22   23 1    
    25   22   24 ar   
    26   24   25 1    
    27   24   26 ar   
    28   26   27 1    
    29   26   28 ar   
    30   28   29 ar   
    31   29   21 ar   
    32   29   30 ar   
    33   30   31 1    
    34   30   32 ar   
    35   32   33 1    
    36   32   34 ar   
    37   34   35 1    
    38   34   36 ar   
    39   36   37 1    
    40   36   28 ar   
    41    2   38 1    
    42   38   39 1    
    43   38   40 1    
@<TRIPOS>SUBSTRUCTURE
     1 ****        1 TEMP              0 ****  ****    0 ROOT 
@<TRIPOS>SET
UNITY_3DHIT     STATIC     ATOMS    <user>   **** Atoms matching 3D or FLEX Search
0
