#	Name:			9-16d
#	Creating user name:	jeff
#	Creation time:		Thu Dec  4 18:13:57 2003

#	Modifying user name:	jeff
#	Modification time:	Thu Dec  4 18:13:57 2003

@<TRIPOS>MOLECULE
9-16d
   42    44     1     0     1
SMALL
USER_CHARGES
****
From 3DB ct
@<TRIPOS>ATOM
      1 N          10.149000    2.616000   12.880000 N.ar      1 <1>        -0.693400 
      2 C          10.772000    1.977000   11.892000 C.ar      1 <1>         0.802100 
      3 N          12.045000    2.162000   11.555000 N.ar      1 <1>        -0.708600 
      4 C          12.747000    3.052000   12.240000 C.ar      1 <1>         0.834800 
      5 C          12.199000    3.781000   13.293000 C.ar      1 <1>        -0.761400 
      6 C          10.865000    3.498000   13.588000 C.ar      1 <1>         0.760700 
      7 N          10.171000    4.157000   14.587000 N.pl3     1 <1>        -0.751900 
      8 H          10.655000    4.368000   15.455000 H         1 <1>         0.331300 
      9 H           9.204000    3.867000   14.704000 H         1 <1>         0.327400 
     10 C          13.012000    4.728000   13.962000 C.ar      1 <1>         0.241600 
     11 H          12.603000    5.325000   14.775000 H         1 <1>         0.081900 
     12 C          14.340000    4.905000   13.581000 C.ar      1 <1>        -0.264000 
     13 C          14.785000    4.133000   12.523000 C.ar      1 <1>         0.388600 
     14 H          15.805000    4.224000   12.154000 H         1 <1>         0.076700 
     15 N          14.018000    3.225000   11.865000 N.ar      1 <1>        -0.594900 
     16 C          15.237000    5.910000   14.255000 C.3       1 <1>        -0.133000 
     17 H          15.684000    5.444000   15.141000 H         1 <1>         0.099800 
     18 H          14.628000    6.758000   14.588000 H         1 <1>         0.115500 
     19 N          16.265000    6.348000   13.329000 N.pl3     1 <1>        -0.363800 
     20 H          17.207000    6.002000   13.505000 H         1 <1>         0.278900 
     21 C          16.071000    7.138000   12.204000 C.ar      1 <1>         0.111800 
     22 C          14.779000    7.675000   12.028000 C.ar      1 <1>        -0.247500 
     23 H          14.006000    7.460000   12.766000 H         1 <1>         0.127700 
     24 C          14.439000    8.476000   10.933000 C.ar      1 <1>         0.294400 
     25 C          15.408000    8.760000    9.982000 C.ar      1 <1>        -0.289800 
     26 H          15.202000    9.380000    9.114000 H         1 <1>         0.132400 
     27 C          16.699000    8.241000   10.124000 C.ar      1 <1>        -0.112300 
     28 H          17.420000    8.494000    9.350000 H         1 <1>         0.121700 
     29 C          17.042000    7.434000   11.220000 C.ar      1 <1>         0.076300 
     30 O          18.298000    6.909000   11.394000 O.3       1 <1>        -0.256800 
     31 C          19.310000    7.258000   10.453000 C.3       1 <1>         0.009600 
     32 H          20.229000    6.741000   10.748000 H         1 <1>         0.060900 
     33 H          19.512000    8.333000   10.474000 H         1 <1>         0.038200 
     34 H          19.046000    6.918000    9.446000 H         1 <1>         0.043700 
     35 O          13.143000    8.912000   10.917000 O.3       1 <1>        -0.291500 
     36 C          12.764000    9.761000    9.835000 C.3       1 <1>         0.022900 
     37 H          11.705000   10.005000    9.958000 H         1 <1>         0.064400 
     38 H          12.880000    9.248000    8.874000 H         1 <1>         0.042300 
     39 H          13.328000   10.699000    9.855000 H         1 <1>         0.036300 
     40 N          10.054000    1.069000   11.177000 N.pl3     1 <1>        -0.802200 
     41 H          10.489000    0.571000   10.414000 H         1 <1>         0.379700 
     42 H           9.084000    0.908000   11.406000 H         1 <1>         0.369600 
@<TRIPOS>BOND
     1    1    2 ar   
     2    2    3 ar   
     3    3    4 ar   
     4    4    5 ar   
     5    5    6 ar   
     6    6    1 ar   
     7    6    7 1    
     8    7    8 1    
     9    7    9 1    
    10    5   10 ar   
    11   10   11 1    
    12   10   12 ar   
    13   12   13 ar   
    14   13   14 1    
    15   13   15 ar   
    16   15    4 ar   
    17   12   16 1    
    18   16   17 1    
    19   16   18 1    
    20   16   19 1    
    21   19   20 1    
    22   19   21 1    
    23   21   22 ar   
    24   22   23 1    
    25   22   24 ar   
    26   24   25 ar   
    27   25   26 1    
    28   25   27 ar   
    29   27   28 1    
    30   27   29 ar   
    31   29   21 ar   
    32   29   30 1    
    33   30   31 1    
    34   31   32 1    
    35   31   33 1    
    36   31   34 1    
    37   24   35 1    
    38   35   36 1    
    39   36   37 1    
    40   36   38 1    
    41   36   39 1    
    42    2   40 1    
    43   40   41 1    
    44   40   42 1    
@<TRIPOS>SUBSTRUCTURE
     1 ****        1 TEMP              0 ****  ****    0 ROOT 
@<TRIPOS>SET
UNITY_3DHIT     STATIC     ATOMS    <user>   **** Atoms matching 3D or FLEX Search
0
