#	Name:			9-16b
#	Creating user name:	jeff
#	Creation time:		Thu Dec  4 18:13:57 2003

#	Modifying user name:	jeff
#	Modification time:	Thu Dec  4 18:13:57 2003

@<TRIPOS>MOLECULE
9-16b
   35    37     1     0     1
SMALL
USER_CHARGES
****
From 3DB ct
@<TRIPOS>ATOM
      1 N          10.130000    2.628000   12.889000 N.ar      1 <1>        -0.679100 
      2 C          10.724000    1.969000   11.894000 C.ar      1 <1>         0.801700 
      3 N          11.998000    2.127000   11.535000 N.ar      1 <1>        -0.671100 
      4 C          12.732000    3.015000   12.216000 C.ar      1 <1>         0.500900 
      5 C          12.218000    3.761000   13.280000 C.ar      1 <1>        -0.483400 
      6 C          10.877000    3.499000   13.585000 C.ar      1 <1>         0.697700 
      7 N          10.206000    4.173000   14.591000 N.pl3     1 <1>        -0.749500 
      8 H          10.703000    4.370000   15.454000 H         1 <1>         0.330600 
      9 H           9.236000    3.900000   14.717000 H         1 <1>         0.327000 
     10 C          13.048000    4.698000   13.952000 C.ar      1 <1>        -0.003400 
     11 H          12.642000    5.294000   14.767000 H         1 <1>         0.104600 
     12 C          14.387000    4.878000   13.581000 C.ar      1 <1>        -0.055400 
     13 C          14.883000    4.128000   12.514000 C.ar      1 <1>        -0.008700 
     14 H          15.914000    4.253000   12.184000 H         1 <1>         0.108000 
     15 C          14.059000    3.212000   11.851000 C.ar      1 <1>        -0.283100 
     16 H          14.472000    2.640000   11.022000 H         1 <1>         0.146000 
     17 C          15.259000    5.888000   14.290000 C.3       1 <1>         0.024000 
     18 H          15.716000    5.417000   15.169000 H         1 <1>         0.065100 
     19 H          14.635000    6.716000   14.651000 H         1 <1>         0.069200 
     20 N          16.282000    6.376000   13.382000 N.pl3     1 <1>        -0.607300 
     21 H          17.246000    6.141000   13.609000 H         1 <1>         0.335800 
     22 C          16.031000    7.139000   12.261000 C.ar      1 <1>         0.461100 
     23 C          14.751000    7.684000   12.085000 C.ar      1 <1>        -0.336200 
     24 H          13.974000    7.501000   12.826000 H         1 <1>         0.133900 
     25 C          14.437000    8.468000   10.968000 C.ar      1 <1>         0.234600 
     26 H          13.434000    8.873000   10.863000 H         1 <1>         0.050000 
     27 C          15.409000    8.718000   10.007000 C.ar      1 <1>        -0.545300 
     28 C          16.687000    8.190000   10.158000 C.ar      1 <1>         0.280600 
     29 H          17.457000    8.379000    9.413000 H         1 <1>         0.043900 
     30 C          16.992000    7.407000   11.279000 C.ar      1 <1>        -0.436300 
     31 H          18.003000    7.013000   11.361000 H         1 <1>         0.139200 
     32 Cl         15.033000    9.681000    8.632000 Cl        1 <1>         0.074800 
     33 N           9.978000    1.073000   11.193000 N.pl3     1 <1>        -0.826200 
     34 H          10.398000    0.558000   10.433000 H         1 <1>         0.381600 
     35 H           9.010000    0.927000   11.437000 H         1 <1>         0.375000 
@<TRIPOS>BOND
     1    1    2 ar   
     2    2    3 ar   
     3    3    4 ar   
     4    4    5 ar   
     5    5    6 ar   
     6    6    1 ar   
     7    6    7 1    
     8    7    8 1    
     9    7    9 1    
    10    5   10 ar   
    11   10   11 1    
    12   10   12 ar   
    13   12   13 ar   
    14   13   14 1    
    15   13   15 ar   
    16   15   16 1    
    17   15    4 ar   
    18   12   17 1    
    19   17   18 1    
    20   17   19 1    
    21   17   20 1    
    22   20   21 1    
    23   20   22 1    
    24   22   23 ar   
    25   23   24 1    
    26   23   25 ar   
    27   25   26 1    
    28   25   27 ar   
    29   27   28 ar   
    30   28   29 1    
    31   28   30 ar   
    32   30   31 1    
    33   30   22 ar   
    34   27   32 1    
    35    2   33 1    
    36   33   34 1    
    37   33   35 1    
@<TRIPOS>SUBSTRUCTURE
     1 ****        1 TEMP              0 ****  ****    0 ROOT 
@<TRIPOS>SET
UNITY_3DHIT     STATIC     ATOMS    <user>   **** Atoms matching 3D or FLEX Search
0
