#	Name:			9-16c
#	Creating user name:	jeff
#	Creation time:		Thu Dec  4 18:13:57 2003

#	Modifying user name:	jeff
#	Modification time:	Thu Dec  4 18:13:57 2003

@<TRIPOS>MOLECULE
9-16c
   38    40     1     0     1
SMALL
USER_CHARGES
****
From 3DB ct
@<TRIPOS>ATOM
      1 N          10.138000    2.616000   12.894000 N.ar      1 <1>        -0.685300 
      2 C          10.736000    1.954000   11.904000 C.ar      1 <1>         0.809000 
      3 N          12.008000    2.120000   11.542000 N.ar      1 <1>        -0.673200 
      4 C          12.733000    3.026000   12.211000 C.ar      1 <1>         0.500500 
      5 C          12.211000    3.781000   13.264000 C.ar      1 <1>        -0.498300 
      6 C          10.876000    3.505000   13.578000 C.ar      1 <1>         0.711200 
      7 N          10.200000    4.180000   14.581000 N.pl3     1 <1>        -0.754700 
      8 H          10.699000    4.390000   15.439000 H         1 <1>         0.331500 
      9 H           9.235000    3.895000   14.713000 H         1 <1>         0.328100 
     10 C          13.029000    4.740000   13.921000 C.ar      1 <1>        -0.003500 
     11 H          12.614000    5.334000   14.735000 H         1 <1>         0.105700 
     12 C          14.361000    4.941000   13.540000 C.ar      1 <1>        -0.011200 
     13 C          14.869000    4.169000   12.493000 C.ar      1 <1>        -0.027200 
     14 H          15.901000    4.298000   12.168000 H         1 <1>         0.110600 
     15 C          14.057000    3.230000   11.845000 C.ar      1 <1>        -0.276300 
     16 H          14.480000    2.646000   11.030000 H         1 <1>         0.145500 
     17 C          15.233000    5.946000   14.259000 C.3       1 <1>        -0.082500 
     18 H          15.575000    5.488000   15.192000 H         1 <1>         0.078200 
     19 H          14.645000    6.831000   14.531000 H         1 <1>         0.094300 
     20 N          16.340000    6.347000   13.396000 N.pl3     1 <1>        -0.469200 
     21 H          17.052000    5.623000   13.292000 H         1 <1>         0.319200 
     22 C          16.053000    7.078000   12.245000 C.ar      1 <1>         0.268600 
     23 C          14.765000    7.623000   12.111000 C.ar      1 <1>        -0.282800 
     24 H          14.008000    7.426000   12.870000 H         1 <1>         0.125400 
     25 C          14.426000    8.439000   11.028000 C.ar      1 <1>         0.206300 
     26 H          13.422000    8.849000   10.957000 H         1 <1>         0.056700 
     27 C          15.383000    8.731000   10.065000 C.ar      1 <1>        -0.532600 
     28 C          16.666000    8.200000   10.171000 C.ar      1 <1>         0.199200 
     29 H          17.407000    8.432000    9.409000 H         1 <1>         0.058700 
     30 C          17.010000    7.359000   11.249000 C.ar      1 <1>        -0.123900 
     31 C          18.404000    6.790000   11.276000 C.3       1 <1>        -0.266800 
     32 H          19.083000    7.484000   11.780000 H         1 <1>         0.065800 
     33 H          18.773000    6.621000   10.259000 H         1 <1>         0.094900 
     34 H          18.433000    5.820000   11.783000 H         1 <1>         0.071900 
     35 Cl         14.983000    9.750000    8.737000 Cl        1 <1>         0.077900 
     36 N           9.996000    1.045000   11.213000 N.pl3     1 <1>        -0.830400 
     37 H          10.421000    0.523000   10.460000 H         1 <1>         0.382200 
     38 H           9.031000    0.891000   11.462000 H         1 <1>         0.376400 
@<TRIPOS>BOND
     1    1    2 ar   
     2    2    3 ar   
     3    3    4 ar   
     4    4    5 ar   
     5    5    6 ar   
     6    6    1 ar   
     7    6    7 1    
     8    7    8 1    
     9    7    9 1    
    10    5   10 ar   
    11   10   11 1    
    12   10   12 ar   
    13   12   13 ar   
    14   13   14 1    
    15   13   15 ar   
    16   15   16 1    
    17   15    4 ar   
    18   12   17 1    
    19   17   18 1    
    20   17   19 1    
    21   17   20 1    
    22   20   21 1    
    23   20   22 1    
    24   22   23 ar   
    25   23   24 1    
    26   23   25 ar   
    27   25   26 1    
    28   25   27 ar   
    29   27   28 ar   
    30   28   29 1    
    31   28   30 ar   
    32   30   22 ar   
    33   30   31 1    
    34   31   32 1    
    35   31   33 1    
    36   31   34 1    
    37   27   35 1    
    38    2   36 1    
    39   36   37 1    
    40   36   38 1    
@<TRIPOS>SUBSTRUCTURE
     1 ****        1 TEMP              0 ****  ****    0 ROOT 
@<TRIPOS>SET
UNITY_3DHIT     STATIC     ATOMS    <user>   **** Atoms matching 3D or FLEX Search
0
