#	Name:			Adinazolam
#	Creating user name:	jeff
#	Creation time:		Tue Nov  4 15:19:56 2003

#	Modifying user name:	jeff
#	Modification time:	Tue Nov  4 15:19:56 2003

@<TRIPOS>MOLECULE
Adinazolam
   43    46     1     0     1
SMALL
USER_CHARGES
****
From 3DB ct
@<TRIPOS>ATOM
      1 C           0.264000    2.166000    0.019000 C.ar      1 <1>         0.036900 
      2 C           0.043000    0.780000    0.164000 C.ar      1 <1>         0.074200 
      3 C           1.152000   -0.232000    0.224000 C.2       1 <1>         0.143600 
      4 N           2.209000   -0.136000    0.966000 N.2       1 <1>        -0.370900 
      5 C           2.378000    1.051000    1.802000 C.3       1 <1>         0.144900 
      6 H           3.272000    0.907000    2.419000 H         1 <1>         0.059000 
      7 H           1.542000    1.175000    2.501000 H         1 <1>         0.018500 
      8 C           2.564000    2.246000    0.946000 C.ar      1 <1>         0.168600 
      9 N           1.569000    2.714000    0.112000 N.pl3     1 <1>        -0.200500 
     10 C           2.127000    3.829000   -0.502000 C.ar      1 <1>         0.310800 
     11 N           3.332000    4.042000    0.005000 N.ar      1 <1>        -0.209000 
     12 N           3.610000    3.046000    0.899000 N.ar      1 <1>        -0.229600 
     13 C           1.493000    4.605000   -1.623000 C.3       1 <1>        -0.234200 
     14 H           0.582000    5.056000   -1.210000 H         1 <1>         0.152800 
     15 H           1.197000    3.946000   -2.447000 H         1 <1>         0.137300 
     16 N           2.364000    5.689000   -2.150000 N.3       1 <1>        -0.274500 
     17 C           1.575000    6.569000   -3.023000 C.3       1 <1>        -0.040300 
     18 H           2.196000    7.388000   -3.403000 H         1 <1>         0.078900 
     19 H           0.757000    7.033000   -2.461000 H         1 <1>         0.049300 
     20 H           1.148000    6.031000   -3.877000 H         1 <1>         0.037600 
     21 C           3.489000    5.130000   -2.913000 C.3       1 <1>        -0.235000 
     22 H           4.126000    5.936000   -3.296000 H         1 <1>         0.110900 
     23 H           3.153000    4.525000   -3.763000 H         1 <1>         0.082700 
     24 H           4.130000    4.508000   -2.279000 H         1 <1>         0.137100 
     25 C           1.047000   -1.448000   -0.647000 C.ar      1 <1>         0.057700 
     26 C           1.491000   -2.682000   -0.156000 C.ar      1 <1>        -0.141600 
     27 H           1.895000   -2.763000    0.851000 H         1 <1>         0.131800 
     28 C           1.410000   -3.824000   -0.955000 C.ar      1 <1>        -0.068900 
     29 H           1.750000   -4.783000   -0.569000 H         1 <1>         0.101400 
     30 C           0.895000   -3.735000   -2.248000 C.ar      1 <1>        -0.112100 
     31 H           0.833000   -4.626000   -2.871000 H         1 <1>         0.107900 
     32 C           0.465000   -2.506000   -2.747000 C.ar      1 <1>        -0.075600 
     33 H           0.072000   -2.437000   -3.760000 H         1 <1>         0.100900 
     34 C           0.544000   -1.360000   -1.952000 C.ar      1 <1>        -0.158400 
     35 H           0.221000   -0.409000   -2.369000 H         1 <1>         0.104000 
     36 C          -1.275000    0.288000    0.184000 C.ar      1 <1>         0.102600 
     37 H          -1.466000   -0.775000    0.315000 H         1 <1>         0.077500 
     38 C          -2.352000    1.157000    0.027000 C.ar      1 <1>        -0.427600 
     39 C          -2.137000    2.521000   -0.139000 C.ar      1 <1>         0.182200 
     40 H          -2.977000    3.203000   -0.248000 H         1 <1>         0.065400 
     41 C          -0.835000    3.027000   -0.136000 C.ar      1 <1>        -0.209000 
     42 H          -0.720000    4.107000   -0.194000 H         1 <1>         0.118700 
     43 Cl         -3.959000    0.540000    0.042000 Cl        1 <1>         0.094100 
@<TRIPOS>BOND
     1    1    2 ar   
     2    2    3 1    
     3    3    4 2    
     4    4    5 1    
     5    5    6 1    
     6    5    7 1    
     7    5    8 1    
     8    8    9 ar   
     9    9    1 1    
    10    9   10 ar   
    11   10   11 ar   
    12   11   12 ar   
    13   12    8 ar   
    14   10   13 1    
    15   13   14 1    
    16   13   15 1    
    17   13   16 1    
    18   16   17 1    
    19   17   18 1    
    20   17   19 1    
    21   17   20 1    
    22   16   21 1    
    23   21   22 1    
    24   21   23 1    
    25   21   24 1    
    26    3   25 1    
    27   25   26 ar   
    28   26   27 1    
    29   26   28 ar   
    30   28   29 1    
    31   28   30 ar   
    32   30   31 1    
    33   30   32 ar   
    34   32   33 1    
    35   32   34 ar   
    36   34   35 1    
    37   34   25 ar   
    38    2   36 ar   
    39   36   37 1    
    40   36   38 ar   
    41   38   39 ar   
    42   39   40 1    
    43   39   41 ar   
    44   41   42 1    
    45   41    1 ar   
    46   38   43 1    
@<TRIPOS>SUBSTRUCTURE
     1 ****        1 TEMP              0 ****  ****    0 ROOT 
@<TRIPOS>SET
UNITY_3DHIT     STATIC     ATOMS    <user>   **** Atoms matching 3D or FLEX Search
0
@<TRIPOS>UNITY_BOND_ATTR
3 1
S I
