#	Name:			alpha-hydroxytriazolam
#	Creating user name:	jeff
#	Creation time:		Tue Nov  4 15:19:56 2003

#	Modifying user name:	jeff
#	Modification time:	Tue Nov  4 15:19:56 2003

@<TRIPOS>MOLECULE
alpha-hydroxytriazolam
   36    39     1     0     1
SMALL
USER_CHARGES
****
From 3DB ct
@<TRIPOS>ATOM
      1 C           0.263000    2.169000    0.024000 C.ar      1 <1>         0.051600 
      2 C           0.044000    0.782000    0.166000 C.ar      1 <1>         0.064200 
      3 C           1.154000   -0.231000    0.224000 C.2       1 <1>         0.168000 
      4 N           2.212000   -0.136000    0.964000 N.2       1 <1>        -0.370100 
      5 C           2.383000    1.050000    1.800000 C.3       1 <1>         0.111100 
      6 H           3.279000    0.905000    2.415000 H         1 <1>         0.068600 
      7 H           1.548000    1.173000    2.500000 H         1 <1>         0.024600 
      8 C           2.568000    2.246000    0.944000 C.ar      1 <1>         0.233600 
      9 N           1.568000    2.720000    0.119000 N.pl3     1 <1>        -0.254800 
     10 C           2.120000    3.844000   -0.483000 C.ar      1 <1>         0.219700 
     11 N           3.335000    4.044000    0.007000 N.ar      1 <1>        -0.194600 
     12 N           3.618000    3.041000    0.891000 N.ar      1 <1>        -0.253100 
     13 C           1.474000    4.636000   -1.567000 C.3       1 <1>         0.056400 
     14 H           0.569000    5.127000   -1.197000 H         1 <1>         0.052100 
     15 H           1.242000    4.024000   -2.443000 H         1 <1>         0.095400 
     16 O           2.396000    5.650000   -1.984000 O.3       1 <1>        -0.423000 
     17 H           1.915000    6.158000   -2.670000 H         1 <1>         0.280300 
     18 C           1.047000   -1.447000   -0.647000 C.ar      1 <1>         0.057900 
     19 C           1.490000   -2.681000   -0.155000 C.ar      1 <1>        -0.145600 
     20 H           1.895000   -2.762000    0.852000 H         1 <1>         0.130400 
     21 C           1.406000   -3.824000   -0.954000 C.ar      1 <1>        -0.064500 
     22 H           1.745000   -4.783000   -0.567000 H         1 <1>         0.101500 
     23 C           0.890000   -3.736000   -2.246000 C.ar      1 <1>        -0.114500 
     24 H           0.826000   -4.627000   -2.868000 H         1 <1>         0.109200 
     25 C           0.461000   -2.506000   -2.745000 C.ar      1 <1>        -0.069900 
     26 H           0.067000   -2.438000   -3.758000 H         1 <1>         0.101500 
     27 C           0.542000   -1.360000   -1.951000 C.ar      1 <1>        -0.168600 
     28 H           0.220000   -0.408000   -2.369000 H         1 <1>         0.111200 
     29 C          -1.273000    0.288000    0.182000 C.ar      1 <1>         0.093700 
     30 H          -1.462000   -0.776000    0.311000 H         1 <1>         0.079600 
     31 C          -2.351000    1.154000    0.024000 C.ar      1 <1>        -0.416900 
     32 C          -2.138000    2.518000   -0.141000 C.ar      1 <1>         0.170700 
     33 H          -2.980000    3.199000   -0.252000 H         1 <1>         0.068200 
     34 C          -0.837000    3.027000   -0.134000 C.ar      1 <1>        -0.190700 
     35 H          -0.727000    4.107000   -0.191000 H         1 <1>         0.119200 
     36 Cl         -3.957000    0.533000    0.034000 Cl        1 <1>         0.097500 
@<TRIPOS>BOND
     1    1    2 ar   
     2    2    3 1    
     3    3    4 2    
     4    4    5 1    
     5    5    6 1    
     6    5    7 1    
     7    5    8 1    
     8    8    9 ar   
     9    9    1 1    
    10    9   10 ar   
    11   10   11 ar   
    12   11   12 ar   
    13   12    8 ar   
    14   10   13 1    
    15   13   14 1    
    16   13   15 1    
    17   13   16 1    
    18   16   17 1    
    19    3   18 1    
    20   18   19 ar   
    21   19   20 1    
    22   19   21 ar   
    23   21   22 1    
    24   21   23 ar   
    25   23   24 1    
    26   23   25 ar   
    27   25   26 1    
    28   25   27 ar   
    29   27   28 1    
    30   27   18 ar   
    31    2   29 ar   
    32   29   30 1    
    33   29   31 ar   
    34   31   32 ar   
    35   32   33 1    
    36   32   34 ar   
    37   34   35 1    
    38   34    1 ar   
    39   31   36 1    
@<TRIPOS>SUBSTRUCTURE
     1 ****        1 TEMP              0 ****  ****    0 ROOT 
@<TRIPOS>SET
UNITY_3DHIT     STATIC     ATOMS    <user>   **** Atoms matching 3D or FLEX Search
0
@<TRIPOS>UNITY_BOND_ATTR
3 1
S I
