#	Name:			alpha-Hydroxymidazolam
#	Creating user name:	jeff
#	Creation time:		Tue Nov  4 15:19:57 2003

#	Modifying user name:	jeff
#	Modification time:	Tue Nov  4 15:19:57 2003

@<TRIPOS>MOLECULE
alpha-Hydroxymidazolam
   37    40     1     0     1
SMALL
USER_CHARGES
****
From 3DB ct
@<TRIPOS>ATOM
      1 C           0.263000    2.164000    0.019000 C.ar      1 <1>         0.230400 
      2 C           0.042000    0.779000    0.163000 C.ar      1 <1>        -0.071000 
      3 C           1.154000   -0.229000    0.222000 C.2       1 <1>         0.319400 
      4 N           2.209000   -0.132000    0.966000 N.2       1 <1>        -0.372900 
      5 C           2.367000    1.048000    1.807000 C.3       1 <1>         0.077000 
      6 H           3.250000    0.901000    2.439000 H         1 <1>         0.075900 
      7 H           1.520000    1.176000    2.492000 H         1 <1>         0.036700 
      8 C           2.563000    2.229000    0.938000 C.ar      1 <1>        -0.104000 
      9 N           1.575000    2.708000    0.100000 N.pl3     1 <1>        -0.189700 
     10 C           2.123000    3.815000   -0.550000 C.ar      1 <1>         0.181900 
     11 N           3.341000    4.077000   -0.091000 N.ar      1 <1>        -0.350500 
     12 C           3.623000    3.093000    0.813000 C.ar      1 <1>        -0.015000 
     13 H           4.572000    3.054000    1.337000 H         1 <1>         0.158100 
     14 C           1.444000    4.545000   -1.669000 C.3       1 <1>         0.186100 
     15 H           0.534000    5.033000   -1.310000 H         1 <1>         0.019900 
     16 H           1.219000    3.889000   -2.513000 H         1 <1>         0.049500 
     17 O           2.339000    5.560000   -2.142000 O.3       1 <1>        -0.455900 
     18 H           1.837000    6.030000   -2.840000 H         1 <1>         0.291800 
     19 C           1.051000   -1.442000   -0.645000 C.ar      1 <1>        -0.194700 
     20 C           1.495000   -2.676000   -0.153000 C.ar      1 <1>        -0.052000 
     21 H           1.901000   -2.756000    0.854000 H         1 <1>         0.127500 
     22 C           1.408000   -3.817000   -0.953000 C.ar      1 <1>        -0.129400 
     23 H           1.747000   -4.778000   -0.568000 H         1 <1>         0.113600 
     24 C           0.890000   -3.730000   -2.247000 C.ar      1 <1>        -0.037500 
     25 H           0.825000   -4.621000   -2.869000 H         1 <1>         0.112900 
     26 C           0.463000   -2.499000   -2.746000 C.ar      1 <1>        -0.262500 
     27 H           0.070000   -2.421000   -3.756000 H         1 <1>         0.157400 
     28 C           0.550000   -1.362000   -1.947000 C.ar      1 <1>         0.368400 
     29 F           0.162000   -0.186000   -2.465000 F         1 <1>        -0.255800 
     30 C          -1.275000    0.285000    0.181000 C.ar      1 <1>         0.135300 
     31 H          -1.467000   -0.777000    0.310000 H         1 <1>         0.068400 
     32 C          -2.352000    1.155000    0.027000 C.ar      1 <1>        -0.434200 
     33 C          -2.137000    2.520000   -0.134000 C.ar      1 <1>         0.204800 
     34 H          -2.977000    3.203000   -0.239000 H         1 <1>         0.063500 
     35 C          -0.835000    3.027000   -0.130000 C.ar      1 <1>        -0.284500 
     36 H          -0.719000    4.106000   -0.185000 H         1 <1>         0.139300 
     37 Cl         -3.958000    0.538000    0.038000 Cl        1 <1>         0.091700 
@<TRIPOS>BOND
     1    1    2 ar   
     2    2    3 1    
     3    3    4 2    
     4    4    5 1    
     5    5    6 1    
     6    5    7 1    
     7    5    8 1    
     8    8    9 ar   
     9    9    1 1    
    10    9   10 ar   
    11   10   11 ar   
    12   11   12 ar   
    13   12   13 1    
    14   12    8 ar   
    15   10   14 1    
    16   14   15 1    
    17   14   16 1    
    18   14   17 1    
    19   17   18 1    
    20    3   19 1    
    21   19   20 ar   
    22   20   21 1    
    23   20   22 ar   
    24   22   23 1    
    25   22   24 ar   
    26   24   25 1    
    27   24   26 ar   
    28   26   27 1    
    29   26   28 ar   
    30   28   19 ar   
    31   28   29 1    
    32    2   30 ar   
    33   30   31 1    
    34   30   32 ar   
    35   32   33 ar   
    36   33   34 1    
    37   33   35 ar   
    38   35   36 1    
    39   35    1 ar   
    40   32   37 1    
@<TRIPOS>SUBSTRUCTURE
     1 ****        1 TEMP              0 ****  ****    0 ROOT 
@<TRIPOS>SET
UNITY_3DHIT     STATIC     ATOMS    <user>   **** Atoms matching 3D or FLEX Search
0
@<TRIPOS>UNITY_BOND_ATTR
3 1
S I
