#	Name:			Alprazolam
#	Creating user name:	jeff
#	Creation time:		Tue Nov  4 15:19:56 2003

#	Modifying user name:	jeff
#	Modification time:	Tue Nov  4 15:19:56 2003

@<TRIPOS>MOLECULE
Alprazolam
   35    38     1     0     1
SMALL
USER_CHARGES
****
From 3DB ct
@<TRIPOS>ATOM
      1 C           0.262000    2.170000    0.029000 C.ar      1 <1>         0.057500 
      2 C           0.045000    0.783000    0.171000 C.ar      1 <1>         0.066600 
      3 C           1.156000   -0.230000    0.226000 C.2       1 <1>         0.164300 
      4 N           2.216000   -0.137000    0.963000 N.2       1 <1>        -0.367500 
      5 C           2.392000    1.049000    1.798000 C.3       1 <1>         0.120400 
      6 H           3.290000    0.905000    2.409000 H         1 <1>         0.062200 
      7 H           1.560000    1.174000    2.502000 H         1 <1>         0.024700 
      8 C           2.574000    2.244000    0.940000 C.ar      1 <1>         0.192000 
      9 N           1.565000    2.724000    0.128000 N.pl3     1 <1>        -0.260100 
     10 C           2.113000    3.854000   -0.463000 C.ar      1 <1>         0.356600 
     11 N           3.340000    4.038000   -0.006000 N.ar      1 <1>        -0.252900 
     12 N           3.629000    3.030000    0.869000 N.ar      1 <1>        -0.222900 
     13 C           1.484000    4.674000   -1.528000 C.3       1 <1>        -0.325500 
     14 H           2.258000    5.163000   -2.128000 H         1 <1>         0.113400 
     15 H           0.860000    5.460000   -1.094000 H         1 <1>         0.103100 
     16 H           0.883000    4.066000   -2.210000 H         1 <1>         0.109900 
     17 C           1.046000   -1.446000   -0.645000 C.ar      1 <1>         0.052200 
     18 C           1.488000   -2.681000   -0.155000 C.ar      1 <1>        -0.150200 
     19 H           1.894000   -2.762000    0.852000 H         1 <1>         0.133600 
     20 C           1.402000   -3.822000   -0.954000 C.ar      1 <1>        -0.061600 
     21 H           1.740000   -4.783000   -0.569000 H         1 <1>         0.099500 
     22 C           0.885000   -3.732000   -2.246000 C.ar      1 <1>        -0.112200 
     23 H           0.819000   -4.623000   -2.869000 H         1 <1>         0.108600 
     24 C           0.457000   -2.501000   -2.744000 C.ar      1 <1>        -0.083300 
     25 H           0.063000   -2.432000   -3.756000 H         1 <1>         0.104000 
     26 C           0.540000   -1.356000   -1.949000 C.ar      1 <1>        -0.154000 
     27 H           0.220000   -0.404000   -2.365000 H         1 <1>         0.107600 
     28 C          -1.271000    0.287000    0.185000 C.ar      1 <1>         0.082800 
     29 H          -1.459000   -0.777000    0.316000 H         1 <1>         0.082100 
     30 C          -2.351000    1.150000    0.021000 C.ar      1 <1>        -0.413000 
     31 C          -2.140000    2.513000   -0.150000 C.ar      1 <1>         0.165800 
     32 H          -2.981000    3.193000   -0.268000 H         1 <1>         0.066800 
     33 C          -0.839000    3.025000   -0.140000 C.ar      1 <1>        -0.191500 
     34 H          -0.729000    4.104000   -0.206000 H         1 <1>         0.127700 
     35 Cl         -3.955000    0.527000    0.028000 Cl        1 <1>         0.093600 
@<TRIPOS>BOND
     1    1    2 ar   
     2    2    3 1    
     3    3    4 2    
     4    4    5 1    
     5    5    6 1    
     6    5    7 1    
     7    5    8 1    
     8    8    9 ar   
     9    9    1 1    
    10    9   10 ar   
    11   10   11 ar   
    12   11   12 ar   
    13   12    8 ar   
    14   10   13 1    
    15   13   14 1    
    16   13   15 1    
    17   13   16 1    
    18    3   17 1    
    19   17   18 ar   
    20   18   19 1    
    21   18   20 ar   
    22   20   21 1    
    23   20   22 ar   
    24   22   23 1    
    25   22   24 ar   
    26   24   25 1    
    27   24   26 ar   
    28   26   27 1    
    29   26   17 ar   
    30    2   28 ar   
    31   28   29 1    
    32   28   30 ar   
    33   30   31 ar   
    34   31   32 1    
    35   31   33 ar   
    36   33   34 1    
    37   33    1 ar   
    38   30   35 1    
@<TRIPOS>SUBSTRUCTURE
     1 ****        1 TEMP              0 ****  ****    0 ROOT 
@<TRIPOS>SET
UNITY_3DHIT     STATIC     ATOMS    <user>   **** Atoms matching 3D or FLEX Search
0
@<TRIPOS>UNITY_BOND_ATTR
3 1
S I
