#	Name:			Bromazepam
#	Creating user name:	jeff
#	Creation time:		Tue Nov  4 15:19:54 2003

#	Modifying user name:	jeff
#	Modification time:	Tue Nov  4 15:19:54 2003

@<TRIPOS>MOLECULE
Bromazepam
   29    31     1     0     1
SMALL
USER_CHARGES
****
From 3DB ct
@<TRIPOS>ATOM
      1 C          -2.099000    2.501000   -0.215000 C.ar      1 <1>         0.328700 
      2 H          -2.920000    3.193000   -0.389000 H         1 <1>         0.039700 
      3 C          -2.336000    1.142000   -0.035000 C.ar      1 <1>        -0.650200 
      4 C          -1.274000    0.263000    0.167000 C.ar      1 <1>         0.284900 
      5 H          -1.477000   -0.800000    0.282000 H         1 <1>         0.051500 
      6 C           0.047000    0.744000    0.200000 C.ar      1 <1>        -0.132700 
      7 C           0.284000    2.126000    0.098000 C.ar      1 <1>         0.389000 
      8 C          -0.793000    2.988000   -0.153000 C.ar      1 <1>        -0.408500 
      9 H          -0.631000    4.059000   -0.267000 H         1 <1>         0.157900 
     10 N           1.546000    2.734000    0.224000 N.am      1 <1>        -0.607200 
     11 H           1.662000    3.671000   -0.152000 H         1 <1>         0.330000 
     12 C           2.627000    2.255000    0.918000 C.2       1 <1>         0.529200 
     13 C           2.406000    1.018000    1.776000 C.3       1 <1>        -0.014600 
     14 H           3.294000    0.875000    2.401000 H         1 <1>         0.075900 
     15 H           1.560000    1.160000    2.458000 H         1 <1>         0.058400 
     16 N           2.246000   -0.157000    0.921000 N.2       1 <1>        -0.317300 
     17 C           1.162000   -0.258000    0.217000 C.2       1 <1>         0.054100 
     18 C           1.029000   -1.464000   -0.674000 C.ar      1 <1>         0.488400 
     19 C           1.424000   -2.724000   -0.239000 C.ar      1 <1>        -0.375500 
     20 H           1.836000   -2.884000    0.752000 H         1 <1>         0.158100 
     21 C           1.265000   -3.799000   -1.109000 C.ar      1 <1>         0.125300 
     22 H           1.563000   -4.800000   -0.805000 H         1 <1>         0.086900 
     23 C           0.714000   -3.584000   -2.368000 C.ar      1 <1>        -0.354100 
     24 H           0.577000   -4.405000   -3.066000 H         1 <1>         0.151400 
     25 C           0.336000   -2.297000   -2.713000 C.ar      1 <1>         0.265900 
     26 H          -0.103000   -2.092000   -3.688000 H         1 <1>         0.073200 
     27 N           0.476000   -1.228000   -1.895000 N.ar      1 <1>        -0.510100 
     28 O           3.708000    2.853000    0.889000 O.2       1 <1>        -0.418900 
     29 Br         -4.106000    0.481000   -0.097000 Br        1 <1>         0.140500 
@<TRIPOS>BOND
     1    2    1 1    
     2    1    3 ar   
     3    3    4 ar   
     4    4    5 1    
     5    4    6 ar   
     6    6    7 ar   
     7    7    8 ar   
     8    8    9 1    
     9    8    1 ar   
    10    7   10 1    
    11   10   11 1    
    12   10   12 am   
    13   12   13 1    
    14   13   14 1    
    15   13   15 1    
    16   13   16 1    
    17   16   17 2    
    18   17    6 1    
    19   17   18 1    
    20   18   19 ar   
    21   19   20 1    
    22   19   21 ar   
    23   21   22 1    
    24   21   23 ar   
    25   23   24 1    
    26   23   25 ar   
    27   25   26 1    
    28   25   27 ar   
    29   27   18 ar   
    30   12   28 2    
    31    3   29 1    
@<TRIPOS>SUBSTRUCTURE
     1 ****        2 TEMP              0 ****  ****    0 ROOT 
@<TRIPOS>SET
UNITY_3DHIT     STATIC     ATOMS    <user>   **** Atoms matching 3D or FLEX Search
0
@<TRIPOS>UNITY_BOND_ATTR
17 1
S I
