#	Name:			Chlordiazepoxide
#	Creating user name:	jeff
#	Creation time:		Tue Nov  4 15:19:55 2003

#	Modifying user name:	jeff
#	Modification time:	Tue Nov  4 15:19:56 2003

@<TRIPOS>MOLECULE
Chlordiazepoxide
   35    37     1     0     1
SMALL
USER_CHARGES
****
From 3DB ct
@<TRIPOS>ATOM
      1 C          -0.091000    2.086000   -0.035000 C.ar      1 <1>         0.349600 
      2 C          -0.200000    0.683000    0.045000 C.ar      1 <1>        -0.069500 
      3 C           0.999000   -0.201000    0.073000 C.2       1 <1>        -0.267400 
      4 N           2.063000    0.135000    0.787000 N.2       1 <1>         0.428800 
      5 C           2.122000    1.368000    1.594000 C.3       1 <1>        -0.286100 
      6 H           3.035000    1.351000    2.198000 H         1 <1>         0.145200 
      7 H           1.260000    1.412000    2.264000 H         1 <1>         0.134300 
      8 C           2.140000    2.513000    0.606000 C.2       1 <1>         0.488900 
      9 N           1.113000    2.807000   -0.140000 N.2       1 <1>        -0.505800 
     10 N           3.299000    3.248000    0.515000 N.pl3     1 <1>        -0.492800 
     11 H           4.117000    2.972000    1.058000 H         1 <1>         0.315200 
     12 C           3.461000    4.422000   -0.310000 C.3       1 <1>        -0.016200 
     13 H           4.475000    4.818000   -0.199000 H         1 <1>         0.064000 
     14 H           2.755000    5.205000   -0.013000 H         1 <1>         0.057000 
     15 H           3.303000    4.178000   -1.365000 H         1 <1>         0.062300 
     16 O           3.110000   -0.619000    0.805000 O.3       1 <1>        -0.526400 
     17 C           0.988000   -1.456000   -0.712000 C.ar      1 <1>         0.192300 
     18 C           0.482000   -1.438000   -2.015000 C.ar      1 <1>        -0.168900 
     19 H           0.133000   -0.511000   -2.466000 H         1 <1>         0.135400 
     20 C           0.428000   -2.622000   -2.751000 C.ar      1 <1>        -0.131100 
     21 H           0.039000   -2.613000   -3.768000 H         1 <1>         0.113400 
     22 C           0.871000   -3.818000   -2.184000 C.ar      1 <1>        -0.063500 
     23 H           0.827000   -4.741000   -2.760000 H         1 <1>         0.098500 
     24 C           1.368000   -3.835000   -0.880000 C.ar      1 <1>        -0.144800 
     25 H           1.709000   -4.770000   -0.440000 H         1 <1>         0.113600 
     26 C           1.425000   -2.654000   -0.139000 C.ar      1 <1>        -0.083800 
     27 H           1.805000   -2.677000    0.880000 H         1 <1>         0.119300 
     28 C          -1.465000    0.074000    0.111000 C.ar      1 <1>         0.156100 
     29 H          -1.558000   -1.006000    0.192000 H         1 <1>         0.071800 
     30 C          -2.618000    0.855000    0.084000 C.ar      1 <1>        -0.482700 
     31 C          -2.527000    2.239000   -0.009000 C.ar      1 <1>         0.214500 
     32 H          -3.422000    2.855000   -0.035000 H         1 <1>         0.058100 
     33 C          -1.270000    2.845000   -0.071000 C.ar      1 <1>        -0.330600 
     34 H          -1.208000    3.930000   -0.149000 H         1 <1>         0.164700 
     35 Cl         -4.164000    0.103000    0.165000 Cl        1 <1>         0.086700 
@<TRIPOS>BOND
     1    1    2 ar   
     2    2    3 1    
     3    3    4 2    
     4    4    5 1    
     5    5    6 1    
     6    5    7 1    
     7    5    8 1    
     8    8    9 2    
     9    9    1 1    
    10    8   10 1    
    11   10   11 1    
    12   10   12 1    
    13   12   13 1    
    14   12   14 1    
    15   12   15 1    
    16    4   16 1    
    17    3   17 1    
    18   17   18 ar   
    19   18   19 1    
    20   18   20 ar   
    21   20   21 1    
    22   20   22 ar   
    23   22   23 1    
    24   22   24 ar   
    25   24   25 1    
    26   24   26 ar   
    27   26   27 1    
    28   26   17 ar   
    29    2   28 ar   
    30   28   29 1    
    31   28   30 ar   
    32   30   31 ar   
    33   31   32 1    
    34   31   33 ar   
    35   33   34 1    
    36   33    1 ar   
    37   30   35 1    
@<TRIPOS>SUBSTRUCTURE
     1 ****        1 TEMP              0 ****  ****    0 ROOT 
@<TRIPOS>SET
UNITY_3DHIT     STATIC     ATOMS    <user>   **** Atoms matching 3D or FLEX Search
0
@<TRIPOS>UNITY_ATOM_ATTR
4 1
AtomExpr +1
16 1
AtomExpr -1
@<TRIPOS>UNITY_BOND_ATTR
3 1
S I
8 1
S I
