#	Name:			Clobazam
#	Creating user name:	jeff
#	Creation time:		Tue Nov  4 15:19:56 2003

#	Modifying user name:	jeff
#	Modification time:	Tue Nov  4 15:19:56 2003

@<TRIPOS>MOLECULE
Clobazam
   34    36     1     0     1
SMALL
USER_CHARGES
****
From 3DB ct
@<TRIPOS>ATOM
      1 C           0.293000    2.118000    0.063000 C.ar      1 <1>         0.087100 
      2 C           0.044000    0.721000    0.152000 C.ar      1 <1>         0.282100 
      3 N           1.078000   -0.289000    0.210000 N.am      1 <1>        -0.760200 
      4 C           2.257000   -0.133000    0.946000 C.2       1 <1>         0.728800 
      5 C           2.335000    1.100000    1.787000 C.3       1 <1>        -0.387600 
      6 H           3.150000    0.983000    2.511000 H         1 <1>         0.128200 
      7 H           1.424000    1.260000    2.371000 H         1 <1>         0.116100 
      8 C           2.640000    2.262000    0.897000 C.2       1 <1>         0.584000 
      9 N           1.601000    2.711000    0.091000 N.am      1 <1>        -0.308700 
     10 C           1.830000    3.934000   -0.678000 C.3       1 <1>        -0.100100 
     11 H           2.893000    4.051000   -0.914000 H         1 <1>         0.091900 
     12 H           1.520000    4.796000   -0.080000 H         1 <1>         0.063800 
     13 H           1.283000    3.901000   -1.625000 H         1 <1>         0.083400 
     14 O           3.754000    2.797000    0.927000 O.2       1 <1>        -0.415800 
     15 O           3.215000   -0.916000    0.930000 O.2       1 <1>        -0.439000 
     16 C           0.864000   -1.497000   -0.550000 C.ar      1 <1>         0.446100 
     17 C           0.270000   -1.454000   -1.826000 C.ar      1 <1>        -0.267600 
     18 H          -0.021000   -0.507000   -2.277000 H         1 <1>         0.140900 
     19 C           0.067000   -2.622000   -2.567000 C.ar      1 <1>        -0.079400 
     20 H          -0.391000   -2.567000   -3.553000 H         1 <1>         0.110200 
     21 C           0.458000   -3.854000   -2.050000 C.ar      1 <1>        -0.112100 
     22 H           0.300000   -4.763000   -2.626000 H         1 <1>         0.107000 
     23 C           1.055000   -3.917000   -0.794000 C.ar      1 <1>        -0.085500 
     24 H           1.360000   -4.879000   -0.385000 H         1 <1>         0.114300 
     25 C           1.260000   -2.748000   -0.053000 C.ar      1 <1>        -0.226200 
     26 H           1.705000   -2.844000    0.935000 H         1 <1>         0.153100 
     27 C          -1.303000    0.278000    0.161000 C.ar      1 <1>         0.075400 
     28 H          -1.531000   -0.779000    0.285000 H         1 <1>         0.074600 
     29 C          -2.368000    1.165000    0.027000 C.ar      1 <1>        -0.427000 
     30 C          -2.126000    2.519000   -0.112000 C.ar      1 <1>         0.139900 
     31 H          -2.946000    3.224000   -0.220000 H         1 <1>         0.071500 
     32 C          -0.810000    2.986000   -0.094000 C.ar      1 <1>        -0.223700 
     33 H          -0.674000    4.064000   -0.169000 H         1 <1>         0.138800 
     34 Cl         -3.984000    0.576000    0.034000 Cl        1 <1>         0.095900 
@<TRIPOS>BOND
     1    1    2 ar   
     2    2    3 1    
     3    3    4 am   
     4    4    5 1    
     5    5    6 1    
     6    5    7 1    
     7    5    8 1    
     8    8    9 am   
     9    9    1 1    
    10    9   10 1    
    11   10   11 1    
    12   10   12 1    
    13   10   13 1    
    14    8   14 2    
    15    4   15 2    
    16    3   16 1    
    17   16   17 ar   
    18   17   18 1    
    19   17   19 ar   
    20   19   20 1    
    21   19   21 ar   
    22   21   22 1    
    23   21   23 ar   
    24   23   24 1    
    25   23   25 ar   
    26   25   26 1    
    27   25   16 ar   
    28    2   27 ar   
    29   27   28 1    
    30   27   29 ar   
    31   29   30 ar   
    32   30   31 1    
    33   30   32 ar   
    34   32   33 1    
    35   32    1 ar   
    36   29   34 1    
@<TRIPOS>SUBSTRUCTURE
     1 ****        1 TEMP              0 ****  ****    0 ROOT 
@<TRIPOS>SET
UNITY_3DHIT     STATIC     ATOMS    <user>   **** Atoms matching 3D or FLEX Search
0
