#	Name:			Clonazepam
#	Creating user name:	jeff
#	Creation time:		Tue Nov  4 15:19:51 2003

#	Modifying user name:	jeff
#	Modification time:	Tue Nov  4 15:19:51 2003

@<TRIPOS>MOLECULE
Clonazepam
   32    34     1     0     1
SMALL
USER_CHARGES
****
From 3DB ct
@<TRIPOS>ATOM
      1 C          -2.102000    2.477000   -0.256000 C.ar      1 <1>        -0.085500 
      2 H          -2.918000    3.171000   -0.446000 H         1 <1>         0.174000 
      3 C          -2.329000    1.108000   -0.095000 C.ar      1 <1>        -0.024700 
      4 C          -1.256000    0.235000    0.131000 C.ar      1 <1>        -0.161800 
      5 H          -1.442000   -0.831000    0.231000 H         1 <1>         0.185700 
      6 C           0.059000    0.735000    0.211000 C.ar      1 <1>        -0.019700 
      7 C           0.282000    2.122000    0.110000 C.ar      1 <1>         0.290600 
      8 C          -0.800000    2.974000   -0.161000 C.ar      1 <1>        -0.216000 
      9 H          -0.645000    4.047000   -0.270000 H         1 <1>         0.140700 
     10 N           1.534000    2.748000    0.239000 N.am      1 <1>        -0.579300 
     11 H           1.635000    3.687000   -0.139000 H         1 <1>         0.337100 
     12 C           2.632000    2.285000    0.916000 C.2       1 <1>         0.452000 
     13 C           2.443000    1.047000    1.775000 C.3       1 <1>         0.161700 
     14 H           3.342000    0.916000    2.386000 H         1 <1>         0.047600 
     15 H           1.606000    1.178000    2.470000 H         1 <1>         0.017100 
     16 N           2.284000   -0.132000    0.926000 N.2       1 <1>        -0.439200 
     17 C           1.185000   -0.254000    0.257000 C.2       1 <1>         0.174000 
     18 C           1.057000   -1.472000   -0.592000 C.ar      1 <1>         0.431800 
     19 C           1.511000   -2.689000   -0.063000 C.ar      1 <1>        -0.354700 
     20 H           1.941000   -2.736000    0.936000 H         1 <1>         0.176800 
     21 C           1.402000   -3.858000   -0.816000 C.ar      1 <1>         0.048200 
     22 H           1.752000   -4.804000   -0.407000 H         1 <1>         0.094100 
     23 C           0.840000   -3.816000   -2.092000 C.ar      1 <1>        -0.212400 
     24 H           0.755000   -4.729000   -2.679000 H         1 <1>         0.126700 
     25 C           0.386000   -2.605000   -2.619000 C.ar      1 <1>         0.197900 
     26 H          -0.044000   -2.588000   -3.619000 H         1 <1>         0.054000 
     27 C           0.491000   -1.428000   -1.872000 C.ar      1 <1>        -0.542000 
     28 Cl         -0.042000    0.045000   -2.603000 Cl        1 <1>         0.092200 
     29 O           3.702000    2.902000    0.875000 O.2       1 <1>        -0.391000 
     30 N          -3.697000    0.580000   -0.182000 N.2       1 <1>         0.580400 
     31 O          -3.870000   -0.640000   -0.002000 O.2       1 <1>        -0.378700 
     32 O          -4.623000    1.375000   -0.430000 O.3       1 <1>        -0.377600 
@<TRIPOS>BOND
     1    2    1 1    
     2    1    3 ar   
     3    3    4 ar   
     4    4    5 1    
     5    4    6 ar   
     6    6    7 ar   
     7    7    8 ar   
     8    8    9 1    
     9    8    1 ar   
    10    7   10 1    
    11   10   11 1    
    12   10   12 am   
    13   12   13 1    
    14   13   14 1    
    15   13   15 1    
    16   13   16 1    
    17   16   17 2    
    18   17    6 1    
    19   17   18 1    
    20   18   19 ar   
    21   19   20 1    
    22   19   21 ar   
    23   21   22 1    
    24   21   23 ar   
    25   23   24 1    
    26   23   25 ar   
    27   25   26 1    
    28   25   27 ar   
    29   27   18 ar   
    30   27   28 1    
    31   12   29 2    
    32    3   30 1    
    33   30   31 2    
    34   30   32 1    
@<TRIPOS>SUBSTRUCTURE
     1 ****        2 TEMP              0 ****  ****    0 ROOT 
@<TRIPOS>SET
UNITY_3DHIT     STATIC     ATOMS    <user>   **** Atoms matching 3D or FLEX Search
0
@<TRIPOS>UNITY_ATOM_ATTR
30 1
AtomExpr +1
32 1
AtomExpr -1
@<TRIPOS>UNITY_BOND_ATTR
17 1
S I
