#	Name:			Clorazepate
#	Creating user name:	jeff
#	Creation time:		Tue Nov  4 15:19:55 2003

#	Modifying user name:	jeff
#	Modification time:	Tue Nov  4 15:19:55 2003

@<TRIPOS>MOLECULE
Clorazepate
   33    35     1     0     1
SMALL
USER_CHARGES
****
From 3DB ct
@<TRIPOS>ATOM
      1 C          -2.108000    2.507000   -0.180000 C.ar      1 <1>         0.249800 
      2 H          -2.934000    3.195000   -0.346000 H         1 <1>         0.057700 
      3 C          -2.342000    1.148000   -0.005000 C.ar      1 <1>        -0.503200 
      4 C          -1.277000    0.270000    0.188000 C.ar      1 <1>         0.187000 
      5 H          -1.478000   -0.793000    0.297000 H         1 <1>         0.067400 
      6 C           0.042000    0.755000    0.216000 C.ar      1 <1>        -0.144300 
      7 C           0.277000    2.137000    0.116000 C.ar      1 <1>         0.354900 
      8 C          -0.802000    2.998000   -0.125000 C.ar      1 <1>        -0.363400 
      9 H          -0.644000    4.070000   -0.238000 H         1 <1>         0.158400 
     10 N           1.540000    2.744000    0.229000 N.am      1 <1>        -0.608800 
     11 H           1.655000    3.676000   -0.161000 H         1 <1>         0.340900 
     12 C           2.635000    2.263000    0.907000 C.2       1 <1>         0.492600 
     13 C           2.411000    1.043000    1.795000 C.3       1 <1>         0.031600 
     14 H           1.529000    1.179000    2.434000 H         1 <1>         0.047500 
     15 N           2.242000   -0.145000    0.933000 N.2       1 <1>        -0.352600 
     16 C           1.158000   -0.245000    0.233000 C.2       1 <1>         0.220300 
     17 C           1.037000   -1.457000   -0.641000 C.ar      1 <1>         0.033200 
     18 C           1.475000   -2.695000   -0.156000 C.ar      1 <1>        -0.130300 
     19 H           1.886000   -2.781000    0.849000 H         1 <1>         0.130800 
     20 C           1.379000   -3.834000   -0.958000 C.ar      1 <1>        -0.078800 
     21 H           1.714000   -4.797000   -0.577000 H         1 <1>         0.101900 
     22 C           0.856000   -3.737000   -2.247000 C.ar      1 <1>        -0.086700 
     23 H           0.782000   -4.625000   -2.872000 H         1 <1>         0.103200 
     24 C           0.434000   -2.502000   -2.740000 C.ar      1 <1>        -0.108200 
     25 H           0.035000   -2.427000   -3.751000 H         1 <1>         0.109000 
     26 C           0.527000   -1.360000   -1.942000 C.ar      1 <1>        -0.126800 
     27 H           0.211000   -0.403000   -2.353000 H         1 <1>         0.104800 
     28 C           3.589000    0.806000    2.735000 C.2       1 <1>         0.634900 
     29 O           3.894000    1.452000    3.730000 O.2       1 <1>        -0.485200 
     30 O           4.351000   -0.247000    2.348000 O.3       1 <1>        -0.475200 
     31 H           5.083000   -0.305000    3.008000 H         1 <1>         0.331500 
     32 O           3.715000    2.858000    0.819000 O.2       1 <1>        -0.390700 
     33 Cl         -3.952000    0.542000   -0.055000 Cl        1 <1>         0.096800 
@<TRIPOS>BOND
     1    2    1 1    
     2    1    3 ar   
     3    3    4 ar   
     4    4    5 1    
     5    4    6 ar   
     6    6    7 ar   
     7    7    8 ar   
     8    8    9 1    
     9    8    1 ar   
    10    7   10 1    
    11   10   11 1    
    12   10   12 am   
    13   12   13 1    
    14   13   14 1    
    15   13   15 1    
    16   15   16 2    
    17   16    6 1    
    18   16   17 1    
    19   17   18 ar   
    20   18   19 1    
    21   18   20 ar   
    22   20   21 1    
    23   20   22 ar   
    24   22   23 1    
    25   22   24 ar   
    26   24   25 1    
    27   24   26 ar   
    28   26   27 1    
    29   26   17 ar   
    30   13   28 1    
    31   28   29 2    
    32   28   30 1    
    33   30   31 1    
    34   12   32 2    
    35    3   33 1    
@<TRIPOS>SUBSTRUCTURE
     1 ****        2 TEMP              0 ****  ****    0 ROOT 
@<TRIPOS>SET
UNITY_3DHIT     STATIC     ATOMS    <user>   **** Atoms matching 3D or FLEX Search
0
@<TRIPOS>UNITY_BOND_ATTR
16 1
S I
