#	Name:			Delorazepam
#	Creating user name:	jeff
#	Creation time:		Tue Nov  4 15:19:50 2003

#	Modifying user name:	jeff
#	Modification time:	Tue Nov  4 15:19:50 2003

@<TRIPOS>MOLECULE
Delorazepam
   30    32     1     0     1
SMALL
USER_CHARGES
****
From 3DB ct
@<TRIPOS>ATOM
      1 C          -2.106000    2.466000   -0.205000 C.ar      1 <1>         0.248400 
      2 H          -2.938000    3.144000   -0.382000 H         1 <1>         0.063800 
      3 C          -2.322000    1.102000   -0.047000 C.ar      1 <1>        -0.530600 
      4 C          -1.249000    0.238000    0.160000 C.ar      1 <1>         0.177000 
      5 H          -1.445000   -0.827000    0.256000 H         1 <1>         0.068000 
      6 C           0.064000    0.739000    0.228000 C.ar      1 <1>        -0.104000 
      7 C           0.282000    2.126000    0.130000 C.ar      1 <1>         0.399400 
      8 C          -0.808000    2.973000   -0.124000 C.ar      1 <1>        -0.383500 
      9 H          -0.662000    4.047000   -0.231000 H         1 <1>         0.158800 
     10 N           1.533000    2.757000    0.243000 N.am      1 <1>        -0.621100 
     11 H           1.625000    3.697000   -0.132000 H         1 <1>         0.341500 
     12 C           2.642000    2.293000    0.901000 C.2       1 <1>         0.460700 
     13 C           2.470000    1.052000    1.758000 C.3       1 <1>         0.183900 
     14 H           3.378000    0.922000    2.356000 H         1 <1>         0.037800 
     15 H           1.643000    1.179000    2.467000 H         1 <1>         0.008500 
     16 N           2.300000   -0.125000    0.910000 N.2       1 <1>        -0.422500 
     17 C           1.191000   -0.248000    0.257000 C.2       1 <1>         0.050100 
     18 C           1.051000   -1.467000   -0.588000 C.ar      1 <1>         0.565800 
     19 C           1.513000   -2.683000   -0.065000 C.ar      1 <1>        -0.400400 
     20 H           1.958000   -2.729000    0.927000 H         1 <1>         0.189800 
     21 C           1.393000   -3.853000   -0.816000 C.ar      1 <1>         0.056400 
     22 H           1.750000   -4.799000   -0.412000 H         1 <1>         0.091200 
     23 C           0.812000   -3.811000   -2.083000 C.ar      1 <1>        -0.225100 
     24 H           0.719000   -4.725000   -2.669000 H         1 <1>         0.127400 
     25 C           0.350000   -2.600000   -2.605000 C.ar      1 <1>         0.201700 
     26 H          -0.094000   -2.584000   -3.598000 H         1 <1>         0.056000 
     27 C           0.466000   -1.423000   -1.860000 C.ar      1 <1>        -0.607300 
     28 Cl         -0.076000    0.050000   -2.582000 Cl        1 <1>         0.112100 
     29 O           3.709000    2.913000    0.846000 O.2       1 <1>        -0.403400 
     30 Cl         -3.922000    0.473000   -0.136000 Cl        1 <1>         0.099800 
@<TRIPOS>BOND
     1    2    1 1    
     2    1    3 ar   
     3    3    4 ar   
     4    4    5 1    
     5    4    6 ar   
     6    6    7 ar   
     7    7    8 ar   
     8    8    9 1    
     9    8    1 ar   
    10    7   10 1    
    11   10   11 1    
    12   10   12 am   
    13   12   13 1    
    14   13   14 1    
    15   13   15 1    
    16   13   16 1    
    17   16   17 2    
    18   17    6 1    
    19   17   18 1    
    20   18   19 ar   
    21   19   20 1    
    22   19   21 ar   
    23   21   22 1    
    24   21   23 ar   
    25   23   24 1    
    26   23   25 ar   
    27   25   26 1    
    28   25   27 ar   
    29   27   18 ar   
    30   27   28 1    
    31   12   29 2    
    32    3   30 1    
@<TRIPOS>SUBSTRUCTURE
     1 ****        2 TEMP              0 ****  ****    0 ROOT 
@<TRIPOS>SET
UNITY_3DHIT     STATIC     ATOMS    <user>   **** Atoms matching 3D or FLEX Search
0
@<TRIPOS>UNITY_BOND_ATTR
17 1
S I
