#	Name:			Demoxepam
#	Creating user name:	jeff
#	Creation time:		Tue Nov  4 15:19:56 2003

#	Modifying user name:	jeff
#	Modification time:	Tue Nov  4 15:19:56 2003

@<TRIPOS>MOLECULE
Demoxepam
   31    33     1     0     1
SMALL
USER_CHARGES
****
From 3DB ct
@<TRIPOS>ATOM
      1 C           0.285000    2.128000    0.142000 C.ar      1 <1>         0.371000 
      2 C           0.073000    0.738000    0.212000 C.ar      1 <1>        -0.112600 
      3 C           1.190000   -0.252000    0.205000 C.2       1 <1>        -0.221000 
      4 N           2.291000   -0.061000    0.912000 N.2       1 <1>         0.382000 
      5 C           2.473000    1.089000    1.796000 C.3       1 <1>        -0.199600 
      6 H           3.376000    0.938000    2.397000 H         1 <1>         0.143700 
      7 H           1.619000    1.181000    2.472000 H         1 <1>         0.117600 
      8 C           2.641000    2.296000    0.925000 C.2       1 <1>         0.613100 
      9 N           1.537000    2.756000    0.262000 N.am      1 <1>        -0.653400 
     10 H           1.630000    3.697000   -0.113000 H         1 <1>         0.341700 
     11 O           3.708000    2.918000    0.871000 O.2       1 <1>        -0.418500 
     12 O           3.263000   -0.908000    0.860000 O.3       1 <1>        -0.491800 
     13 C           1.067000   -1.462000   -0.645000 C.ar      1 <1>         0.150000 
     14 C           0.511000   -1.342000   -1.922000 C.ar      1 <1>        -0.153400 
     15 H           0.201000   -0.373000   -2.308000 H         1 <1>         0.130000 
     16 C           0.353000   -2.480000   -2.714000 C.ar      1 <1>        -0.137600 
     17 H          -0.076000   -2.394000   -3.711000 H         1 <1>         0.115300 
     18 C           0.744000   -3.730000   -2.229000 C.ar      1 <1>        -0.061100 
     19 H           0.619000   -4.616000   -2.849000 H         1 <1>         0.101900 
     20 C           1.293000   -3.846000   -0.951000 C.ar      1 <1>        -0.151100 
     21 H           1.593000   -4.822000   -0.575000 H         1 <1>         0.116900 
     22 C           1.454000   -2.712000   -0.153000 C.ar      1 <1>        -0.061600 
     23 H           1.874000   -2.812000    0.845000 H         1 <1>         0.112700 
     24 C          -1.237000    0.236000    0.137000 C.ar      1 <1>         0.210600 
     25 H          -1.427000   -0.833000    0.204000 H         1 <1>         0.067300 
     26 C          -2.314000    1.101000   -0.048000 C.ar      1 <1>        -0.512600 
     27 C          -2.103000    2.468000   -0.176000 C.ar      1 <1>         0.258800 
     28 H          -2.938000    3.147000   -0.335000 H         1 <1>         0.053900 
     29 C          -0.806000    2.978000   -0.090000 C.ar      1 <1>        -0.375600 
     30 H          -0.664000    4.054000   -0.175000 H         1 <1>         0.163400 
     31 Cl         -3.913000    0.470000   -0.144000 Cl        1 <1>         0.100200 
@<TRIPOS>BOND
     1    1    2 ar   
     2    2    3 1    
     3    3    4 2    
     4    4    5 1    
     5    5    6 1    
     6    5    7 1    
     7    5    8 1    
     8    8    9 am   
     9    9   10 1    
    10    9    1 1    
    11    8   11 2    
    12    4   12 1    
    13    3   13 1    
    14   13   14 ar   
    15   14   15 1    
    16   14   16 ar   
    17   16   17 1    
    18   16   18 ar   
    19   18   19 1    
    20   18   20 ar   
    21   20   21 1    
    22   20   22 ar   
    23   22   23 1    
    24   22   13 ar   
    25    2   24 ar   
    26   24   25 1    
    27   24   26 ar   
    28   26   27 ar   
    29   27   28 1    
    30   27   29 ar   
    31   29   30 1    
    32   29    1 ar   
    33   26   31 1    
@<TRIPOS>SUBSTRUCTURE
     1 ****        1 TEMP              0 ****  ****    0 ROOT 
@<TRIPOS>SET
UNITY_3DHIT     STATIC     ATOMS    <user>   **** Atoms matching 3D or FLEX Search
0
@<TRIPOS>UNITY_ATOM_ATTR
4 1
AtomExpr +1
12 1
AtomExpr -1
@<TRIPOS>UNITY_BOND_ATTR
3 1
S I
