#	Name:			Desmethyltetrazepam
#	Creating user name:	jeff
#	Creation time:		Tue Nov  4 15:19:54 2003

#	Modifying user name:	jeff
#	Modification time:	Tue Nov  4 15:19:54 2003

@<TRIPOS>MOLECULE
Desmethyltetrazepam
   34    36     1     0     1
SMALL
USER_CHARGES
****
From 3DB ct
@<TRIPOS>ATOM
      1 C          -2.111000    2.519000   -0.181000 C.ar      1 <1>         0.250400 
      2 H          -2.932000    3.213000   -0.351000 H         1 <1>         0.057000 
      3 C          -2.355000    1.163000    0.002000 C.ar      1 <1>        -0.513800 
      4 C          -1.297000    0.279000    0.201000 C.ar      1 <1>         0.202000 
      5 H          -1.506000   -0.782000    0.314000 H         1 <1>         0.064500 
      6 C           0.028000    0.752000    0.225000 C.ar      1 <1>        -0.144500 
      7 C           0.273000    2.132000    0.112000 C.ar      1 <1>         0.367400 
      8 C          -0.801000    3.000000   -0.132000 C.ar      1 <1>        -0.374900 
      9 H          -0.635000    4.069000   -0.253000 H         1 <1>         0.158400 
     10 N           1.540000    2.733000    0.213000 N.am      1 <1>        -0.607800 
     11 H           1.655000    3.667000   -0.173000 H         1 <1>         0.328900 
     12 C           2.635000    2.248000    0.880000 C.2       1 <1>         0.532500 
     13 C           2.425000    1.024000    1.757000 C.3       1 <1>        -0.033000 
     14 H           3.327000    0.882000    2.363000 H         1 <1>         0.081800 
     15 H           1.597000    1.181000    2.458000 H         1 <1>         0.056600 
     16 N           2.236000   -0.163000    0.924000 N.2       1 <1>        -0.304600 
     17 C           1.136000   -0.256000    0.248000 C.2       1 <1>         0.160900 
     18 C           0.954000   -1.478000   -0.610000 C.2       1 <1>        -0.084400 
     19 C           0.562000   -1.347000   -1.890000 C.2       1 <1>        -0.063200 
     20 H           0.383000   -0.365000   -2.326000 H         1 <1>         0.080800 
     21 C           0.354000   -2.517000   -2.808000 C.3       1 <1>        -0.059200 
     22 H           1.156000   -2.515000   -3.556000 H         1 <1>         0.051200 
     23 H          -0.590000   -2.391000   -3.350000 H         1 <1>         0.029100 
     24 C           0.334000   -3.860000   -2.077000 C.3       1 <1>        -0.047800 
     25 H           0.449000   -4.675000   -2.801000 H         1 <1>         0.021500 
     26 H          -0.640000   -4.000000   -1.592000 H         1 <1>         0.037800 
     27 C           1.437000   -3.931000   -1.026000 C.3       1 <1>        -0.087600 
     28 H           2.414000   -3.853000   -1.519000 H         1 <1>         0.052100 
     29 H           1.413000   -4.904000   -0.521000 H         1 <1>         0.022900 
     30 C           1.292000   -2.811000    0.008000 C.3       1 <1>         0.040700 
     31 H           0.495000   -3.072000    0.715000 H         1 <1>         0.036300 
     32 H           2.224000   -2.752000    0.582000 H         1 <1>         0.010000 
     33 O           3.720000    2.836000    0.817000 O.2       1 <1>        -0.416700 
     34 Cl         -3.969000    0.569000   -0.043000 Cl        1 <1>         0.094800 
@<TRIPOS>BOND
     1    2    1 1    
     2    1    3 ar   
     3    3    4 ar   
     4    4    5 1    
     5    4    6 ar   
     6    6    7 ar   
     7    7    8 ar   
     8    8    9 1    
     9    8    1 ar   
    10    7   10 1    
    11   10   11 1    
    12   10   12 am   
    13   12   13 1    
    14   13   14 1    
    15   13   15 1    
    16   13   16 1    
    17   16   17 2    
    18   17    6 1    
    19   17   18 1    
    20   18   19 2    
    21   19   20 1    
    22   19   21 1    
    23   21   22 1    
    24   21   23 1    
    25   21   24 1    
    26   24   25 1    
    27   24   26 1    
    28   24   27 1    
    29   27   28 1    
    30   27   29 1    
    31   27   30 1    
    32   30   31 1    
    33   30   32 1    
    34   30   18 1    
    35   12   33 2    
    36    3   34 1    
@<TRIPOS>SUBSTRUCTURE
     1 ****        2 TEMP              0 ****  ****    0 ROOT 
@<TRIPOS>SET
UNITY_3DHIT     STATIC     ATOMS    <user>   **** Atoms matching 3D or FLEX Search
0
@<TRIPOS>UNITY_BOND_ATTR
17 1
S I
20 1
S I
