#	Name:			Desmethylclobazam
#	Creating user name:	jeff
#	Creation time:		Tue Nov  4 15:19:56 2003

#	Modifying user name:	jeff
#	Modification time:	Tue Nov  4 15:19:56 2003

@<TRIPOS>MOLECULE
Desmethylclobazam
   31    33     1     0     1
SMALL
USER_CHARGES
****
From 3DB ct
@<TRIPOS>ATOM
      1 C           0.285000    2.067000    0.106000 C.ar      1 <1>         0.282500 
      2 C           0.022000    0.680000    0.223000 C.ar      1 <1>         0.169000 
      3 N           1.048000   -0.342000    0.284000 N.am      1 <1>        -0.649900 
      4 C           2.297000   -0.166000    0.890000 C.2       1 <1>         0.714800 
      5 C           2.455000    1.049000    1.741000 C.3       1 <1>        -0.396600 
      6 H           3.342000    0.925000    2.374000 H         1 <1>         0.126600 
      7 H           1.603000    1.174000    2.418000 H         1 <1>         0.128000 
      8 C           2.640000    2.255000    0.884000 C.2       1 <1>         0.660300 
      9 N           1.547000    2.683000    0.190000 N.am      1 <1>        -0.658500 
     10 H           1.645000    3.613000   -0.210000 H         1 <1>         0.336800 
     11 O           3.701000    2.884000    0.850000 O.2       1 <1>        -0.441200 
     12 O           3.252000   -0.946000    0.772000 O.2       1 <1>        -0.436500 
     13 C           0.778000   -1.589000   -0.391000 C.ar      1 <1>         0.361800 
     14 C           0.156000   -1.616000   -1.652000 C.ar      1 <1>        -0.234000 
     15 H          -0.117000   -0.693000   -2.162000 H         1 <1>         0.136500 
     16 C          -0.096000   -2.826000   -2.304000 C.ar      1 <1>        -0.085100 
     17 H          -0.577000   -2.827000   -3.281000 H         1 <1>         0.109900 
     18 C           0.273000   -4.030000   -1.710000 C.ar      1 <1>        -0.101200 
     19 H           0.076000   -4.972000   -2.217000 H         1 <1>         0.104100 
     20 C           0.900000   -4.023000   -0.467000 C.ar      1 <1>        -0.089800 
     21 H           1.191000   -4.962000    0.001000 H         1 <1>         0.113700 
     22 C           1.155000   -2.812000    0.185000 C.ar      1 <1>        -0.194700 
     23 H           1.629000   -2.846000    1.165000 H         1 <1>         0.140700 
     24 C          -1.334000    0.274000    0.218000 C.ar      1 <1>         0.066100 
     25 H          -1.594000   -0.772000    0.375000 H         1 <1>         0.088100 
     26 C          -2.373000    1.181000    0.014000 C.ar      1 <1>        -0.435700 
     27 C          -2.097000    2.522000   -0.191000 C.ar      1 <1>         0.170200 
     28 H          -2.897000    3.238000   -0.365000 H         1 <1>         0.066800 
     29 C          -0.775000    2.959000   -0.147000 C.ar      1 <1>        -0.307500 
     30 H          -0.582000    4.024000   -0.278000 H         1 <1>         0.157800 
     31 Cl         -4.003000    0.629000   -0.002000 Cl        1 <1>         0.097000 
@<TRIPOS>BOND
     1    1    2 ar   
     2    2    3 1    
     3    3    4 am   
     4    4    5 1    
     5    5    6 1    
     6    5    7 1    
     7    5    8 1    
     8    8    9 am   
     9    9   10 1    
    10    9    1 1    
    11    8   11 2    
    12    4   12 2    
    13    3   13 1    
    14   13   14 ar   
    15   14   15 1    
    16   14   16 ar   
    17   16   17 1    
    18   16   18 ar   
    19   18   19 1    
    20   18   20 ar   
    21   20   21 1    
    22   20   22 ar   
    23   22   23 1    
    24   22   13 ar   
    25    2   24 ar   
    26   24   25 1    
    27   24   26 ar   
    28   26   27 ar   
    29   27   28 1    
    30   27   29 ar   
    31   29   30 1    
    32   29    1 ar   
    33   26   31 1    
@<TRIPOS>SUBSTRUCTURE
     1 ****        1 TEMP              0 ****  ****    0 ROOT 
@<TRIPOS>SET
UNITY_3DHIT     STATIC     ATOMS    <user>   **** Atoms matching 3D or FLEX Search
0
