#	Name:			Diazepam
#	Creating user name:	jeff
#	Creation time:		Tue Nov  4 15:19:49 2003

#	Modifying user name:	jeff
#	Modification time:	Tue Nov  4 15:19:49 2003

@<TRIPOS>MOLECULE
Diazepam
   33    35     1     0     1
SMALL
USER_CHARGES
****
From 3DB ct
@<TRIPOS>ATOM
      1 C          -2.134000    2.505000   -0.152000 C.ar      1 <1>         0.187900 
      2 H          -2.969000    3.190000   -0.288000 H         1 <1>         0.062200 
      3 C          -2.356000    1.148000    0.035000 C.ar      1 <1>        -0.466700 
      4 C          -1.280000    0.283000    0.201000 C.ar      1 <1>         0.138300 
      5 H          -1.469000   -0.780000    0.335000 H         1 <1>         0.068300 
      6 C           0.039000    0.777000    0.180000 C.ar      1 <1>         0.008500 
      7 C           0.284000    2.161000    0.048000 C.ar      1 <1>         0.094800 
      8 C          -0.828000    3.004000   -0.147000 C.ar      1 <1>        -0.226200 
      9 H          -0.710000    4.080000   -0.259000 H         1 <1>         0.129300 
     10 N           1.595000    2.742000    0.102000 N.am      1 <1>        -0.249700 
     11 C           2.636000    2.237000    0.885000 C.2       1 <1>         0.425300 
     12 C           2.300000    1.070000    1.806000 C.3       1 <1>         0.086400 
     13 H           3.132000    0.940000    2.508000 H         1 <1>         0.059100 
     14 H           1.411000    1.275000    2.413000 H         1 <1>         0.019800 
     15 N           2.183000   -0.141000    0.995000 N.2       1 <1>        -0.379300 
     16 C           1.139000   -0.236000    0.235000 C.2       1 <1>         0.139300 
     17 C           1.041000   -1.446000   -0.644000 C.ar      1 <1>         0.106900 
     18 C           0.542000   -1.352000   -1.950000 C.ar      1 <1>        -0.194300 
     19 H           0.218000   -0.400000   -2.362000 H         1 <1>         0.118800 
     20 C           0.470000   -2.493000   -2.752000 C.ar      1 <1>        -0.065800 
     21 H           0.080000   -2.420000   -3.766000 H         1 <1>         0.100100 
     22 C           0.902000   -3.724000   -2.259000 C.ar      1 <1>        -0.116000 
     23 H           0.845000   -4.612000   -2.887000 H         1 <1>         0.106000 
     24 C           1.413000   -3.819000   -0.965000 C.ar      1 <1>        -0.062200 
     25 H           1.755000   -4.779000   -0.584000 H         1 <1>         0.099000 
     26 C           1.488000   -2.682000   -0.159000 C.ar      1 <1>        -0.162900 
     27 H           1.889000   -2.767000    0.850000 H         1 <1>         0.135600 
     28 O           3.774000    2.724000    0.883000 O.2       1 <1>        -0.390400 
     29 C           1.839000    3.982000   -0.632000 C.3       1 <1>        -0.089700 
     30 H           2.908000    4.127000   -0.816000 H         1 <1>         0.098100 
     31 H           1.481000    4.826000   -0.035000 H         1 <1>         0.054600 
     32 H           1.335000    3.954000   -1.603000 H         1 <1>         0.073800 
     33 Cl         -3.962000    0.533000    0.047000 Cl        1 <1>         0.091300 
@<TRIPOS>BOND
     1    2    1 1    
     2    1    3 ar   
     3    3    4 ar   
     4    4    5 1    
     5    4    6 ar   
     6    6    7 ar   
     7    7    8 ar   
     8    8    9 1    
     9    8    1 ar   
    10    7   10 1    
    11   10   11 am   
    12   11   12 1    
    13   12   13 1    
    14   12   14 1    
    15   12   15 1    
    16   15   16 2    
    17   16    6 1    
    18   16   17 1    
    19   17   18 ar   
    20   18   19 1    
    21   18   20 ar   
    22   20   21 1    
    23   20   22 ar   
    24   22   23 1    
    25   22   24 ar   
    26   24   25 1    
    27   24   26 ar   
    28   26   27 1    
    29   26   17 ar   
    30   11   28 2    
    31   10   29 1    
    32   29   30 1    
    33   29   31 1    
    34   29   32 1    
    35    3   33 1    
@<TRIPOS>SUBSTRUCTURE
     1 ****        2 TEMP              0 ****  ****    0 ROOT 
@<TRIPOS>SET
UNITY_3DHIT     STATIC     ATOMS    <user>   **** Atoms matching 3D or FLEX Search
0
@<TRIPOS>UNITY_BOND_ATTR
16 1
S I
