#	Name:			Estazolam
#	Creating user name:	jeff
#	Creation time:		Tue Nov  4 15:19:56 2003

#	Modifying user name:	jeff
#	Modification time:	Tue Nov  4 15:19:56 2003

@<TRIPOS>MOLECULE
Estazolam
   32    35     1     0     1
SMALL
USER_CHARGES
****
From 3DB ct
@<TRIPOS>ATOM
      1 C           0.252000    2.172000    0.071000 C.ar      1 <1>        -0.125500 
      2 C           0.051000    0.783000    0.203000 C.ar      1 <1>         0.157700 
      3 C           1.171000   -0.223000    0.229000 C.2       1 <1>         0.115100 
      4 N           2.259000   -0.129000    0.924000 N.2       1 <1>        -0.367900 
      5 C           2.469000    1.040000    1.770000 C.3       1 <1>         0.130500 
      6 H           3.399000    0.892000    2.330000 H         1 <1>         0.060600 
      7 H           1.675000    1.139000    2.519000 H         1 <1>         0.025100 
      8 C           2.592000    2.261000    0.941000 C.ar      1 <1>         0.136600 
      9 N           1.534000    2.753000    0.208000 N.pl3     1 <1>         0.002100 
     10 C           1.987000    3.959000   -0.266000 C.ar      1 <1>        -0.003500 
     11 H           1.391000    4.625000   -0.875000 H         1 <1>         0.191500 
     12 N           3.239000    4.154000    0.090000 N.ar      1 <1>        -0.215800 
     13 N           3.623000    3.082000    0.852000 N.ar      1 <1>        -0.203200 
     14 C           1.042000   -1.440000   -0.639000 C.ar      1 <1>         0.104000 
     15 C           1.476000   -2.678000   -0.150000 C.ar      1 <1>        -0.176300 
     16 H           1.889000   -2.761000    0.853000 H         1 <1>         0.140900 
     17 C           1.372000   -3.819000   -0.947000 C.ar      1 <1>        -0.055200 
     18 H           1.704000   -4.782000   -0.563000 H         1 <1>         0.098500 
     19 C           0.845000   -3.725000   -2.235000 C.ar      1 <1>        -0.112100 
     20 H           0.766000   -4.616000   -2.856000 H         1 <1>         0.106800 
     21 C           0.427000   -2.491000   -2.732000 C.ar      1 <1>        -0.071600 
     22 H           0.025000   -2.419000   -3.741000 H         1 <1>         0.101200 
     23 C           0.528000   -1.346000   -1.939000 C.ar      1 <1>        -0.191500 
     24 H           0.214000   -0.390000   -2.352000 H         1 <1>         0.123400 
     25 C          -1.262000    0.278000    0.194000 C.ar      1 <1>         0.035200 
     26 H          -1.446000   -0.787000    0.324000 H         1 <1>         0.091900 
     27 C          -2.346000    1.131000   -0.004000 C.ar      1 <1>        -0.392200 
     28 C          -2.144000    2.492000   -0.198000 C.ar      1 <1>         0.156800 
     29 H          -2.987000    3.160000   -0.360000 H         1 <1>         0.064000 
     30 C          -0.849000    3.016000   -0.162000 C.ar      1 <1>        -0.143600 
     31 H          -0.738000    4.093000   -0.272000 H         1 <1>         0.122700 
     32 Cl         -3.944000    0.492000   -0.029000 Cl        1 <1>         0.093700 
@<TRIPOS>BOND
     1    1    2 ar   
     2    2    3 1    
     3    3    4 2    
     4    4    5 1    
     5    5    6 1    
     6    5    7 1    
     7    5    8 1    
     8    8    9 ar   
     9    9    1 1    
    10    9   10 ar   
    11   10   11 1    
    12   10   12 ar   
    13   12   13 ar   
    14   13    8 ar   
    15    3   14 1    
    16   14   15 ar   
    17   15   16 1    
    18   15   17 ar   
    19   17   18 1    
    20   17   19 ar   
    21   19   20 1    
    22   19   21 ar   
    23   21   22 1    
    24   21   23 ar   
    25   23   24 1    
    26   23   14 ar   
    27    2   25 ar   
    28   25   26 1    
    29   25   27 ar   
    30   27   28 ar   
    31   28   29 1    
    32   28   30 ar   
    33   30   31 1    
    34   30    1 ar   
    35   27   32 1    
@<TRIPOS>SUBSTRUCTURE
     1 ****        1 TEMP              0 ****  ****    0 ROOT 
@<TRIPOS>SET
UNITY_3DHIT     STATIC     ATOMS    <user>   **** Atoms matching 3D or FLEX Search
0
@<TRIPOS>UNITY_BOND_ATTR
3 1
S I
