#	Name:			Etizolam
#	Creating user name:	jeff
#	Creation time:		Tue Nov  4 15:19:56 2003

#	Modifying user name:	jeff
#	Modification time:	Tue Nov  4 15:19:57 2003

@<TRIPOS>MOLECULE
Etizolam
   38    41     1     0     1
SMALL
USER_CHARGES
****
From 3DB ct
@<TRIPOS>ATOM
      1 C           0.181000    2.060000    0.164000 C.ar      1 <1>        -0.245800 
      2 C           0.093000    0.676000    0.159000 C.ar      1 <1>         0.308300 
      3 C           1.226000   -0.260000    0.185000 C.2       1 <1>         0.005400 
      4 N           2.332000   -0.075000    0.823000 N.2       1 <1>        -0.386000 
      5 C           2.485000    1.068000    1.717000 C.3       1 <1>         0.221800 
      6 H           3.446000    0.961000    2.233000 H         1 <1>         0.036700 
      7 H           1.722000    1.050000    2.506000 H         1 <1>         0.008400 
      8 C           2.473000    2.363000    0.996000 C.ar      1 <1>         0.159300 
      9 N           1.345000    2.819000    0.335000 N.pl3     1 <1>        -0.166900 
     10 C           1.691000    4.117000   -0.037000 C.ar      1 <1>         0.350100 
     11 N           2.929000    4.376000    0.348000 N.ar      1 <1>        -0.241500 
     12 N           3.419000    3.280000    0.991000 N.ar      1 <1>        -0.226800 
     13 C           0.859000    5.054000   -0.831000 C.3       1 <1>        -0.349700 
     14 H           1.470000    5.896000   -1.174000 H         1 <1>         0.114600 
     15 H           0.048000    5.470000   -0.226000 H         1 <1>         0.111500 
     16 H           0.449000    4.571000   -1.722000 H         1 <1>         0.134100 
     17 C           1.088000   -1.493000   -0.627000 C.ar      1 <1>         0.370300 
     18 C           1.578000   -2.695000   -0.097000 C.ar      1 <1>        -0.332500 
     19 H           2.048000   -2.718000    0.885000 H         1 <1>         0.184700 
     20 C           1.458000   -3.876000   -0.829000 C.ar      1 <1>         0.018700 
     21 H           1.837000   -4.811000   -0.420000 H         1 <1>         0.095400 
     22 C           0.850000   -3.859000   -2.084000 C.ar      1 <1>        -0.177000 
     23 H           0.757000   -4.781000   -2.655000 H         1 <1>         0.120700 
     24 C           0.361000   -2.661000   -2.612000 C.ar      1 <1>         0.111400 
     25 H          -0.105000   -2.664000   -3.595000 H         1 <1>         0.064700 
     26 C           0.478000   -1.473000   -1.886000 C.ar      1 <1>        -0.416800 
     27 Cl         -0.107000   -0.017000   -2.609000 Cl        1 <1>         0.080900 
     28 C          -1.290000    0.284000    0.021000 C.ar      1 <1>        -0.350600 
     29 H          -1.633000   -0.745000   -0.012000 H         1 <1>         0.221400 
     30 C          -2.156000    1.353000   -0.080000 C.ar      1 <1>        -0.194000 
     31 S          -1.314000    2.833000   -0.025000 S.3       1 <1>         0.225300 
     32 C          -3.648000    1.324000   -0.234000 C.3       1 <1>         0.123000 
     33 H          -4.077000    2.218000    0.235000 H         1 <1>         0.023000 
     34 H          -4.075000    0.462000    0.292000 H         1 <1>         0.008800 
     35 C          -4.060000    1.281000   -1.698000 C.3       1 <1>        -0.082200 
     36 H          -5.151000    1.276000   -1.784000 H         1 <1>         0.019000 
     37 H          -3.676000    0.383000   -2.194000 H         1 <1>         0.021500 
     38 H          -3.681000    2.153000   -2.243000 H         1 <1>         0.031000 
@<TRIPOS>BOND
     1    1    2 ar   
     2    2    3 1    
     3    3    4 2    
     4    4    5 1    
     5    5    6 1    
     6    5    7 1    
     7    5    8 1    
     8    8    9 ar   
     9    9    1 1    
    10    9   10 ar   
    11   10   11 ar   
    12   11   12 ar   
    13   12    8 ar   
    14   10   13 1    
    15   13   14 1    
    16   13   15 1    
    17   13   16 1    
    18    3   17 1    
    19   17   18 ar   
    20   18   19 1    
    21   18   20 ar   
    22   20   21 1    
    23   20   22 ar   
    24   22   23 1    
    25   22   24 ar   
    26   24   25 1    
    27   24   26 ar   
    28   26   17 ar   
    29   26   27 1    
    30    2   28 ar   
    31   28   29 1    
    32   28   30 ar   
    33   30   31 ar   
    34   31    1 ar   
    35   30   32 1    
    36   32   33 1    
    37   32   34 1    
    38   32   35 1    
    39   35   36 1    
    40   35   37 1    
    41   35   38 1    
@<TRIPOS>SUBSTRUCTURE
     1 ****        1 TEMP              0 ****  ****    0 ROOT 
@<TRIPOS>SET
UNITY_3DHIT     STATIC     ATOMS    <user>   **** Atoms matching 3D or FLEX Search
0
@<TRIPOS>UNITY_BOND_ATTR
3 1
S I
