#	Name:			Flunitrazepam
#	Creating user name:	jeff
#	Creation time:		Tue Nov  4 15:19:51 2003

#	Modifying user name:	jeff
#	Modification time:	Tue Nov  4 15:19:51 2003

@<TRIPOS>MOLECULE
Flunitrazepam
   35    37     1     0     1
SMALL
USER_CHARGES
****
From 3DB ct
@<TRIPOS>ATOM
      1 C          -2.136000    2.494000   -0.171000 C.ar      1 <1>        -0.155300 
      2 H          -2.961000    3.189000   -0.314000 H         1 <1>         0.174900 
      3 C          -2.356000    1.130000    0.010000 C.ar      1 <1>         0.092900 
      4 C          -1.273000    0.263000    0.185000 C.ar      1 <1>        -0.231900 
      5 H          -1.447000   -0.802000    0.318000 H         1 <1>         0.190600 
      6 C           0.044000    0.767000    0.184000 C.ar      1 <1>         0.074600 
      7 C           0.286000    2.153000    0.051000 C.ar      1 <1>         0.044500 
      8 C          -0.828000    2.993000   -0.152000 C.ar      1 <1>        -0.088800 
      9 H          -0.711000    4.070000   -0.262000 H         1 <1>         0.121900 
     10 N           1.594000    2.740000    0.104000 N.am      1 <1>        -0.234000 
     11 C           2.640000    2.243000    0.886000 C.2       1 <1>         0.424500 
     12 C           2.315000    1.075000    1.807000 C.3       1 <1>         0.027700 
     13 H           3.148000    0.948000    2.506000 H         1 <1>         0.078900 
     14 H           1.426000    1.274000    2.415000 H         1 <1>         0.035700 
     15 N           2.202000   -0.137000    0.994000 N.2       1 <1>        -0.386200 
     16 C           1.151000   -0.241000    0.248000 C.2       1 <1>         0.322500 
     17 C           1.048000   -1.447000   -0.624000 C.ar      1 <1>        -0.229000 
     18 C           1.426000   -2.703000   -0.134000 C.ar      1 <1>        -0.029900 
     19 H           1.794000   -2.822000    0.883000 H         1 <1>         0.126500 
     20 C           1.317000   -3.830000   -0.953000 C.ar      1 <1>        -0.133200 
     21 H           1.610000   -4.808000   -0.573000 H         1 <1>         0.116300 
     22 C           0.828000   -3.707000   -2.255000 C.ar      1 <1>        -0.039800 
     23 H           0.745000   -4.588000   -2.890000 H         1 <1>         0.114200 
     24 C           0.446000   -2.457000   -2.742000 C.ar      1 <1>        -0.234000 
     25 H           0.067000   -2.354000   -3.755000 H         1 <1>         0.150500 
     26 C           0.554000   -1.334000   -1.925000 C.ar      1 <1>         0.356100 
     27 F           0.203000   -0.141000   -2.431000 F         1 <1>        -0.251200 
     28 O           3.775000    2.738000    0.882000 O.2       1 <1>        -0.378200 
     29 C           1.833000    3.979000   -0.634000 C.3       1 <1>        -0.082000 
     30 H           2.901000    4.128000   -0.820000 H         1 <1>         0.096800 
     31 H           1.474000    4.824000   -0.038000 H         1 <1>         0.051700 
     32 H           1.328000    3.948000   -1.604000 H         1 <1>         0.075600 
     33 N          -3.727000    0.602000    0.005000 N.2       1 <1>         0.532900 
     34 O          -3.889000   -0.619000    0.190000 O.2       1 <1>        -0.367700 
     35 O          -4.666000    1.398000   -0.181000 O.3       1 <1>        -0.368000 
@<TRIPOS>BOND
     1    2    1 1    
     2    1    3 ar   
     3    3    4 ar   
     4    4    5 1    
     5    4    6 ar   
     6    6    7 ar   
     7    7    8 ar   
     8    8    9 1    
     9    8    1 ar   
    10    7   10 1    
    11   10   11 am   
    12   11   12 1    
    13   12   13 1    
    14   12   14 1    
    15   12   15 1    
    16   15   16 2    
    17   16    6 1    
    18   16   17 1    
    19   17   18 ar   
    20   18   19 1    
    21   18   20 ar   
    22   20   21 1    
    23   20   22 ar   
    24   22   23 1    
    25   22   24 ar   
    26   24   25 1    
    27   24   26 ar   
    28   26   17 ar   
    29   26   27 1    
    30   11   28 2    
    31   10   29 1    
    32   29   30 1    
    33   29   31 1    
    34   29   32 1    
    35    3   33 1    
    36   33   34 2    
    37   33   35 1    
@<TRIPOS>SUBSTRUCTURE
     1 ****        2 TEMP              0 ****  ****    0 ROOT 
@<TRIPOS>SET
UNITY_3DHIT     STATIC     ATOMS    <user>   **** Atoms matching 3D or FLEX Search
0
@<TRIPOS>UNITY_ATOM_ATTR
33 1
AtomExpr +1
35 1
AtomExpr -1
@<TRIPOS>UNITY_BOND_ATTR
16 1
S I
