#	Name:			Halazepam
#	Creating user name:	jeff
#	Creation time:		Tue Nov  4 15:19:53 2003

#	Modifying user name:	jeff
#	Modification time:	Tue Nov  4 15:19:53 2003

@<TRIPOS>MOLECULE
Halazepam
   36    38     1     0     1
SMALL
USER_CHARGES
****
From 3DB ct
@<TRIPOS>ATOM
      1 C          -2.146000    2.493000   -0.159000 C.ar      1 <1>         0.211200 
      2 H          -2.984000    3.172000   -0.302000 H         1 <1>         0.063300 
      3 C          -2.360000    1.137000    0.030000 C.ar      1 <1>        -0.480600 
      4 C          -1.280000    0.281000    0.203000 C.ar      1 <1>         0.160300 
      5 H          -1.463000   -0.783000    0.338000 H         1 <1>         0.065700 
      6 C           0.036000    0.784000    0.187000 C.ar      1 <1>        -0.019500 
      7 C           0.277000    2.172000    0.057000 C.ar      1 <1>         0.102600 
      8 C          -0.842000    3.003000   -0.147000 C.ar      1 <1>        -0.239600 
      9 H          -0.745000    4.079000   -0.264000 H         1 <1>         0.135300 
     10 N           1.588000    2.757000    0.123000 N.am      1 <1>        -0.165000 
     11 C           2.636000    2.225000    0.880000 C.2       1 <1>         0.393600 
     12 C           2.297000    1.071000    1.816000 C.3       1 <1>         0.115000 
     13 H           3.128000    0.946000    2.518000 H         1 <1>         0.060900 
     14 H           1.408000    1.284000    2.420000 H         1 <1>         0.018600 
     15 N           2.176000   -0.142000    1.010000 N.2       1 <1>        -0.393900 
     16 C           1.136000   -0.231000    0.245000 C.2       1 <1>         0.163000 
     17 C           1.040000   -1.440000   -0.638000 C.ar      1 <1>         0.094700 
     18 C           0.543000   -1.342000   -1.944000 C.ar      1 <1>        -0.186700 
     19 H           0.218000   -0.389000   -2.354000 H         1 <1>         0.116500 
     20 C           0.473000   -2.481000   -2.750000 C.ar      1 <1>        -0.074800 
     21 H           0.084000   -2.405000   -3.764000 H         1 <1>         0.102900 
     22 C           0.906000   -3.713000   -2.260000 C.ar      1 <1>        -0.107500 
     23 H           0.851000   -4.599000   -2.891000 H         1 <1>         0.106100 
     24 C           1.416000   -3.811000   -0.966000 C.ar      1 <1>        -0.064700 
     25 H           1.758000   -4.772000   -0.587000 H         1 <1>         0.100500 
     26 C           1.488000   -2.676000   -0.156000 C.ar      1 <1>        -0.157900 
     27 H           1.888000   -2.764000    0.853000 H         1 <1>         0.135700 
     28 O           3.786000    2.678000    0.829000 O.2       1 <1>        -0.363000 
     29 C           1.879000    3.996000   -0.639000 C.3       1 <1>        -0.500500 
     30 H           1.167000    4.105000   -1.464000 H         1 <1>         0.202300 
     31 H           2.858000    3.864000   -1.117000 H         1 <1>         0.206100 
     32 C           1.936000    5.283000    0.189000 C.3       1 <1>         1.023500 
     33 F           2.200000    6.360000   -0.598000 F         1 <1>        -0.311700 
     34 F           0.763000    5.542000    0.820000 F         1 <1>        -0.313300 
     35 F           2.897000    5.255000    1.144000 F         1 <1>        -0.299000 
     36 Cl         -3.963000    0.511000    0.036000 Cl        1 <1>         0.099500 
@<TRIPOS>BOND
     1    2    1 1    
     2    1    3 ar   
     3    3    4 ar   
     4    4    5 1    
     5    4    6 ar   
     6    6    7 ar   
     7    7    8 ar   
     8    8    9 1    
     9    8    1 ar   
    10    7   10 1    
    11   10   11 am   
    12   11   12 1    
    13   12   13 1    
    14   12   14 1    
    15   12   15 1    
    16   15   16 2    
    17   16    6 1    
    18   16   17 1    
    19   17   18 ar   
    20   18   19 1    
    21   18   20 ar   
    22   20   21 1    
    23   20   22 ar   
    24   22   23 1    
    25   22   24 ar   
    26   24   25 1    
    27   24   26 ar   
    28   26   27 1    
    29   26   17 ar   
    30   11   28 2    
    31   10   29 1    
    32   29   30 1    
    33   29   31 1    
    34   29   32 1    
    35   32   33 1    
    36   32   34 1    
    37   32   35 1    
    38    3   36 1    
@<TRIPOS>SUBSTRUCTURE
     1 ****        2 TEMP              0 ****  ****    0 ROOT 
@<TRIPOS>SET
UNITY_3DHIT     STATIC     ATOMS    <user>   **** Atoms matching 3D or FLEX Search
0
@<TRIPOS>UNITY_BOND_ATTR
16 1
S I
