#	Name:			Lorazepam
#	Creating user name:	jeff
#	Creation time:		Tue Nov  4 15:19:55 2003

#	Modifying user name:	jeff
#	Modification time:	Tue Nov  4 15:19:55 2003

@<TRIPOS>MOLECULE
Lorazepam
   31    33     1     0     1
SMALL
USER_CHARGES
****
From 3DB ct
@<TRIPOS>ATOM
      1 C          -2.116000    2.503000   -0.147000 C.ar      1 <1>         0.254000 
      2 H          -2.948000    3.188000   -0.296000 H         1 <1>         0.063500 
      3 C          -2.333000    1.135000   -0.032000 C.ar      1 <1>        -0.534300 
      4 C          -1.261000    0.263000    0.140000 C.ar      1 <1>         0.203700 
      5 H          -1.455000   -0.805000    0.202000 H         1 <1>         0.062900 
      6 C           0.052000    0.762000    0.209000 C.ar      1 <1>        -0.159600 
      7 C           0.272000    2.150000    0.157000 C.ar      1 <1>         0.408900 
      8 C          -0.817000    3.007000   -0.060000 C.ar      1 <1>        -0.379500 
      9 H          -0.670000    4.084000   -0.133000 H         1 <1>         0.157800 
     10 N           1.528000    2.769000    0.277000 N.am      1 <1>        -0.638800 
     11 H           1.626000    3.718000   -0.074000 H         1 <1>         0.358600 
     12 C           2.639000    2.276000    0.913000 C.2       1 <1>         0.388500 
     13 C           2.453000    0.992000    1.770000 C.3       1 <1>         0.502500 
     14 H           1.590000    1.125000    2.432000 H         1 <1>         0.013600 
     15 N           2.274000   -0.141000    0.876000 N.2       1 <1>        -0.490800 
     16 C           1.179000   -0.226000    0.194000 C.2       1 <1>         0.074800 
     17 C           1.039000   -1.431000   -0.677000 C.ar      1 <1>         0.576500 
     18 C           1.476000   -2.656000   -0.152000 C.ar      1 <1>        -0.397300 
     19 H           1.900000   -2.707000    0.849000 H         1 <1>         0.191000 
     20 C           1.359000   -3.823000   -0.909000 C.ar      1 <1>         0.053500 
     21 H           1.691000   -4.774000   -0.497000 H         1 <1>         0.093100 
     22 C           0.816000   -3.769000   -2.191000 C.ar      1 <1>        -0.220700 
     23 H           0.725000   -4.679000   -2.782000 H         1 <1>         0.127500 
     24 C           0.397000   -2.548000   -2.725000 C.ar      1 <1>         0.202800 
     25 H          -0.011000   -2.522000   -3.733000 H         1 <1>         0.056300 
     26 C           0.511000   -1.374000   -1.974000 C.ar      1 <1>        -0.620100 
     27 Cl          0.028000    0.106000   -2.724000 Cl        1 <1>         0.118200 
     28 O           3.570000    0.795000    2.632000 O.3       1 <1>        -0.492000 
     29 H           4.284000    0.538000    2.013000 H         1 <1>         0.312000 
     30 O           3.713000    2.889000    0.850000 O.2       1 <1>        -0.388700 
     31 Cl         -3.935000    0.513000   -0.129000 Cl        1 <1>         0.102300 
@<TRIPOS>BOND
     1    2    1 1    
     2    1    3 ar   
     3    3    4 ar   
     4    4    5 1    
     5    4    6 ar   
     6    6    7 ar   
     7    7    8 ar   
     8    8    9 1    
     9    8    1 ar   
    10    7   10 1    
    11   10   11 1    
    12   10   12 am   
    13   12   13 1    
    14   13   14 1    
    15   13   15 1    
    16   15   16 2    
    17   16    6 1    
    18   16   17 1    
    19   17   18 ar   
    20   18   19 1    
    21   18   20 ar   
    22   20   21 1    
    23   20   22 ar   
    24   22   23 1    
    25   22   24 ar   
    26   24   25 1    
    27   24   26 ar   
    28   26   17 ar   
    29   26   27 1    
    30   13   28 1    
    31   28   29 1    
    32   12   30 2    
    33    3   31 1    
@<TRIPOS>SUBSTRUCTURE
     1 ****        2 TEMP              0 ****  ****    0 ROOT 
@<TRIPOS>SET
UNITY_3DHIT     STATIC     ATOMS    <user>   **** Atoms matching 3D or FLEX Search
0
@<TRIPOS>UNITY_BOND_ATTR
16 1
S I
