#	Name:			Meclonazepam
#	Creating user name:	jeff
#	Creation time:		Tue Nov  4 15:19:54 2003

#	Modifying user name:	jeff
#	Modification time:	Tue Nov  4 15:19:54 2003

@<TRIPOS>MOLECULE
Meclonazepam
   35    37     1     0     1
SMALL
USER_CHARGES
****
From 3DB ct
@<TRIPOS>ATOM
      1 C          -2.100000    2.480000   -0.256000 C.ar      1 <1>        -0.075400 
      2 H          -2.914000    3.175000   -0.446000 H         1 <1>         0.172500 
      3 C          -2.330000    1.112000   -0.093000 C.ar      1 <1>        -0.041900 
      4 C          -1.259000    0.236000    0.132000 C.ar      1 <1>        -0.110100 
      5 H          -1.446000   -0.830000    0.233000 H         1 <1>         0.171300 
      6 C           0.056000    0.734000    0.212000 C.ar      1 <1>        -0.112200 
      7 C           0.284000    2.119000    0.110000 C.ar      1 <1>         0.349600 
      8 C          -0.796000    2.974000   -0.161000 C.ar      1 <1>        -0.228500 
      9 H          -0.639000    4.046000   -0.272000 H         1 <1>         0.141100 
     10 N           1.538000    2.741000    0.236000 N.am      1 <1>        -0.650400 
     11 H           1.641000    3.678000   -0.147000 H         1 <1>         0.355800 
     12 C           2.638000    2.284000    0.917000 C.2       1 <1>         0.451400 
     13 C           2.442000    1.040000    1.791000 C.3       1 <1>         0.395700 
     14 H           1.575000    1.185000    2.448000 H         1 <1>        -0.015100 
     15 N           2.276000   -0.133000    0.930000 N.2       1 <1>        -0.507400 
     16 C           1.180000   -0.255000    0.257000 C.2       1 <1>         0.191500 
     17 C           1.055000   -1.472000   -0.593000 C.ar      1 <1>         0.474800 
     18 C           1.506000   -2.690000   -0.064000 C.ar      1 <1>        -0.355000 
     19 H           1.933000   -2.739000    0.935000 H         1 <1>         0.175300 
     20 C           1.397000   -3.858000   -0.820000 C.ar      1 <1>         0.040600 
     21 H           1.746000   -4.805000   -0.411000 H         1 <1>         0.096000 
     22 C           0.839000   -3.814000   -2.097000 C.ar      1 <1>        -0.212100 
     23 H           0.755000   -4.726000   -2.685000 H         1 <1>         0.127100 
     24 C           0.387000   -2.601000   -2.623000 C.ar      1 <1>         0.199300 
     25 H          -0.040000   -2.583000   -3.624000 H         1 <1>         0.053900 
     26 C           0.492000   -1.426000   -1.875000 C.ar      1 <1>        -0.564600 
     27 Cl         -0.037000    0.049000   -2.605000 Cl        1 <1>         0.099900 
     28 C           3.659000    0.786000    2.675000 C.3       1 <1>        -0.310500 
     29 H           3.847000    1.639000    3.336000 H         1 <1>         0.058200 
     30 H           4.562000    0.621000    2.076000 H         1 <1>         0.098900 
     31 H           3.507000   -0.103000    3.296000 H         1 <1>         0.093700 
     32 O           3.698000    2.916000    0.861000 O.2       1 <1>        -0.387700 
     33 N          -3.699000    0.587000   -0.179000 N.2       1 <1>         0.579900 
     34 O          -4.629000    1.390000   -0.382000 O.2       1 <1>        -0.377300 
     35 O          -3.871000   -0.639000   -0.043000 O.3       1 <1>        -0.378200 
@<TRIPOS>BOND
     1    2    1 1    
     2    1    3 ar   
     3    3    4 ar   
     4    4    5 1    
     5    4    6 ar   
     6    6    7 ar   
     7    7    8 ar   
     8    8    9 1    
     9    8    1 ar   
    10    7   10 1    
    11   10   11 1    
    12   10   12 am   
    13   12   13 1    
    14   13   14 1    
    15   13   15 1    
    16   15   16 2    
    17   16    6 1    
    18   16   17 1    
    19   17   18 ar   
    20   18   19 1    
    21   18   20 ar   
    22   20   21 1    
    23   20   22 ar   
    24   22   23 1    
    25   22   24 ar   
    26   24   25 1    
    27   24   26 ar   
    28   26   17 ar   
    29   26   27 1    
    30   13   28 1    
    31   28   29 1    
    32   28   30 1    
    33   28   31 1    
    34   12   32 2    
    35    3   33 1    
    36   33   34 2    
    37   33   35 1    
@<TRIPOS>SUBSTRUCTURE
     1 ****        2 TEMP              0 ****  ****    0 ROOT 
@<TRIPOS>SET
UNITY_3DHIT     STATIC     ATOMS    <user>   **** Atoms matching 3D or FLEX Search
0
@<TRIPOS>UNITY_ATOM_ATTR
33 1
AtomExpr +1
35 1
AtomExpr -1
@<TRIPOS>UNITY_BOND_ATTR
16 1
S I
