#	Name:			Medazepam
#	Creating user name:	jeff
#	Creation time:		Tue Nov  4 15:19:56 2003

#	Modifying user name:	jeff
#	Modification time:	Tue Nov  4 15:19:56 2003

@<TRIPOS>MOLECULE
Medazepam
   34    36     1     0     1
SMALL
USER_CHARGES
****
From 3DB ct
@<TRIPOS>ATOM
      1 C           0.289000    2.149000    0.012000 C.ar      1 <1>         0.245200 
      2 C           0.007000    0.772000    0.165000 C.ar      1 <1>        -0.103500 
      3 C           1.113000   -0.234000    0.249000 C.2       1 <1>         0.182100 
      4 N           2.126000   -0.138000    1.054000 N.2       1 <1>        -0.431100 
      5 C           2.184000    1.059000    1.905000 C.3       1 <1>         0.188400 
      6 H           2.974000    0.900000    2.649000 H         1 <1>         0.024300 
      7 H           1.258000    1.189000    2.480000 H         1 <1>         0.004100 
      8 C           2.531000    2.306000    1.084000 C.3       1 <1>        -0.023900 
      9 H           3.527000    2.172000    0.643000 H         1 <1>         0.082300 
     10 H           2.593000    3.160000    1.769000 H         1 <1>         0.032900 
     11 N           1.587000    2.644000   -0.005000 N.pl3     1 <1>        -0.283900 
     12 C           1.901000    3.862000   -0.753000 C.3       1 <1>        -0.130200 
     13 H           2.982000    3.940000   -0.918000 H         1 <1>         0.084100 
     14 H           1.581000    4.753000   -0.203000 H         1 <1>         0.071100 
     15 H           1.426000    3.855000   -1.741000 H         1 <1>         0.082800 
     16 C           1.052000   -1.434000   -0.649000 C.ar      1 <1>         0.100400 
     17 C           0.570000   -1.335000   -1.961000 C.ar      1 <1>        -0.188800 
     18 H           0.236000   -0.383000   -2.368000 H         1 <1>         0.112500 
     19 C           0.528000   -2.467000   -2.777000 C.ar      1 <1>        -0.060100 
     20 H           0.152000   -2.389000   -3.796000 H         1 <1>         0.099100 
     21 C           0.974000   -3.697000   -2.293000 C.ar      1 <1>        -0.132700 
     22 H           0.941000   -4.578000   -2.932000 H         1 <1>         0.108800 
     23 C           1.467000   -3.798000   -0.993000 C.ar      1 <1>        -0.070200 
     24 H           1.819000   -4.757000   -0.617000 H         1 <1>         0.098500 
     25 C           1.511000   -2.668000   -0.172000 C.ar      1 <1>        -0.148400 
     26 H           1.898000   -2.760000    0.841000 H         1 <1>         0.131800 
     27 C          -1.314000    0.291000    0.220000 C.ar      1 <1>         0.172100 
     28 H          -1.510000   -0.768000    0.364000 H         1 <1>         0.060700 
     29 C          -2.376000    1.176000    0.084000 C.ar      1 <1>        -0.475700 
     30 C          -2.134000    2.530000   -0.102000 C.ar      1 <1>         0.180700 
     31 H          -2.958000    3.231000   -0.211000 H         1 <1>         0.063200 
     32 C          -0.817000    3.006000   -0.137000 C.ar      1 <1>        -0.275900 
     33 H          -0.678000    4.079000   -0.261000 H         1 <1>         0.122200 
     34 Cl         -3.993000    0.592000    0.140000 Cl        1 <1>         0.077000 
@<TRIPOS>BOND
     1    1    2 ar   
     2    2    3 1    
     3    3    4 2    
     4    4    5 1    
     5    5    6 1    
     6    5    7 1    
     7    5    8 1    
     8    8    9 1    
     9    8   10 1    
    10    8   11 1    
    11   11    1 1    
    12   11   12 1    
    13   12   13 1    
    14   12   14 1    
    15   12   15 1    
    16    3   16 1    
    17   16   17 ar   
    18   17   18 1    
    19   17   19 ar   
    20   19   20 1    
    21   19   21 ar   
    22   21   22 1    
    23   21   23 ar   
    24   23   24 1    
    25   23   25 ar   
    26   25   26 1    
    27   25   16 ar   
    28    2   27 ar   
    29   27   28 1    
    30   27   29 ar   
    31   29   30 ar   
    32   30   31 1    
    33   30   32 ar   
    34   32   33 1    
    35   32    1 ar   
    36   29   34 1    
@<TRIPOS>SUBSTRUCTURE
     1 ****        1 TEMP              0 ****  ****    0 ROOT 
@<TRIPOS>SET
UNITY_3DHIT     STATIC     ATOMS    <user>   **** Atoms matching 3D or FLEX Search
0
@<TRIPOS>UNITY_BOND_ATTR
3 1
S I
