#	Name:			Midazolam
#	Creating user name:	jeff
#	Creation time:		Tue Nov  4 15:19:57 2003

#	Modifying user name:	jeff
#	Modification time:	Tue Nov  4 15:19:57 2003

@<TRIPOS>MOLECULE
Midazolam
   36    39     1     0     1
SMALL
USER_CHARGES
****
From 3DB ct
@<TRIPOS>ATOM
      1 C           0.262000    2.166000    0.025000 C.ar      1 <1>         0.235800 
      2 C           0.043000    0.780000    0.169000 C.ar      1 <1>        -0.080300 
      3 C           1.156000   -0.228000    0.224000 C.2       1 <1>         0.316900 
      4 N           2.213000   -0.132000    0.965000 N.2       1 <1>        -0.371500 
      5 C           2.376000    1.048000    1.804000 C.3       1 <1>         0.088600 
      6 H           3.262000    0.901000    2.433000 H         1 <1>         0.071200 
      7 H           1.532000    1.178000    2.493000 H         1 <1>         0.037300 
      8 C           2.569000    2.226000    0.932000 C.ar      1 <1>        -0.152500 
      9 N           1.572000    2.713000    0.109000 N.pl3     1 <1>        -0.214800 
     10 C           2.116000    3.827000   -0.528000 C.ar      1 <1>         0.349000 
     11 N           3.349000    4.067000   -0.110000 N.ar      1 <1>        -0.405700 
     12 C           3.637000    3.078000    0.786000 C.ar      1 <1>         0.025200 
     13 H           4.596000    3.026000    1.291000 H         1 <1>         0.149100 
     14 C           1.456000    4.592000   -1.623000 C.3       1 <1>        -0.235200 
     15 H           2.217000    5.060000   -2.258000 H         1 <1>         0.097200 
     16 H           0.833000    5.392000   -1.215000 H         1 <1>         0.076100 
     17 H           0.852000    3.946000   -2.267000 H         1 <1>         0.077900 
     18 C           1.050000   -1.440000   -0.643000 C.ar      1 <1>        -0.186000 
     19 C           1.493000   -2.675000   -0.152000 C.ar      1 <1>        -0.055100 
     20 H           1.899000   -2.756000    0.854000 H         1 <1>         0.127700 
     21 C           1.404000   -3.816000   -0.954000 C.ar      1 <1>        -0.129300 
     22 H           1.742000   -4.777000   -0.569000 H         1 <1>         0.113200 
     23 C           0.885000   -3.727000   -2.246000 C.ar      1 <1>        -0.039000 
     24 H           0.819000   -4.617000   -2.869000 H         1 <1>         0.111900 
     25 C           0.459000   -2.495000   -2.744000 C.ar      1 <1>        -0.261800 
     26 H           0.066000   -2.416000   -3.754000 H         1 <1>         0.155500 
     27 C           0.548000   -1.358000   -1.944000 C.ar      1 <1>         0.366700 
     28 F           0.161000   -0.182000   -2.461000 F         1 <1>        -0.256100 
     29 C          -1.273000    0.284000    0.183000 C.ar      1 <1>         0.139300 
     30 H          -1.464000   -0.779000    0.314000 H         1 <1>         0.065500 
     31 C          -2.351000    1.151000    0.024000 C.ar      1 <1>        -0.434400 
     32 C          -2.138000    2.515000   -0.142000 C.ar      1 <1>         0.194800 
     33 H          -2.979000    3.197000   -0.255000 H         1 <1>         0.062800 
     34 C          -0.837000    3.024000   -0.135000 C.ar      1 <1>        -0.269000 
     35 H          -0.722000    4.103000   -0.197000 H         1 <1>         0.141300 
     36 Cl         -3.957000    0.531000    0.031000 Cl        1 <1>         0.087800 
@<TRIPOS>BOND
     1    1    2 ar   
     2    2    3 1    
     3    3    4 2    
     4    4    5 1    
     5    5    6 1    
     6    5    7 1    
     7    5    8 1    
     8    8    9 ar   
     9    9    1 1    
    10    9   10 ar   
    11   10   11 ar   
    12   11   12 ar   
    13   12   13 1    
    14   12    8 ar   
    15   10   14 1    
    16   14   15 1    
    17   14   16 1    
    18   14   17 1    
    19    3   18 1    
    20   18   19 ar   
    21   19   20 1    
    22   19   21 ar   
    23   21   22 1    
    24   21   23 ar   
    25   23   24 1    
    26   23   25 ar   
    27   25   26 1    
    28   25   27 ar   
    29   27   18 ar   
    30   27   28 1    
    31    2   29 ar   
    32   29   30 1    
    33   29   31 ar   
    34   31   32 ar   
    35   32   33 1    
    36   32   34 ar   
    37   34   35 1    
    38   34    1 ar   
    39   31   36 1    
@<TRIPOS>SUBSTRUCTURE
     1 ****        1 TEMP              0 ****  ****    0 ROOT 
@<TRIPOS>SET
UNITY_3DHIT     STATIC     ATOMS    <user>   **** Atoms matching 3D or FLEX Search
0
@<TRIPOS>UNITY_BOND_ATTR
3 1
S I
