#	Name:			Nitrazepam
#	Creating user name:	jeff
#	Creation time:		Tue Nov  4 15:19:50 2003

#	Modifying user name:	jeff
#	Modification time:	Tue Nov  4 15:19:51 2003

@<TRIPOS>MOLECULE
Nitrazepam
   32    34     1     0     1
SMALL
USER_CHARGES
****
From 3DB ct
@<TRIPOS>ATOM
      1 C          -2.105000    2.521000   -0.211000 C.ar      1 <1>        -0.106800 
      2 H          -2.917000    3.224000   -0.385000 H         1 <1>         0.170100 
      3 C          -2.345000    1.157000   -0.032000 C.ar      1 <1>         0.043900 
      4 C          -1.278000    0.271000    0.170000 C.ar      1 <1>        -0.191200 
      5 H          -1.468000   -0.794000    0.284000 H         1 <1>         0.195000 
      6 C           0.043000    0.756000    0.204000 C.ar      1 <1>        -0.020600 
      7 C           0.281000    2.139000    0.101000 C.ar      1 <1>         0.224000 
      8 C          -0.794000    3.004000   -0.149000 C.ar      1 <1>        -0.191000 
      9 H          -0.629000    4.075000   -0.263000 H         1 <1>         0.138600 
     10 N           1.543000    2.746000    0.225000 N.am      1 <1>        -0.548700 
     11 H           1.661000    3.682000   -0.153000 H         1 <1>         0.323700 
     12 C           2.627000    2.265000    0.915000 C.2       1 <1>         0.483800 
     13 C           2.406000    1.033000    1.779000 C.3       1 <1>         0.077200 
     14 H           3.296000    0.891000    2.402000 H         1 <1>         0.063900 
     15 H           1.562000    1.179000    2.463000 H         1 <1>         0.030800 
     16 N           2.240000   -0.146000    0.931000 N.2       1 <1>        -0.408300 
     17 C           1.159000   -0.246000    0.228000 C.2       1 <1>         0.320700 
     18 C           1.039000   -1.459000   -0.644000 C.ar      1 <1>        -0.083400 
     19 C           0.529000   -1.363000   -1.946000 C.ar      1 <1>        -0.083400 
     20 H           0.213000   -0.407000   -2.357000 H         1 <1>         0.090900 
     21 C           0.437000   -2.506000   -2.743000 C.ar      1 <1>        -0.098500 
     22 H           0.039000   -2.433000   -3.754000 H         1 <1>         0.105800 
     23 C           0.860000   -3.740000   -2.249000 C.ar      1 <1>        -0.089600 
     24 H           0.787000   -4.630000   -2.873000 H         1 <1>         0.103100 
     25 C           1.382000   -3.836000   -0.959000 C.ar      1 <1>        -0.063300 
     26 H           1.717000   -4.799000   -0.577000 H         1 <1>         0.096900 
     27 C           1.477000   -2.697000   -0.158000 C.ar      1 <1>        -0.112700 
     28 H           1.887000   -2.781000    0.847000 H         1 <1>         0.126300 
     29 O           3.709000    2.861000    0.880000 O.2       1 <1>        -0.399700 
     30 N          -3.721000    0.646000   -0.077000 N.2       1 <1>         0.537600 
     31 O          -3.904000   -0.575000    0.094000 O.2       1 <1>        -0.366300 
     32 O          -4.646000    1.454000   -0.283000 O.3       1 <1>        -0.368900 
@<TRIPOS>BOND
     1    2    1 1    
     2    1    3 ar   
     3    3    4 ar   
     4    4    5 1    
     5    4    6 ar   
     6    6    7 ar   
     7    7    8 ar   
     8    8    9 1    
     9    8    1 ar   
    10    7   10 1    
    11   10   11 1    
    12   10   12 am   
    13   12   13 1    
    14   13   14 1    
    15   13   15 1    
    16   13   16 1    
    17   16   17 2    
    18   17    6 1    
    19   17   18 1    
    20   18   19 ar   
    21   19   20 1    
    22   19   21 ar   
    23   21   22 1    
    24   21   23 ar   
    25   23   24 1    
    26   23   25 ar   
    27   25   26 1    
    28   25   27 ar   
    29   27   28 1    
    30   27   18 ar   
    31   12   29 2    
    32    3   30 1    
    33   30   31 2    
    34   30   32 1    
@<TRIPOS>SUBSTRUCTURE
     1 ****        2 TEMP              0 ****  ****    0 ROOT 
@<TRIPOS>SET
UNITY_3DHIT     STATIC     ATOMS    <user>   **** Atoms matching 3D or FLEX Search
0
@<TRIPOS>UNITY_ATOM_ATTR
30 1
AtomExpr +1
32 1
AtomExpr -1
@<TRIPOS>UNITY_BOND_ATTR
17 1
S I
