#	Name:			Nordazepam
#	Creating user name:	jeff
#	Creation time:		Tue Nov  4 15:19:49 2003

#	Modifying user name:	jeff
#	Modification time:	Tue Nov  4 15:19:49 2003

@<TRIPOS>MOLECULE
Nordazepam
   30    32     1     0     1
SMALL
USER_CHARGES
****
From 3DB ct
@<TRIPOS>ATOM
      1 C          -2.108000    2.505000   -0.181000 C.ar      1 <1>         0.240600 
      2 H          -2.935000    3.192000   -0.347000 H         1 <1>         0.056800 
      3 C          -2.339000    1.145000   -0.005000 C.ar      1 <1>        -0.495500 
      4 C          -1.273000    0.270000    0.187000 C.ar      1 <1>         0.176300 
      5 H          -1.472000   -0.794000    0.296000 H         1 <1>         0.068300 
      6 C           0.047000    0.756000    0.214000 C.ar      1 <1>        -0.136600 
      7 C           0.279000    2.139000    0.113000 C.ar      1 <1>         0.331700 
      8 C          -0.803000    2.998000   -0.127000 C.ar      1 <1>        -0.352100 
      9 H          -0.647000    4.070000   -0.239000 H         1 <1>         0.152900 
     10 N           1.539000    2.751000    0.229000 N.am      1 <1>        -0.589300 
     11 H           1.650000    3.688000   -0.149000 H         1 <1>         0.330000 
     12 C           2.630000    2.271000    0.906000 C.2       1 <1>         0.485100 
     13 C           2.421000    1.036000    1.770000 C.3       1 <1>         0.108400 
     14 H           3.317000    0.896000    2.384000 H         1 <1>         0.052800 
     15 H           1.583000    1.179000    2.462000 H         1 <1>         0.021600 
     16 N           2.251000   -0.142000    0.921000 N.2       1 <1>        -0.408300 
     17 C           1.163000   -0.244000    0.228000 C.2       1 <1>         0.234200 
     18 C           1.037000   -1.458000   -0.642000 C.ar      1 <1>         0.049600 
     19 C           0.524000   -1.362000   -1.942000 C.ar      1 <1>        -0.142400 
     20 H           0.210000   -0.406000   -2.354000 H         1 <1>         0.107900 
     21 C           0.426000   -2.506000   -2.738000 C.ar      1 <1>        -0.096900 
     22 H           0.025000   -2.433000   -3.747000 H         1 <1>         0.106100 
     23 C           0.846000   -3.741000   -2.243000 C.ar      1 <1>        -0.099700 
     24 H           0.768000   -4.631000   -2.866000 H         1 <1>         0.103300 
     25 C           1.371000   -3.836000   -0.954000 C.ar      1 <1>        -0.064100 
     26 H           1.704000   -4.800000   -0.572000 H         1 <1>         0.097000 
     27 C           1.473000   -2.696000   -0.155000 C.ar      1 <1>        -0.152500 
     28 H           1.885000   -2.780000    0.848000 H         1 <1>         0.133800 
     29 O           3.710000    2.870000    0.863000 O.2       1 <1>        -0.410800 
     30 Cl         -3.948000    0.536000   -0.053000 Cl        1 <1>         0.091500 
@<TRIPOS>BOND
     1    2    1 1    
     2    1    3 ar   
     3    3    4 ar   
     4    4    5 1    
     5    4    6 ar   
     6    6    7 ar   
     7    7    8 ar   
     8    8    9 1    
     9    8    1 ar   
    10    7   10 1    
    11   10   11 1    
    12   10   12 am   
    13   12   13 1    
    14   13   14 1    
    15   13   15 1    
    16   13   16 1    
    17   16   17 2    
    18   17    6 1    
    19   17   18 1    
    20   18   19 ar   
    21   19   20 1    
    22   19   21 ar   
    23   21   22 1    
    24   21   23 ar   
    25   23   24 1    
    26   23   25 ar   
    27   25   26 1    
    28   25   27 ar   
    29   27   28 1    
    30   27   18 ar   
    31   12   29 2    
    32    3   30 1    
@<TRIPOS>SUBSTRUCTURE
     1 ****        2 TEMP              0 ****  ****    0 ROOT 
@<TRIPOS>SET
UNITY_3DHIT     STATIC     ATOMS    <user>   **** Atoms matching 3D or FLEX Search
0
@<TRIPOS>UNITY_BOND_ATTR
17 1
S I
