#	Name:			Oxazepam
#	Creating user name:	jeff
#	Creation time:		Tue Nov  4 15:19:55 2003

#	Modifying user name:	jeff
#	Modification time:	Tue Nov  4 15:19:55 2003

@<TRIPOS>MOLECULE
Oxazepam
   31    33     1     0     1
SMALL
USER_CHARGES
****
From 3DB ct
@<TRIPOS>ATOM
      1 C          -2.108000    2.506000   -0.187000 C.ar      1 <1>         0.239300 
      2 H          -2.934000    3.193000   -0.358000 H         1 <1>         0.058200 
      3 C          -2.342000    1.148000   -0.001000 C.ar      1 <1>        -0.490600 
      4 C          -1.278000    0.271000    0.198000 C.ar      1 <1>         0.172100 
      5 H          -1.479000   -0.791000    0.315000 H         1 <1>         0.069600 
      6 C           0.042000    0.755000    0.220000 C.ar      1 <1>        -0.138000 
      7 C           0.278000    2.137000    0.106000 C.ar      1 <1>         0.320900 
      8 C          -0.802000    2.996000   -0.140000 C.ar      1 <1>        -0.345200 
      9 H          -0.643000    4.067000   -0.262000 H         1 <1>         0.152600 
     10 N           1.541000    2.743000    0.212000 N.am      1 <1>        -0.593700 
     11 H           1.657000    3.675000   -0.177000 H         1 <1>         0.343200 
     12 C           2.632000    2.264000    0.895000 C.2       1 <1>         0.404200 
     13 C           2.410000    1.016000    1.800000 C.3       1 <1>         0.436200 
     14 H           1.535000    1.185000    2.438000 H         1 <1>         0.022900 
     15 N           2.238000   -0.147000    0.943000 N.2       1 <1>        -0.469400 
     16 C           1.157000   -0.245000    0.240000 C.2       1 <1>         0.214100 
     17 C           1.037000   -1.454000   -0.638000 C.ar      1 <1>         0.088000 
     18 C           1.476000   -2.694000   -0.155000 C.ar      1 <1>        -0.160800 
     19 H           1.885000   -2.782000    0.849000 H         1 <1>         0.138800 
     20 C           1.381000   -3.830000   -0.961000 C.ar      1 <1>        -0.066900 
     21 H           1.716000   -4.794000   -0.582000 H         1 <1>         0.099900 
     22 C           0.860000   -3.730000   -2.251000 C.ar      1 <1>        -0.097700 
     23 H           0.787000   -4.617000   -2.878000 H         1 <1>         0.104600 
     24 C           0.437000   -2.494000   -2.740000 C.ar      1 <1>        -0.096900 
     25 H           0.039000   -2.417000   -3.751000 H         1 <1>         0.107300 
     26 C           0.529000   -1.354000   -1.939000 C.ar      1 <1>        -0.159900 
     27 H           0.212000   -0.397000   -2.347000 H         1 <1>         0.115200 
     28 O           3.507000    0.840000    2.692000 O.3       1 <1>        -0.473600 
     29 H           4.231000    0.554000    2.098000 H         1 <1>         0.305100 
     30 O           3.714000    2.860000    0.829000 O.2       1 <1>        -0.393400 
     31 Cl         -3.953000    0.543000   -0.042000 Cl        1 <1>         0.094100 
@<TRIPOS>BOND
     1    2    1 1    
     2    1    3 ar   
     3    3    4 ar   
     4    4    5 1    
     5    4    6 ar   
     6    6    7 ar   
     7    7    8 ar   
     8    8    9 1    
     9    8    1 ar   
    10    7   10 1    
    11   10   11 1    
    12   10   12 am   
    13   12   13 1    
    14   13   14 1    
    15   13   15 1    
    16   15   16 2    
    17   16    6 1    
    18   16   17 1    
    19   17   18 ar   
    20   18   19 1    
    21   18   20 ar   
    22   20   21 1    
    23   20   22 ar   
    24   22   23 1    
    25   22   24 ar   
    26   24   25 1    
    27   24   26 ar   
    28   26   27 1    
    29   26   17 ar   
    30   13   28 1    
    31   28   29 1    
    32   12   30 2    
    33    3   31 1    
@<TRIPOS>SUBSTRUCTURE
     1 ****        2 TEMP              0 ****  ****    0 ROOT 
@<TRIPOS>SET
UNITY_3DHIT     STATIC     ATOMS    <user>   **** Atoms matching 3D or FLEX Search
0
@<TRIPOS>UNITY_BOND_ATTR
16 1
S I
