#	Name:			Pinazepam
#	Creating user name:	jeff
#	Creation time:		Tue Nov  4 15:19:53 2003

#	Modifying user name:	jeff
#	Modification time:	Tue Nov  4 15:19:53 2003

@<TRIPOS>MOLECULE
Pinazepam
   35    37     1     0     1
SMALL
USER_CHARGES
****
From 3DB ct
@<TRIPOS>ATOM
      1 C          -2.146000    2.499000   -0.143000 C.ar      1 <1>         0.173600 
      2 H          -2.983000    3.182000   -0.278000 H         1 <1>         0.066000 
      3 C          -2.363000    1.142000    0.040000 C.ar      1 <1>        -0.464600 
      4 C          -1.284000    0.282000    0.204000 C.ar      1 <1>         0.150300 
      5 H          -1.469000   -0.781000    0.338000 H         1 <1>         0.066400 
      6 C           0.033000    0.783000    0.185000 C.ar      1 <1>        -0.047800 
      7 C           0.276000    2.168000    0.054000 C.ar      1 <1>         0.161000 
      8 C          -0.841000    3.005000   -0.137000 C.ar      1 <1>        -0.217900 
      9 H          -0.739000    4.082000   -0.247000 H         1 <1>         0.131300 
     10 N           1.594000    2.747000    0.103000 N.am      1 <1>        -0.337100 
     11 C           2.632000    2.227000    0.881000 C.2       1 <1>         0.451300 
     12 C           2.278000    1.079000    1.820000 C.3       1 <1>         0.100200 
     13 H           3.101000    0.956000    2.533000 H         1 <1>         0.052600 
     14 H           1.384000    1.297000    2.414000 H         1 <1>         0.022100 
     15 N           2.166000   -0.141000    1.020000 N.2       1 <1>        -0.395700 
     16 C           1.132000   -0.231000    0.247000 C.2       1 <1>         0.177500 
     17 C           1.042000   -1.437000   -0.638000 C.ar      1 <1>         0.093200 
     18 C           0.548000   -1.337000   -1.945000 C.ar      1 <1>        -0.185200 
     19 H           0.222000   -0.383000   -2.353000 H         1 <1>         0.116000 
     20 C           0.483000   -2.474000   -2.755000 C.ar      1 <1>        -0.071000 
     21 H           0.097000   -2.397000   -3.770000 H         1 <1>         0.101100 
     22 C           0.918000   -3.706000   -2.267000 C.ar      1 <1>        -0.113000 
     23 H           0.867000   -4.590000   -2.901000 H         1 <1>         0.105400 
     24 C           1.425000   -3.806000   -0.972000 C.ar      1 <1>        -0.063800 
     25 H           1.769000   -4.768000   -0.595000 H         1 <1>         0.098800 
     26 C           1.492000   -2.673000   -0.159000 C.ar      1 <1>        -0.160200 
     27 H           1.890000   -2.763000    0.851000 H         1 <1>         0.135900 
     28 O           3.786000    2.673000    0.857000 O.2       1 <1>        -0.385900 
     29 C           1.881000    3.952000   -0.686000 C.3       1 <1>         0.042100 
     30 H           1.120000    4.095000   -1.460000 H         1 <1>         0.084000 
     31 H           2.820000    3.820000   -1.233000 H         1 <1>         0.111000 
     32 C           1.907000    5.157000    0.163000 C.1       1 <1>        -0.093200 
     33 C           1.929000    6.137000    0.858000 C.1       1 <1>        -0.280700 
     34 H           1.949000    7.007000    1.476000 H         1 <1>         0.285900 
     35 Cl         -3.967000    0.521000    0.051000 Cl        1 <1>         0.090500 
@<TRIPOS>BOND
     1    2    1 1    
     2    1    3 ar   
     3    3    4 ar   
     4    4    5 1    
     5    4    6 ar   
     6    6    7 ar   
     7    7    8 ar   
     8    8    9 1    
     9    8    1 ar   
    10    7   10 1    
    11   10   11 am   
    12   11   12 1    
    13   12   13 1    
    14   12   14 1    
    15   12   15 1    
    16   15   16 2    
    17   16    6 1    
    18   16   17 1    
    19   17   18 ar   
    20   18   19 1    
    21   18   20 ar   
    22   20   21 1    
    23   20   22 ar   
    24   22   23 1    
    25   22   24 ar   
    26   24   25 1    
    27   24   26 ar   
    28   26   27 1    
    29   26   17 ar   
    30   11   28 2    
    31   10   29 1    
    32   29   30 1    
    33   29   31 1    
    34   29   32 1    
    35   32   33 3    
    36   33   34 1    
    37    3   35 1    
@<TRIPOS>SUBSTRUCTURE
     1 ****        2 TEMP              0 ****  ****    0 ROOT 
@<TRIPOS>SET
UNITY_3DHIT     STATIC     ATOMS    <user>   **** Atoms matching 3D or FLEX Search
0
@<TRIPOS>UNITY_BOND_ATTR
16 1
S I
