#	Name:			Prazepam
#	Creating user name:	jeff
#	Creation time:		Tue Nov  4 15:19:53 2003

#	Modifying user name:	jeff
#	Modification time:	Tue Nov  4 15:19:53 2003

@<TRIPOS>MOLECULE
Prazepam
   40    43     1     0     1
SMALL
USER_CHARGES
****
From 3DB ct
@<TRIPOS>ATOM
      1 C          -2.134000    2.498000   -0.167000 C.ar      1 <1>         0.175500 
      2 H          -2.971000    3.178000   -0.306000 H         1 <1>         0.068200 
      3 C          -2.353000    1.143000    0.033000 C.ar      1 <1>        -0.472600 
      4 C          -1.277000    0.282000    0.203000 C.ar      1 <1>         0.135700 
      5 H          -1.462000   -0.781000    0.347000 H         1 <1>         0.069600 
      6 C           0.041000    0.780000    0.175000 C.ar      1 <1>        -0.006500 
      7 C           0.287000    2.163000    0.039000 C.ar      1 <1>         0.098300 
      8 C          -0.827000    2.999000   -0.165000 C.ar      1 <1>        -0.165300 
      9 H          -0.714000    4.074000   -0.281000 H         1 <1>         0.079400 
     10 N           1.598000    2.741000    0.104000 N.am      1 <1>        -0.286400 
     11 C           2.636000    2.240000    0.902000 C.2       1 <1>         0.471000 
     12 C           2.306000    1.064000    1.809000 C.3       1 <1>         0.095500 
     13 H           3.144000    0.925000    2.501000 H         1 <1>         0.053800 
     14 H           1.427000    1.272000    2.429000 H         1 <1>         0.017300 
     15 N           2.169000   -0.139000    0.996000 N.2       1 <1>        -0.394000 
     16 C           1.137000   -0.232000    0.228000 C.2       1 <1>         0.173600 
     17 C           1.042000   -1.442000   -0.653000 C.ar      1 <1>         0.085700 
     18 C           0.496000   -1.363000   -1.941000 C.ar      1 <1>        -0.177100 
     19 H           0.146000   -0.419000   -2.347000 H         1 <1>         0.114700 
     20 C           0.413000   -2.509000   -2.735000 C.ar      1 <1>        -0.076400 
     21 H          -0.012000   -2.449000   -3.734000 H         1 <1>         0.101600 
     22 C           0.885000   -3.730000   -2.253000 C.ar      1 <1>        -0.110300 
     23 H           0.823000   -4.621000   -2.874000 H         1 <1>         0.104700 
     24 C           1.449000   -3.808000   -0.980000 C.ar      1 <1>        -0.063600 
     25 H           1.829000   -4.757000   -0.610000 H         1 <1>         0.098600 
     26 C           1.532000   -2.666000   -0.182000 C.ar      1 <1>        -0.159500 
     27 H           1.980000   -2.732000    0.807000 H         1 <1>         0.135300 
     28 O           3.756000    2.758000    0.932000 O.2       1 <1>        -0.400600 
     29 C           1.888000    3.968000   -0.639000 C.3       1 <1>        -0.245400 
     30 H           2.861000    3.857000   -1.133000 H         1 <1>         0.144800 
     31 H           1.158000    4.089000   -1.449000 H         1 <1>         0.154100 
     32 C           1.914000    5.176000    0.264000 C.3       1 <1>         0.018500 
     33 H           1.740000    4.936000    1.307000 H         1 <1>         0.087400 
     34 C           2.884000    6.299000   -0.015000 C.3       1 <1>        -0.270200 
     35 H           3.345000    6.792000    0.836000 H         1 <1>         0.117100 
     36 H           3.534000    6.225000   -0.879000 H         1 <1>         0.120000 
     37 C           1.417000    6.510000   -0.243000 C.3       1 <1>        -0.182400 
     38 H           1.077000    6.593000   -1.269000 H         1 <1>         0.107500 
     39 H           0.888000    7.155000    0.450000 H         1 <1>         0.090900 
     40 Cl         -3.958000    0.527000    0.052000 Cl        1 <1>         0.091600 
@<TRIPOS>BOND
     1    2    1 1    
     2    1    3 ar   
     3    3    4 ar   
     4    4    5 1    
     5    4    6 ar   
     6    6    7 ar   
     7    7    8 ar   
     8    8    9 1    
     9    8    1 ar   
    10    7   10 1    
    11   10   11 am   
    12   11   12 1    
    13   12   13 1    
    14   12   14 1    
    15   12   15 1    
    16   15   16 2    
    17   16    6 1    
    18   16   17 1    
    19   17   18 ar   
    20   18   19 1    
    21   18   20 ar   
    22   20   21 1    
    23   20   22 ar   
    24   22   23 1    
    25   22   24 ar   
    26   24   25 1    
    27   24   26 ar   
    28   26   27 1    
    29   26   17 ar   
    30   11   28 2    
    31   10   29 1    
    32   29   30 1    
    33   29   31 1    
    34   29   32 1    
    35   32   33 1    
    36   32   34 1    
    37   34   35 1    
    38   34   36 1    
    39   34   37 1    
    40   37   38 1    
    41   37   39 1    
    42   37   32 1    
    43    3   40 1    
@<TRIPOS>SUBSTRUCTURE
     1 ****        2 TEMP              0 ****  ****    0 ROOT 
@<TRIPOS>SET
UNITY_3DHIT     STATIC     ATOMS    <user>   **** Atoms matching 3D or FLEX Search
0
@<TRIPOS>UNITY_BOND_ATTR
16 1
S I
