#	Name:			Premazepam
#	Creating user name:	jeff
#	Creation time:		Tue Nov  4 15:19:55 2003

#	Modifying user name:	jeff
#	Modification time:	Tue Nov  4 15:19:55 2003

@<TRIPOS>MOLECULE
Premazepam
   34    36     1     0     1
SMALL
USER_CHARGES
****
From 3DB ct
@<TRIPOS>ATOM
      1 C           0.395000    2.206000    0.053000 C.ar      1 <1>         0.118100 
      2 C           0.150000    0.802000    0.046000 C.ar      1 <1>        -0.252500 
      3 C           1.163000   -0.251000    0.155000 C.2       1 <1>         0.466900 
      4 N           2.212000   -0.140000    0.904000 N.2       1 <1>        -0.470400 
      5 C           2.368000    1.038000    1.764000 C.3       1 <1>         0.158100 
      6 H           3.231000    0.867000    2.418000 H         1 <1>         0.033100 
      7 H           1.506000    1.179000    2.426000 H         1 <1>         0.005400 
      8 C           2.643000    2.311000    0.963000 C.2       1 <1>         0.478000 
      9 N           1.582000    2.862000    0.288000 N.am      1 <1>        -0.498200 
     10 H           1.678000    3.821000   -0.030000 H         1 <1>         0.311600 
     11 O           3.741000    2.878000    0.989000 O.2       1 <1>        -0.434300 
     12 C           1.030000   -1.479000   -0.681000 C.ar      1 <1>        -0.122600 
     13 C           0.518000   -1.417000   -1.984000 C.ar      1 <1>        -0.043400 
     14 H           0.196000   -0.470000   -2.413000 H         1 <1>         0.085600 
     15 C           0.422000   -2.579000   -2.752000 C.ar      1 <1>        -0.111300 
     16 H           0.019000   -2.531000   -3.762000 H         1 <1>         0.097700 
     17 C           0.846000   -3.800000   -2.228000 C.ar      1 <1>        -0.090800 
     18 H           0.771000   -4.705000   -2.830000 H         1 <1>         0.098300 
     19 C           1.374000   -3.864000   -0.939000 C.ar      1 <1>        -0.094100 
     20 H           1.712000   -4.817000   -0.535000 H         1 <1>         0.099700 
     21 C           1.473000   -2.705000   -0.167000 C.ar      1 <1>        -0.084700 
     22 H           1.889000   -2.764000    0.837000 H         1 <1>         0.114100 
     23 C          -1.226000    0.647000   -0.132000 C.ar      1 <1>         0.027700 
     24 N          -1.757000    1.899000   -0.372000 N.pl3     1 <1>         0.034500 
     25 C          -0.771000    2.845000   -0.283000 C.ar      1 <1>        -0.327500 
     26 H          -0.994000    3.897000   -0.422000 H         1 <1>         0.215500 
     27 C          -3.143000    2.193000   -0.676000 C.3       1 <1>        -0.118900 
     28 H          -3.468000    1.542000   -1.492000 H         1 <1>         0.086100 
     29 H          -3.235000    3.238000   -0.984000 H         1 <1>         0.092300 
     30 H          -3.735000    2.016000    0.225000 H         1 <1>         0.079400 
     31 C          -2.082000   -0.577000   -0.113000 C.3       1 <1>        -0.164200 
     32 H          -3.035000   -0.385000    0.389000 H         1 <1>         0.060400 
     33 H          -1.598000   -1.392000    0.433000 H         1 <1>         0.085500 
     34 H          -2.291000   -0.914000   -1.133000 H         1 <1>         0.064800 
@<TRIPOS>BOND
     1    1    2 ar   
     2    2    3 1    
     3    3    4 2    
     4    4    5 1    
     5    5    6 1    
     6    5    7 1    
     7    5    8 1    
     8    8    9 am   
     9    9   10 1    
    10    9    1 1    
    11    8   11 2    
    12    3   12 1    
    13   12   13 ar   
    14   13   14 1    
    15   13   15 ar   
    16   15   16 1    
    17   15   17 ar   
    18   17   18 1    
    19   17   19 ar   
    20   19   20 1    
    21   19   21 ar   
    22   21   22 1    
    23   21   12 ar   
    24    2   23 ar   
    25   23   24 ar   
    26   24   25 ar   
    27   25   26 1    
    28   25    1 ar   
    29   24   27 1    
    30   27   28 1    
    31   27   29 1    
    32   27   30 1    
    33   23   31 1    
    34   31   32 1    
    35   31   33 1    
    36   31   34 1    
@<TRIPOS>SUBSTRUCTURE
     1 ****        1 TEMP              0 ****  ****    0 ROOT 
@<TRIPOS>SET
UNITY_3DHIT     STATIC     ATOMS    <user>   **** Atoms matching 3D or FLEX Search
0
@<TRIPOS>UNITY_BOND_ATTR
3 1
S I
