#	Name:			Ro05-3061
#	Creating user name:	jeff
#	Creation time:		Tue Nov  4 15:19:49 2003

#	Modifying user name:	jeff
#	Modification time:	Tue Nov  4 15:19:49 2003

@<TRIPOS>MOLECULE
Ro05-3061
   30    32     1     0     1
SMALL
USER_CHARGES
****
From 3DB ct
@<TRIPOS>ATOM
      1 C          -2.103000    2.513000   -0.208000 C.ar      1 <1>        -0.218100 
      2 H          -2.938000    3.187000   -0.378000 H         1 <1>         0.163600 
      3 C          -2.329000    1.156000   -0.038000 C.ar      1 <1>         0.367800 
      4 C          -1.274000    0.275000    0.161000 C.ar      1 <1>        -0.296100 
      5 H          -1.494000   -0.785000    0.262000 H         1 <1>         0.191100 
      6 C           0.045000    0.757000    0.201000 C.ar      1 <1>        -0.032500 
      7 C           0.280000    2.141000    0.105000 C.ar      1 <1>         0.169800 
      8 C          -0.799000    3.004000   -0.143000 C.ar      1 <1>        -0.155500 
      9 H          -0.639000    4.076000   -0.252000 H         1 <1>         0.135700 
     10 N           1.540000    2.750000    0.231000 N.am      1 <1>        -0.536000 
     11 H           1.656000    3.688000   -0.144000 H         1 <1>         0.315800 
     12 C           2.625000    2.268000    0.916000 C.2       1 <1>         0.473200 
     13 C           2.407000    1.032000    1.777000 C.3       1 <1>         0.087200 
     14 H           3.297000    0.890000    2.399000 H         1 <1>         0.058700 
     15 H           1.564000    1.177000    2.463000 H         1 <1>         0.030300 
     16 N           2.241000   -0.146000    0.927000 N.2       1 <1>        -0.417600 
     17 C           1.159000   -0.245000    0.225000 C.2       1 <1>         0.345300 
     18 C           1.038000   -1.460000   -0.645000 C.ar      1 <1>        -0.072800 
     19 C           0.527000   -1.365000   -1.946000 C.ar      1 <1>        -0.085300 
     20 H           0.211000   -0.409000   -2.358000 H         1 <1>         0.094800 
     21 C           0.434000   -2.509000   -2.742000 C.ar      1 <1>        -0.097500 
     22 H           0.035000   -2.437000   -3.752000 H         1 <1>         0.103500 
     23 C           0.856000   -3.743000   -2.246000 C.ar      1 <1>        -0.101600 
     24 H           0.783000   -4.633000   -2.869000 H         1 <1>         0.102900 
     25 C           1.379000   -3.837000   -0.957000 C.ar      1 <1>        -0.054300 
     26 H           1.714000   -4.799000   -0.574000 H         1 <1>         0.093300 
     27 C           1.476000   -2.697000   -0.157000 C.ar      1 <1>        -0.127600 
     28 H           1.886000   -2.780000    0.847000 H         1 <1>         0.127900 
     29 O           3.707000    2.863000    0.881000 O.2       1 <1>        -0.409800 
     30 F          -3.582000    0.684000   -0.086000 F         1 <1>        -0.256300 
@<TRIPOS>BOND
     1    2    1 1    
     2    1    3 ar   
     3    3    4 ar   
     4    4    5 1    
     5    4    6 ar   
     6    6    7 ar   
     7    7    8 ar   
     8    8    9 1    
     9    8    1 ar   
    10    7   10 1    
    11   10   11 1    
    12   10   12 am   
    13   12   13 1    
    14   13   14 1    
    15   13   15 1    
    16   13   16 1    
    17   16   17 2    
    18   17    6 1    
    19   17   18 1    
    20   18   19 ar   
    21   19   20 1    
    22   19   21 ar   
    23   21   22 1    
    24   21   23 ar   
    25   23   24 1    
    26   23   25 ar   
    27   25   26 1    
    28   25   27 ar   
    29   27   28 1    
    30   27   18 ar   
    31   12   29 2    
    32    3   30 1    
@<TRIPOS>SUBSTRUCTURE
     1 ****        2 TEMP              0 ****  ****    0 ROOT 
@<TRIPOS>SET
UNITY_3DHIT     STATIC     ATOMS    <user>   **** Atoms matching 3D or FLEX Search
0
@<TRIPOS>UNITY_BOND_ATTR
17 1
S I
