#	Name:			Ro05-2881
#	Creating user name:	jeff
#	Creation time:		Tue Nov  4 15:19:55 2003

#	Modifying user name:	jeff
#	Modification time:	Tue Nov  4 15:19:55 2003

@<TRIPOS>MOLECULE
Ro05-2881
   35    37     1     0     1
SMALL
USER_CHARGES
****
From 3DB ct
@<TRIPOS>ATOM
      1 C          -2.071000    2.509000   -0.364000 C.ar      1 <1>         0.178000 
      2 H          -2.864000    3.210000   -0.611000 H         1 <1>         0.061900 
      3 C          -2.349000    1.165000   -0.204000 C.ar      1 <1>        -0.449800 
      4 C          -1.313000    0.283000    0.100000 C.ar      1 <1>         0.132900 
      5 H          -1.568000   -0.772000    0.198000 H         1 <1>         0.047000 
      6 C           0.037000    0.707000    0.250000 C.ar      1 <1>         0.033700 
      7 C           0.289000    2.086000    0.160000 C.ar      1 <1>         0.143100 
      8 C          -0.766000    2.961000   -0.182000 C.ar      1 <1>        -0.259100 
      9 H          -0.584000    4.029000   -0.285000 H         1 <1>         0.131300 
     10 N           1.504000    2.749000    0.399000 N.am      1 <1>        -0.209500 
     11 C           2.656000    2.347000    0.999000 C.2       1 <1>         0.402600 
     12 C           2.801000    0.935000    1.514000 C.3       1 <1>         0.137600 
     13 H           3.857000    0.800000    1.777000 H         1 <1>         0.040700 
     14 H           2.223000    0.803000    2.435000 H         1 <1>         0.010000 
     15 N           2.473000   -0.016000    0.462000 N.3       1 <1>        -0.518300 
     16 H           3.027000   -0.861000    0.598000 H         1 <1>         0.276100 
     17 C           1.062000   -0.401000    0.501000 C.3       1 <1>        -0.136000 
     18 H           0.844000   -0.781000    1.510000 H         1 <1>         0.086900 
     19 C           0.912000   -1.584000   -0.469000 C.ar      1 <1>         0.106200 
     20 C           0.395000   -1.394000   -1.763000 C.ar      1 <1>        -0.144800 
     21 H           0.086000   -0.400000   -2.083000 H         1 <1>         0.137100 
     22 C           0.283000   -2.466000   -2.650000 C.ar      1 <1>        -0.109400 
     23 H          -0.116000   -2.304000   -3.647000 H         1 <1>         0.108200 
     24 C           0.691000   -3.739000   -2.257000 C.ar      1 <1>        -0.083400 
     25 H           0.609000   -4.572000   -2.951000 H         1 <1>         0.103800 
     26 C           1.211000   -3.943000   -0.980000 C.ar      1 <1>        -0.139300 
     27 H           1.532000   -4.937000   -0.678000 H         1 <1>         0.113600 
     28 C           1.325000   -2.873000   -0.091000 C.ar      1 <1>        -0.114400 
     29 H           1.738000   -3.052000    0.899000 H         1 <1>         0.105800 
     30 O           3.548000    3.184000    1.173000 O.2       1 <1>        -0.408700 
     31 C           1.558000    4.176000    0.090000 C.3       1 <1>        -0.070800 
     32 H           2.560000    4.564000    0.324000 H         1 <1>         0.091000 
     33 H           1.346000    4.328000   -0.978000 H         1 <1>         0.064700 
     34 H           0.808000    4.710000    0.692000 H         1 <1>         0.044200 
     35 Cl         -3.954000    0.578000   -0.402000 Cl        1 <1>         0.086900 
@<TRIPOS>BOND
     1    2    1 1    
     2    1    3 ar   
     3    3    4 ar   
     4    4    5 1    
     5    4    6 ar   
     6    6    7 ar   
     7    7    8 ar   
     8    8    9 1    
     9    8    1 ar   
    10    7   10 1    
    11   10   11 am   
    12   11   12 1    
    13   12   13 1    
    14   12   14 1    
    15   12   15 1    
    16   15   16 1    
    17   15   17 1    
    18   17   18 1    
    19   17    6 1    
    20   17   19 1    
    21   19   20 ar   
    22   20   21 1    
    23   20   22 ar   
    24   22   23 1    
    25   22   24 ar   
    26   24   25 1    
    27   24   26 ar   
    28   26   27 1    
    29   26   28 ar   
    30   28   29 1    
    31   28   19 ar   
    32   11   30 2    
    33   10   31 1    
    34   31   32 1    
    35   31   33 1    
    36   31   34 1    
    37    3   35 1    
@<TRIPOS>SUBSTRUCTURE
     1 ****        2 TEMP              0 ****  ****    0 ROOT 
@<TRIPOS>SET
UNITY_3DHIT     STATIC     ATOMS    <user>   **** Atoms matching 3D or FLEX Search
0
