#	Name:			Ro05-2921
#	Creating user name:	jeff
#	Creation time:		Tue Nov  4 15:19:52 2003

#	Modifying user name:	jeff
#	Modification time:	Tue Nov  4 15:19:52 2003

@<TRIPOS>MOLECULE
Ro05-2921
   30    32     1     0     1
SMALL
USER_CHARGES
****
From 3DB ct
@<TRIPOS>ATOM
      1 C          -2.103000    2.514000   -0.208000 C.ar      1 <1>        -0.049700 
      2 H          -2.932000    3.198000   -0.379000 H         1 <1>         0.110500 
      3 C          -2.345000    1.155000   -0.035000 C.ar      1 <1>        -0.130000 
      4 H          -3.363000    0.773000   -0.072000 H         1 <1>         0.111400 
      5 C          -1.277000    0.280000    0.164000 C.ar      1 <1>        -0.132300 
      6 H          -1.489000   -0.782000    0.269000 H         1 <1>         0.133700 
      7 C           0.045000    0.759000    0.202000 C.ar      1 <1>        -0.042500 
      8 C           0.282000    2.141000    0.104000 C.ar      1 <1>         0.226600 
      9 C          -0.797000    3.002000   -0.145000 C.ar      1 <1>        -0.220900 
     10 H          -0.636000    4.074000   -0.256000 H         1 <1>         0.128500 
     11 N           1.543000    2.750000    0.229000 N.am      1 <1>        -0.572700 
     12 H           1.659000    3.687000   -0.147000 H         1 <1>         0.323300 
     13 C           2.626000    2.266000    0.916000 C.2       1 <1>         0.494100 
     14 C           2.406000    1.032000    1.777000 C.3       1 <1>         0.078200 
     15 H           3.296000    0.890000    2.400000 H         1 <1>         0.056300 
     16 H           1.563000    1.178000    2.462000 H         1 <1>         0.029000 
     17 N           2.241000   -0.147000    0.929000 N.2       1 <1>        -0.403800 
     18 C           1.158000   -0.245000    0.226000 C.2       1 <1>         0.274000 
     19 C           1.036000   -1.460000   -0.644000 C.ar      1 <1>        -0.017600 
     20 C           0.527000   -1.366000   -1.946000 C.ar      1 <1>        -0.102200 
     21 H           0.209000   -0.410000   -2.357000 H         1 <1>         0.099000 
     22 C           0.437000   -2.509000   -2.743000 C.ar      1 <1>        -0.102800 
     23 H           0.039000   -2.437000   -3.754000 H         1 <1>         0.103700 
     24 C           0.860000   -3.743000   -2.248000 C.ar      1 <1>        -0.100800 
     25 H           0.789000   -4.632000   -2.872000 H         1 <1>         0.101600 
     26 C           1.382000   -3.837000   -0.958000 C.ar      1 <1>        -0.063400 
     27 H           1.718000   -4.799000   -0.575000 H         1 <1>         0.095000 
     28 C           1.476000   -2.697000   -0.157000 C.ar      1 <1>        -0.137200 
     29 H           1.885000   -2.780000    0.848000 H         1 <1>         0.130000 
     30 O           3.709000    2.861000    0.881000 O.2       1 <1>        -0.419100 
@<TRIPOS>BOND
     1    2    1 1    
     2    1    3 ar   
     3    3    4 1    
     4    3    5 ar   
     5    5    6 1    
     6    5    7 ar   
     7    7    8 ar   
     8    8    9 ar   
     9    9   10 1    
    10    9    1 ar   
    11    8   11 1    
    12   11   12 1    
    13   11   13 am   
    14   13   14 1    
    15   14   15 1    
    16   14   16 1    
    17   14   17 1    
    18   17   18 2    
    19   18    7 1    
    20   18   19 1    
    21   19   20 ar   
    22   20   21 1    
    23   20   22 ar   
    24   22   23 1    
    25   22   24 ar   
    26   24   25 1    
    27   24   26 ar   
    28   26   27 1    
    29   26   28 ar   
    30   28   29 1    
    31   28   19 ar   
    32   13   30 2    
@<TRIPOS>SUBSTRUCTURE
     1 ****        2 TEMP              0 ****  ****    0 ROOT 
@<TRIPOS>SET
UNITY_3DHIT     STATIC     ATOMS    <user>   **** Atoms matching 3D or FLEX Search
0
@<TRIPOS>UNITY_BOND_ATTR
18 1
S I
