#	Name:			Ro05-7094
#	Creating user name:	jeff
#	Creation time:		Tue Nov  4 15:19:53 2003

#	Modifying user name:	jeff
#	Modification time:	Tue Nov  4 15:19:53 2003

@<TRIPOS>MOLECULE
Ro05-7094
   43    45     1     0     1
SMALL
USER_CHARGES
****
From 3DB ct
@<TRIPOS>ATOM
      1 C          -2.147000    2.517000   -0.084000 C.ar      1 <1>         0.197900 
      2 H          -2.981000    3.209000   -0.176000 H         1 <1>         0.061600 
      3 C          -2.371000    1.157000    0.073000 C.ar      1 <1>        -0.471000 
      4 C          -1.297000    0.286000    0.201000 C.ar      1 <1>         0.144200 
      5 H          -1.485000   -0.777000    0.329000 H         1 <1>         0.066300 
      6 C           0.022000    0.779000    0.161000 C.ar      1 <1>        -0.047600 
      7 C           0.275000    2.163000    0.030000 C.ar      1 <1>         0.214600 
      8 C          -0.838000    3.012000   -0.101000 C.ar      1 <1>        -0.255800 
      9 H          -0.726000    4.090000   -0.172000 H         1 <1>         0.157500 
     10 N           1.603000    2.715000    0.045000 N.am      1 <1>        -0.479900 
     11 C           2.603000    2.233000    0.904000 C.2       1 <1>         0.456600 
     12 C           2.227000    1.085000    1.835000 C.3       1 <1>         0.117900 
     13 H           3.033000    0.961000    2.567000 H         1 <1>         0.053100 
     14 H           1.318000    1.301000    2.406000 H         1 <1>         0.023700 
     15 N           2.138000   -0.136000    1.030000 N.2       1 <1>        -0.401600 
     16 C           1.119000   -0.233000    0.236000 C.2       1 <1>         0.183800 
     17 C           1.045000   -1.438000   -0.651000 C.ar      1 <1>         0.093100 
     18 C           0.559000   -1.343000   -1.961000 C.ar      1 <1>        -0.193500 
     19 H           0.227000   -0.393000   -2.373000 H         1 <1>         0.117700 
     20 C           0.509000   -2.480000   -2.772000 C.ar      1 <1>        -0.065700 
     21 H           0.129000   -2.405000   -3.789000 H         1 <1>         0.099700 
     22 C           0.951000   -3.709000   -2.282000 C.ar      1 <1>        -0.116600 
     23 H           0.912000   -4.593000   -2.916000 H         1 <1>         0.105900 
     24 C           1.450000   -3.805000   -0.983000 C.ar      1 <1>        -0.063000 
     25 H           1.800000   -4.763000   -0.604000 H         1 <1>         0.098800 
     26 C           1.502000   -2.672000   -0.169000 C.ar      1 <1>        -0.156200 
     27 H           1.893000   -2.759000    0.843000 H         1 <1>         0.134000 
     28 O           3.743000    2.714000    0.940000 O.2       1 <1>        -0.413200 
     29 C           1.973000    3.879000   -0.805000 C.3       1 <1>         0.337200 
     30 H           3.000000    3.684000   -1.137000 H         1 <1>         0.061900 
     31 C           1.153000    4.019000   -2.093000 C.3       1 <1>        -0.373300 
     32 H           1.702000    4.595000   -2.844000 H         1 <1>         0.102400 
     33 H           0.210000    4.548000   -1.935000 H         1 <1>         0.103800 
     34 H           0.938000    3.041000   -2.537000 H         1 <1>         0.100700 
     35 C           2.040000    5.188000    0.029000 C.2       1 <1>         0.429900 
     36 O           1.524000    5.294000    1.149000 O.2       1 <1>        -0.453700 
     37 N           2.685000    6.282000   -0.478000 N.am      1 <1>        -0.504800 
     38 H           2.654000    7.107000    0.115000 H         1 <1>         0.290400 
     39 C           3.425000    6.405000   -1.714000 C.3       1 <1>        -0.007600 
     40 H           2.729000    6.681000   -2.510000 H         1 <1>         0.032000 
     41 H           3.935000    5.474000   -1.963000 H         1 <1>         0.051500 
     42 H           4.163000    7.202000   -1.592000 H         1 <1>         0.076500 
     43 Cl         -3.980000    0.549000    0.111000 Cl        1 <1>         0.091100 
@<TRIPOS>BOND
     1    2    1 1    
     2    1    3 ar   
     3    3    4 ar   
     4    4    5 1    
     5    4    6 ar   
     6    6    7 ar   
     7    7    8 ar   
     8    8    9 1    
     9    8    1 ar   
    10    7   10 1    
    11   10   11 am   
    12   11   12 1    
    13   12   13 1    
    14   12   14 1    
    15   12   15 1    
    16   15   16 2    
    17   16    6 1    
    18   16   17 1    
    19   17   18 ar   
    20   18   19 1    
    21   18   20 ar   
    22   20   21 1    
    23   20   22 ar   
    24   22   23 1    
    25   22   24 ar   
    26   24   25 1    
    27   24   26 ar   
    28   26   27 1    
    29   26   17 ar   
    30   11   28 2    
    31   10   29 1    
    32   29   30 1    
    33   29   31 1    
    34   31   32 1    
    35   31   33 1    
    36   31   34 1    
    37   29   35 1    
    38   35   36 2    
    39   35   37 am   
    40   37   38 1    
    41   37   39 1    
    42   39   40 1    
    43   39   41 1    
    44   39   42 1    
    45    3   43 1    
@<TRIPOS>SUBSTRUCTURE
     1 ****        2 TEMP              0 ****  ****    0 ROOT 
@<TRIPOS>SET
UNITY_3DHIT     STATIC     ATOMS    <user>   **** Atoms matching 3D or FLEX Search
0
@<TRIPOS>UNITY_BOND_ATTR
16 1
S I
