#	Name:			Ro05-3663
#	Creating user name:	jeff
#	Creation time:		Tue Nov  4 15:19:54 2003

#	Modifying user name:	jeff
#	Modification time:	Tue Nov  4 15:19:54 2003

@<TRIPOS>MOLECULE
Ro05-3663
   23    24     1     0     1
SMALL
USER_CHARGES
****
From 3DB ct
@<TRIPOS>ATOM
      1 C          -2.087000    2.581000   -0.258000 C.ar      1 <1>        -0.019800 
      2 H          -2.908000    3.261000   -0.471000 H         1 <1>         0.106500 
      3 C          -2.335000    1.227000   -0.062000 C.ar      1 <1>        -0.155400 
      4 H          -3.352000    0.845000   -0.126000 H         1 <1>         0.113700 
      5 C          -1.275000    0.357000    0.192000 C.ar      1 <1>        -0.066700 
      6 H          -1.491000   -0.703000    0.317000 H         1 <1>         0.119000 
      7 C           0.042000    0.839000    0.272000 C.ar      1 <1>        -0.188900 
      8 C           0.286000    2.214000    0.135000 C.ar      1 <1>         0.329500 
      9 C          -0.782000    3.070000   -0.168000 C.ar      1 <1>        -0.266000 
     10 H          -0.616000    4.137000   -0.305000 H         1 <1>         0.136200 
     11 N           1.547000    2.817000    0.257000 N.am      1 <1>        -0.632400 
     12 H           1.685000    3.750000   -0.112000 H         1 <1>         0.332800 
     13 C           2.612000    2.381000    0.999000 C.2       1 <1>         0.536200 
     14 C           2.417000    1.155000    1.871000 C.3       1 <1>         0.060200 
     15 H           3.323000    1.022000    2.473000 H         1 <1>         0.058900 
     16 H           1.593000    1.314000    2.577000 H         1 <1>         0.031000 
     17 N           2.225000   -0.040000    1.058000 N.2       1 <1>        -0.425100 
     18 C           1.148000   -0.156000    0.363000 C.2       1 <1>         0.390000 
     19 C           1.008000   -1.430000   -0.446000 C.3       1 <1>        -0.294500 
     20 H           1.989000   -1.735000   -0.822000 H         1 <1>         0.092600 
     21 H           0.616000   -2.225000    0.196000 H         1 <1>         0.088200 
     22 H           0.347000   -1.291000   -1.305000 H         1 <1>         0.082900 
     23 O           3.647000    3.048000    1.013000 O.2       1 <1>        -0.428900 
@<TRIPOS>BOND
     1    2    1 1    
     2    1    3 ar   
     3    3    4 1    
     4    3    5 ar   
     5    5    6 1    
     6    5    7 ar   
     7    7    8 ar   
     8    8    9 ar   
     9    9   10 1    
    10    9    1 ar   
    11    8   11 1    
    12   11   12 1    
    13   11   13 am   
    14   13   14 1    
    15   14   15 1    
    16   14   16 1    
    17   14   17 1    
    18   17   18 2    
    19   18    7 1    
    20   18   19 1    
    21   19   20 1    
    22   19   21 1    
    23   19   22 1    
    24   13   23 2    
@<TRIPOS>SUBSTRUCTURE
     1 ****        2 TEMP              0 ****  ****    0 ROOT 
@<TRIPOS>SET
UNITY_3DHIT     STATIC     ATOMS    <user>   **** Atoms matching 3D or FLEX Search
0
@<TRIPOS>UNITY_BOND_ATTR
18 1
S I
