#	Name:			Ro05-3395
#	Creating user name:	jeff
#	Creation time:		Tue Nov  4 15:19:55 2003

#	Modifying user name:	jeff
#	Modification time:	Tue Nov  4 15:19:55 2003

@<TRIPOS>MOLECULE
Ro05-3395
   32    34     1     0     1
SMALL
USER_CHARGES
****
From 3DB ct
@<TRIPOS>ATOM
      1 C          -2.071000    2.509000   -0.364000 C.ar      1 <1>        -0.022200 
      2 H          -2.864000    3.210000   -0.611000 H         1 <1>         0.104200 
      3 C          -2.349000    1.165000   -0.204000 C.ar      1 <1>        -0.159700 
      4 H          -3.363000    0.794000   -0.329000 H         1 <1>         0.115700 
      5 C          -1.313000    0.283000    0.100000 C.ar      1 <1>        -0.099700 
      6 H          -1.568000   -0.772000    0.198000 H         1 <1>         0.107100 
      7 C           0.037000    0.707000    0.250000 C.ar      1 <1>        -0.064900 
      8 C           0.289000    2.086000    0.160000 C.ar      1 <1>         0.323900 
      9 C          -0.766000    2.961000   -0.182000 C.ar      1 <1>        -0.296100 
     10 H          -0.584000    4.029000   -0.285000 H         1 <1>         0.137500 
     11 N           1.504000    2.749000    0.399000 N.am      1 <1>        -0.550400 
     12 H           1.541000    3.737000    0.185000 H         1 <1>         0.304600 
     13 C           2.656000    2.347000    0.999000 C.2       1 <1>         0.530600 
     14 C           2.801000    0.935000    1.514000 C.3       1 <1>         0.059500 
     15 H           3.857000    0.800000    1.777000 H         1 <1>         0.053100 
     16 H           2.223000    0.803000    2.435000 H         1 <1>         0.030900 
     17 N           2.473000   -0.016000    0.462000 N.3       1 <1>        -0.513200 
     18 H           3.027000   -0.861000    0.598000 H         1 <1>         0.255100 
     19 C           1.062000   -0.401000    0.501000 C.3       1 <1>         0.049500 
     20 H           0.844000   -0.781000    1.510000 H         1 <1>         0.048300 
     21 C           0.912000   -1.584000   -0.469000 C.ar      1 <1>         0.103200 
     22 C           0.395000   -1.394000   -1.763000 C.ar      1 <1>        -0.175700 
     23 H           0.086000   -0.400000   -2.083000 H         1 <1>         0.140100 
     24 C           0.283000   -2.466000   -2.650000 C.ar      1 <1>        -0.075200 
     25 H          -0.116000   -2.304000   -3.647000 H         1 <1>         0.101300 
     26 C           0.691000   -3.739000   -2.257000 C.ar      1 <1>        -0.112000 
     27 H           0.609000   -4.572000   -2.951000 H         1 <1>         0.105000 
     28 C           1.211000   -3.943000   -0.980000 C.ar      1 <1>        -0.097100 
     29 H           1.532000   -4.937000   -0.678000 H         1 <1>         0.104300 
     30 C           1.325000   -2.873000   -0.091000 C.ar      1 <1>        -0.155200 
     31 H           1.738000   -3.052000    0.899000 H         1 <1>         0.103400 
     32 O           3.548000    3.184000    1.173000 O.2       1 <1>        -0.455800 
@<TRIPOS>BOND
     1    2    1 1    
     2    1    3 ar   
     3    3    4 1    
     4    3    5 ar   
     5    5    6 1    
     6    5    7 ar   
     7    7    8 ar   
     8    8    9 ar   
     9    9   10 1    
    10    9    1 ar   
    11    8   11 1    
    12   11   12 1    
    13   11   13 am   
    14   13   14 1    
    15   14   15 1    
    16   14   16 1    
    17   14   17 1    
    18   17   18 1    
    19   17   19 1    
    20   19   20 1    
    21   19    7 1    
    22   19   21 1    
    23   21   22 ar   
    24   22   23 1    
    25   22   24 ar   
    26   24   25 1    
    27   24   26 ar   
    28   26   27 1    
    29   26   28 ar   
    30   28   29 1    
    31   28   30 ar   
    32   30   31 1    
    33   30   21 ar   
    34   13   32 2    
@<TRIPOS>SUBSTRUCTURE
     1 ****        2 TEMP              0 ****  ****    0 ROOT 
@<TRIPOS>SET
UNITY_3DHIT     STATIC     ATOMS    <user>   **** Atoms matching 3D or FLEX Search
0
