#	Name:			Ro05-9090
#	Creating user name:	jeff
#	Creation time:		Tue Nov  4 15:19:51 2003

#	Modifying user name:	jeff
#	Modification time:	Tue Nov  4 15:19:51 2003

@<TRIPOS>MOLECULE
Ro05-9090
   38    40     1     0     1
SMALL
USER_CHARGES
****
From 3DB ct
@<TRIPOS>ATOM
      1 C          -2.133000    2.505000   -0.156000 C.ar      1 <1>        -0.048700 
      2 H          -2.963000    3.194000   -0.306000 H         1 <1>         0.128400 
      3 C          -2.378000    1.146000    0.044000 C.ar      1 <1>        -0.136500 
      4 C          -1.283000    0.289000    0.205000 C.ar      1 <1>        -0.179600 
      5 H          -1.467000   -0.777000    0.338000 H         1 <1>         0.153500 
      6 C           0.039000    0.780000    0.182000 C.ar      1 <1>         0.107900 
      7 C           0.286000    2.161000    0.048000 C.ar      1 <1>         0.013600 
      8 C          -0.825000    3.003000   -0.152000 C.ar      1 <1>        -0.123300 
      9 H          -0.706000    4.078000   -0.272000 H         1 <1>         0.105600 
     10 N           1.597000    2.741000    0.101000 N.am      1 <1>        -0.246900 
     11 C           2.637000    2.236000    0.885000 C.2       1 <1>         0.439700 
     12 C           2.300000    1.070000    1.807000 C.3       1 <1>         0.067100 
     13 H           3.131000    0.940000    2.509000 H         1 <1>         0.058600 
     14 H           1.411000    1.276000    2.413000 H         1 <1>         0.023300 
     15 N           2.183000   -0.142000    0.996000 N.2       1 <1>        -0.367500 
     16 C           1.138000   -0.236000    0.237000 C.2       1 <1>         0.142600 
     17 C           1.040000   -1.446000   -0.643000 C.ar      1 <1>         0.051300 
     18 C           0.542000   -1.352000   -1.950000 C.ar      1 <1>        -0.149000 
     19 H           0.216000   -0.400000   -2.361000 H         1 <1>         0.121000 
     20 C           0.473000   -2.492000   -2.754000 C.ar      1 <1>        -0.091700 
     21 H           0.085000   -2.419000   -3.768000 H         1 <1>         0.098300 
     22 C           0.907000   -3.723000   -2.262000 C.ar      1 <1>        -0.094500 
     23 H           0.853000   -4.610000   -2.891000 H         1 <1>         0.100800 
     24 C           1.416000   -3.818000   -0.967000 C.ar      1 <1>        -0.084500 
     25 H           1.760000   -4.779000   -0.586000 H         1 <1>         0.102100 
     26 C           1.488000   -2.682000   -0.159000 C.ar      1 <1>        -0.140800 
     27 H           1.888000   -2.768000    0.849000 H         1 <1>         0.132100 
     28 O           3.776000    2.722000    0.883000 O.2       1 <1>        -0.398600 
     29 C           1.843000    3.979000   -0.635000 C.3       1 <1>        -0.084200 
     30 H           2.912000    4.125000   -0.818000 H         1 <1>         0.093100 
     31 H           1.483000    4.824000   -0.041000 H         1 <1>         0.052900 
     32 H           1.341000    3.950000   -1.608000 H         1 <1>         0.074400 
     33 C          -3.785000    0.606000    0.040000 C.3       1 <1>         0.273200 
     34 H          -4.467000    1.349000    0.469000 H         1 <1>         0.015000 
     35 H          -3.850000   -0.282000    0.680000 H         1 <1>        -0.037000 
     36 N          -4.217000    0.275000   -1.316000 N.3       1 <1>        -0.663600 
     37 H          -5.150000   -0.146000   -1.248000 H         1 <1>         0.240900 
     38 H          -3.632000   -0.498000   -1.650000 H         1 <1>         0.251000 
@<TRIPOS>BOND
     1    2    1 1    
     2    1    3 ar   
     3    3    4 ar   
     4    4    5 1    
     5    4    6 ar   
     6    6    7 ar   
     7    7    8 ar   
     8    8    9 1    
     9    8    1 ar   
    10    7   10 1    
    11   10   11 am   
    12   11   12 1    
    13   12   13 1    
    14   12   14 1    
    15   12   15 1    
    16   15   16 2    
    17   16    6 1    
    18   16   17 1    
    19   17   18 ar   
    20   18   19 1    
    21   18   20 ar   
    22   20   21 1    
    23   20   22 ar   
    24   22   23 1    
    25   22   24 ar   
    26   24   25 1    
    27   24   26 ar   
    28   26   27 1    
    29   26   17 ar   
    30   11   28 2    
    31   10   29 1    
    32   29   30 1    
    33   29   31 1    
    34   29   32 1    
    35    3   33 1    
    36   33   34 1    
    37   33   35 1    
    38   33   36 1    
    39   36   37 1    
    40   36   38 1    
@<TRIPOS>SUBSTRUCTURE
     1 ****        2 TEMP              0 ****  ****    0 ROOT 
@<TRIPOS>SET
UNITY_3DHIT     STATIC     ATOMS    <user>   **** Atoms matching 3D or FLEX Search
0
@<TRIPOS>UNITY_BOND_ATTR
16 1
S I
