#	Name:			Ro05-3072
#	Creating user name:	jeff
#	Creation time:		Tue Nov  4 15:19:51 2003

#	Modifying user name:	jeff
#	Modification time:	Tue Nov  4 15:19:51 2003

@<TRIPOS>MOLECULE
Ro05-3072
   32    34     1     0     1
SMALL
USER_CHARGES
****
From 3DB ct
@<TRIPOS>ATOM
      1 C          -2.097000    2.504000   -0.220000 C.ar      1 <1>        -0.319100 
      2 H          -2.913000    3.198000   -0.415000 H         1 <1>         0.151200 
      3 C          -2.360000    1.152000   -0.011000 C.ar      1 <1>         0.515200 
      4 C          -1.280000    0.284000    0.168000 C.ar      1 <1>        -0.405900 
      5 H          -1.476000   -0.782000    0.268000 H         1 <1>         0.178800 
      6 C           0.044000    0.762000    0.204000 C.ar      1 <1>         0.014000 
      7 C           0.285000    2.141000    0.101000 C.ar      1 <1>         0.099500 
      8 C          -0.790000    2.997000   -0.160000 C.ar      1 <1>        -0.101600 
      9 H          -0.631000    4.067000   -0.288000 H         1 <1>         0.125000 
     10 N           1.547000    2.748000    0.226000 N.am      1 <1>        -0.546700 
     11 H           1.665000    3.684000   -0.153000 H         1 <1>         0.314400 
     12 C           2.628000    2.265000    0.917000 C.2       1 <1>         0.496300 
     13 C           2.406000    1.032000    1.779000 C.3       1 <1>         0.073300 
     14 H           3.295000    0.889000    2.402000 H         1 <1>         0.057300 
     15 H           1.562000    1.179000    2.463000 H         1 <1>         0.029500 
     16 N           2.238000   -0.147000    0.931000 N.2       1 <1>        -0.420600 
     17 C           1.156000   -0.244000    0.228000 C.2       1 <1>         0.361200 
     18 C           1.034000   -1.458000   -0.644000 C.ar      1 <1>        -0.095800 
     19 C           0.527000   -1.363000   -1.946000 C.ar      1 <1>        -0.072400 
     20 H           0.207000   -0.408000   -2.357000 H         1 <1>         0.099100 
     21 C           0.438000   -2.506000   -2.744000 C.ar      1 <1>        -0.112200 
     22 H           0.041000   -2.433000   -3.756000 H         1 <1>         0.102400 
     23 C           0.863000   -3.739000   -2.251000 C.ar      1 <1>        -0.088100 
     24 H           0.794000   -4.628000   -2.875000 H         1 <1>         0.098300 
     25 C           1.383000   -3.834000   -0.960000 C.ar      1 <1>        -0.081900 
     26 H           1.720000   -4.797000   -0.578000 H         1 <1>         0.096600 
     27 C           1.474000   -2.695000   -0.158000 C.ar      1 <1>        -0.099600 
     28 H           1.883000   -2.779000    0.847000 H         1 <1>         0.119800 
     29 O           3.711000    2.860000    0.884000 O.2       1 <1>        -0.429300 
     30 N          -3.647000    0.661000   -0.118000 N.pl3     1 <1>        -0.889900 
     31 H          -3.860000   -0.292000    0.166000 H         1 <1>         0.366700 
     32 H          -4.440000    1.300000   -0.114000 H         1 <1>         0.364300 
@<TRIPOS>BOND
     1    2    1 1    
     2    1    3 ar   
     3    3    4 ar   
     4    4    5 1    
     5    4    6 ar   
     6    6    7 ar   
     7    7    8 ar   
     8    8    9 1    
     9    8    1 ar   
    10    7   10 1    
    11   10   11 1    
    12   10   12 am   
    13   12   13 1    
    14   13   14 1    
    15   13   15 1    
    16   13   16 1    
    17   16   17 2    
    18   17    6 1    
    19   17   18 1    
    20   18   19 ar   
    21   19   20 1    
    22   19   21 ar   
    23   21   22 1    
    24   21   23 ar   
    25   23   24 1    
    26   23   25 ar   
    27   25   26 1    
    28   25   27 ar   
    29   27   28 1    
    30   27   18 ar   
    31   12   29 2    
    32    3   30 1    
    33   30   31 1    
    34   30   32 1    
@<TRIPOS>SUBSTRUCTURE
     1 ****        2 TEMP              0 ****  ****    0 ROOT 
@<TRIPOS>SET
UNITY_3DHIT     STATIC     ATOMS    <user>   **** Atoms matching 3D or FLEX Search
0
@<TRIPOS>UNITY_BOND_ATTR
17 1
S I
