#	Name:			Ro05-3546
#	Creating user name:	jeff
#	Creation time:		Tue Nov  4 15:19:52 2003

#	Modifying user name:	jeff
#	Modification time:	Tue Nov  4 15:19:52 2003

@<TRIPOS>MOLECULE
Ro05-3546
   30    32     1     0     1
SMALL
USER_CHARGES
****
From 3DB ct
@<TRIPOS>ATOM
      1 C          -2.086000    2.536000   -0.262000 C.ar      1 <1>        -0.188400 
      2 H          -2.892000    3.233000   -0.485000 H         1 <1>         0.137700 
      3 C          -2.378000    1.221000    0.086000 C.ar      1 <1>         0.175200 
      4 H          -3.418000    0.904000    0.141000 H         1 <1>         0.055600 
      5 C          -1.344000    0.319000    0.355000 C.ar      1 <1>        -0.580100 
      6 C           0.000000    0.732000    0.274000 C.ar      1 <1>         0.456200 
      7 C           0.283000    2.091000    0.036000 C.ar      1 <1>         0.020700 
      8 C          -0.762000    2.969000   -0.283000 C.ar      1 <1>        -0.100600 
      9 H          -0.560000    4.016000   -0.507000 H         1 <1>         0.120700 
     10 N           1.565000    2.669000    0.118000 N.am      1 <1>        -0.554900 
     11 H           1.712000    3.570000   -0.329000 H         1 <1>         0.323600 
     12 C           2.621000    2.226000    0.876000 C.2       1 <1>         0.542200 
     13 C           2.364000    1.047000    1.807000 C.3       1 <1>         0.026500 
     14 H           3.243000    0.921000    2.449000 H         1 <1>         0.067700 
     15 H           1.513000    1.242000    2.469000 H         1 <1>         0.029400 
     16 N           2.195000   -0.165000    1.006000 N.2       1 <1>        -0.333600 
     17 C           1.116000   -0.270000    0.295000 C.2       1 <1>         0.032400 
     18 C           1.032000   -1.456000   -0.621000 C.ar      1 <1>         0.097200 
     19 C           0.547000   -1.326000   -1.929000 C.ar      1 <1>        -0.144700 
     20 H           0.220000   -0.365000   -2.318000 H         1 <1>         0.110900 
     21 C           0.494000   -2.443000   -2.766000 C.ar      1 <1>        -0.113500 
     22 H           0.114000   -2.342000   -3.782000 H         1 <1>         0.112200 
     23 C           0.932000   -3.685000   -2.307000 C.ar      1 <1>        -0.111800 
     24 H           0.889000   -4.553000   -2.962000 H         1 <1>         0.106800 
     25 C           1.431000   -3.814000   -1.011000 C.ar      1 <1>        -0.050300 
     26 H           1.778000   -4.783000   -0.656000 H         1 <1>         0.095900 
     27 C           1.488000   -2.702000   -0.170000 C.ar      1 <1>        -0.164900 
     28 H           1.879000   -2.814000    0.839000 H         1 <1>         0.133400 
     29 O           3.710000    2.809000    0.837000 O.2       1 <1>        -0.431000 
     30 Cl         -1.813000   -1.275000    0.845000 Cl        1 <1>         0.129500 
@<TRIPOS>BOND
     1    2    1 1    
     2    1    3 ar   
     3    3    4 1    
     4    3    5 ar   
     5    5    6 ar   
     6    6    7 ar   
     7    7    8 ar   
     8    8    9 1    
     9    8    1 ar   
    10    7   10 1    
    11   10   11 1    
    12   10   12 am   
    13   12   13 1    
    14   13   14 1    
    15   13   15 1    
    16   13   16 1    
    17   16   17 2    
    18   17    6 1    
    19   17   18 1    
    20   18   19 ar   
    21   19   20 1    
    22   19   21 ar   
    23   21   22 1    
    24   21   23 ar   
    25   23   24 1    
    26   23   25 ar   
    27   25   26 1    
    28   25   27 ar   
    29   27   28 1    
    30   27   18 ar   
    31   12   29 2    
    32    5   30 1    
@<TRIPOS>SUBSTRUCTURE
     1 ****        2 TEMP              0 ****  ****    0 ROOT 
@<TRIPOS>SET
UNITY_3DHIT     STATIC     ATOMS    <user>   **** Atoms matching 3D or FLEX Search
0
@<TRIPOS>UNITY_BOND_ATTR
17 1
S I
