#	Name:			Ro05-3590
#	Creating user name:	jeff
#	Creation time:		Tue Nov  4 15:19:51 2003

#	Modifying user name:	jeff
#	Modification time:	Tue Nov  4 15:19:51 2003

@<TRIPOS>MOLECULE
Ro05-3590
   35    37     1     0     1
SMALL
USER_CHARGES
****
From 3DB ct
@<TRIPOS>ATOM
      1 C          -2.104000    2.502000   -0.240000 C.ar      1 <1>        -0.091100 
      2 H          -2.916000    3.201000   -0.425000 H         1 <1>         0.172600 
      3 C          -2.341000    1.137000   -0.061000 C.ar      1 <1>         0.036000 
      4 C          -1.274000    0.256000    0.159000 C.ar      1 <1>        -0.204200 
      5 H          -1.464000   -0.809000    0.270000 H         1 <1>         0.196900 
      6 C           0.045000    0.746000    0.214000 C.ar      1 <1>        -0.026300 
      7 C           0.281000    2.129000    0.102000 C.ar      1 <1>         0.279400 
      8 C          -0.796000    2.989000   -0.164000 C.ar      1 <1>        -0.214100 
      9 H          -0.633000    4.059000   -0.283000 H         1 <1>         0.145300 
     10 N           1.540000    2.743000    0.221000 N.am      1 <1>        -0.578700 
     11 H           1.651000    3.676000   -0.166000 H         1 <1>         0.336800 
     12 C           2.632000    2.273000    0.903000 C.2       1 <1>         0.473400 
     13 C           2.426000    1.046000    1.776000 C.3       1 <1>         0.134900 
     14 H           3.323000    0.910000    2.390000 H         1 <1>         0.052600 
     15 H           1.590000    1.194000    2.468000 H         1 <1>         0.019800 
     16 N           2.253000   -0.141000    0.940000 N.2       1 <1>        -0.415000 
     17 C           1.163000   -0.253000    0.257000 C.2       1 <1>         0.281700 
     18 C           1.041000   -1.482000   -0.589000 C.ar      1 <1>         0.042200 
     19 C           1.478000   -2.701000   -0.046000 C.ar      1 <1>        -0.186600 
     20 H           1.903000   -2.747000    0.955000 H         1 <1>         0.149700 
     21 C           1.355000   -3.881000   -0.779000 C.ar      1 <1>         0.007700 
     22 H           1.694000   -4.824000   -0.355000 H         1 <1>         0.101700 
     23 C           0.785000   -3.853000   -2.048000 C.ar      1 <1>        -0.132800 
     24 H           0.683000   -4.774000   -2.619000 H         1 <1>         0.120200 
     25 C           0.339000   -2.644000   -2.588000 C.ar      1 <1>        -0.003600 
     26 H          -0.108000   -2.649000   -3.583000 H         1 <1>         0.115700 
     27 C           0.464000   -1.438000   -1.872000 C.ar      1 <1>        -0.265700 
     28 C          -0.020000   -0.154000   -2.493000 C.3       1 <1>         0.929100 
     29 F          -1.255000    0.237000   -2.060000 F         1 <1>        -0.306500 
     30 F          -0.143000   -0.234000   -3.858000 F         1 <1>        -0.300200 
     31 F           0.813000    0.911000   -2.294000 F         1 <1>        -0.284100 
     32 O           3.710000    2.875000    0.856000 O.2       1 <1>        -0.394400 
     33 N          -3.715000    0.621000   -0.124000 N.2       1 <1>         0.554500 
     34 O          -3.903000   -0.586000    0.121000 O.2       1 <1>        -0.375800 
     35 O          -4.631000    1.411000   -0.420000 O.3       1 <1>        -0.371200 
@<TRIPOS>BOND
     1    2    1 1    
     2    1    3 ar   
     3    3    4 ar   
     4    4    5 1    
     5    4    6 ar   
     6    6    7 ar   
     7    7    8 ar   
     8    8    9 1    
     9    8    1 ar   
    10    7   10 1    
    11   10   11 1    
    12   10   12 am   
    13   12   13 1    
    14   13   14 1    
    15   13   15 1    
    16   13   16 1    
    17   16   17 2    
    18   17    6 1    
    19   17   18 1    
    20   18   19 ar   
    21   19   20 1    
    22   19   21 ar   
    23   21   22 1    
    24   21   23 ar   
    25   23   24 1    
    26   23   25 ar   
    27   25   26 1    
    28   25   27 ar   
    29   27   18 ar   
    30   27   28 1    
    31   28   29 1    
    32   28   30 1    
    33   28   31 1    
    34   12   32 2    
    35    3   33 1    
    36   33   34 2    
    37   33   35 1    
@<TRIPOS>SUBSTRUCTURE
     1 ****        2 TEMP              0 ****  ****    0 ROOT 
@<TRIPOS>SET
UNITY_3DHIT     STATIC     ATOMS    <user>   **** Atoms matching 3D or FLEX Search
0
@<TRIPOS>UNITY_ATOM_ATTR
33 1
AtomExpr +1
35 1
AtomExpr -1
@<TRIPOS>UNITY_BOND_ATTR
17 1
S I
