#	Name:			Ro05-4318
#	Creating user name:	jeff
#	Creation time:		Tue Nov  4 15:19:51 2003

#	Modifying user name:	jeff
#	Modification time:	Tue Nov  4 15:19:51 2003

@<TRIPOS>MOLECULE
Ro05-4318
   35    37     1     0     1
SMALL
USER_CHARGES
****
From 3DB ct
@<TRIPOS>ATOM
      1 C          -2.130000    2.496000   -0.162000 C.ar      1 <1>        -0.364400 
      2 H          -2.958000    3.186000   -0.321000 H         1 <1>         0.153400 
      3 C          -2.377000    1.147000    0.064000 C.ar      1 <1>         0.546000 
      4 C          -1.286000    0.293000    0.207000 C.ar      1 <1>        -0.452000 
      5 H          -1.468000   -0.773000    0.336000 H         1 <1>         0.178700 
      6 C           0.037000    0.781000    0.183000 C.ar      1 <1>         0.183000 
      7 C           0.287000    2.161000    0.044000 C.ar      1 <1>        -0.161400 
      8 C          -0.822000    2.998000   -0.163000 C.ar      1 <1>         0.019100 
      9 H          -0.707000    4.072000   -0.294000 H         1 <1>         0.104500 
     10 N           1.599000    2.740000    0.099000 N.am      1 <1>        -0.183500 
     11 C           2.637000    2.235000    0.885000 C.2       1 <1>         0.412600 
     12 C           2.298000    1.070000    1.808000 C.3       1 <1>         0.060700 
     13 H           3.129000    0.939000    2.510000 H         1 <1>         0.062000 
     14 H           1.409000    1.278000    2.414000 H         1 <1>         0.031000 
     15 N           2.179000   -0.143000    0.998000 N.2       1 <1>        -0.389800 
     16 C           1.135000   -0.235000    0.238000 C.2       1 <1>         0.230400 
     17 C           1.037000   -1.445000   -0.642000 C.ar      1 <1>        -0.003800 
     18 C           0.541000   -1.350000   -1.949000 C.ar      1 <1>        -0.129200 
     19 H           0.214000   -0.398000   -2.360000 H         1 <1>         0.112500 
     20 C           0.476000   -2.489000   -2.755000 C.ar      1 <1>        -0.090600 
     21 H           0.088000   -2.415000   -3.770000 H         1 <1>         0.099200 
     22 C           0.911000   -3.720000   -2.264000 C.ar      1 <1>        -0.100000 
     23 H           0.859000   -4.606000   -2.895000 H         1 <1>         0.101300 
     24 C           1.418000   -3.816000   -0.969000 C.ar      1 <1>        -0.086700 
     25 H           1.763000   -4.776000   -0.588000 H         1 <1>         0.100600 
     26 C           1.487000   -2.680000   -0.159000 C.ar      1 <1>        -0.116600 
     27 H           1.886000   -2.767000    0.849000 H         1 <1>         0.124000 
     28 O           3.776000    2.720000    0.885000 O.2       1 <1>        -0.400400 
     29 C           1.846000    3.978000   -0.637000 C.3       1 <1>        -0.094400 
     30 H           2.915000    4.126000   -0.814000 H         1 <1>         0.092000 
     31 H           1.481000    4.823000   -0.045000 H         1 <1>         0.048200 
     32 H           1.349000    3.946000   -1.612000 H         1 <1>         0.073100 
     33 N          -3.664000    0.648000    0.018000 N.pl3     1 <1>        -0.894400 
     34 H          -3.860000   -0.306000    0.311000 H         1 <1>         0.368000 
     35 H          -4.461000    1.281000    0.043000 H         1 <1>         0.366900 
@<TRIPOS>BOND
     1    2    1 1    
     2    1    3 ar   
     3    3    4 ar   
     4    4    5 1    
     5    4    6 ar   
     6    6    7 ar   
     7    7    8 ar   
     8    8    9 1    
     9    8    1 ar   
    10    7   10 1    
    11   10   11 am   
    12   11   12 1    
    13   12   13 1    
    14   12   14 1    
    15   12   15 1    
    16   15   16 2    
    17   16    6 1    
    18   16   17 1    
    19   17   18 ar   
    20   18   19 1    
    21   18   20 ar   
    22   20   21 1    
    23   20   22 ar   
    24   22   23 1    
    25   22   24 ar   
    26   24   25 1    
    27   24   26 ar   
    28   26   27 1    
    29   26   17 ar   
    30   11   28 2    
    31   10   29 1    
    32   29   30 1    
    33   29   31 1    
    34   29   32 1    
    35    3   33 1    
    36   33   34 1    
    37   33   35 1    
@<TRIPOS>SUBSTRUCTURE
     1 ****        2 TEMP              0 ****  ****    0 ROOT 
@<TRIPOS>SET
UNITY_3DHIT     STATIC     ATOMS    <user>   **** Atoms matching 3D or FLEX Search
0
@<TRIPOS>UNITY_BOND_ATTR
16 1
S I
