#	Name:			Ro05-4336
#	Creating user name:	jeff
#	Creation time:		Tue Nov  4 15:19:52 2003

#	Modifying user name:	jeff
#	Modification time:	Tue Nov  4 15:19:52 2003

@<TRIPOS>MOLECULE
Ro05-4336
   30    32     1     0     1
SMALL
USER_CHARGES
****
From 3DB ct
@<TRIPOS>ATOM
      1 C          -2.101000    2.491000   -0.228000 C.ar      1 <1>        -0.046500 
      2 H          -2.933000    3.170000   -0.405000 H         1 <1>         0.110100 
      3 C          -2.335000    1.129000   -0.071000 C.ar      1 <1>        -0.119400 
      4 H          -3.349000    0.739000   -0.128000 H         1 <1>         0.107700 
      5 C          -1.263000    0.261000    0.136000 C.ar      1 <1>        -0.117400 
      6 H          -1.472000   -0.804000    0.228000 H         1 <1>         0.126900 
      7 C           0.055000    0.749000    0.203000 C.ar      1 <1>        -0.110300 
      8 C           0.282000    2.134000    0.113000 C.ar      1 <1>         0.274700 
      9 C          -0.800000    2.988000   -0.143000 C.ar      1 <1>        -0.229100 
     10 H          -0.646000    4.062000   -0.246000 H         1 <1>         0.130200 
     11 N           1.538000    2.753000    0.243000 N.am      1 <1>        -0.599000 
     12 H           1.644000    3.693000   -0.128000 H         1 <1>         0.329100 
     13 C           2.630000    2.276000    0.920000 C.2       1 <1>         0.511100 
     14 C           2.427000    1.034000    1.773000 C.3       1 <1>         0.057200 
     15 H           3.323000    0.895000    2.389000 H         1 <1>         0.062600 
     16 H           1.588000    1.168000    2.465000 H         1 <1>         0.031300 
     17 N           2.265000   -0.140000    0.919000 N.2       1 <1>        -0.418400 
     18 C           1.173000   -0.248000    0.234000 C.2       1 <1>         0.404300 
     19 C           1.044000   -1.458000   -0.628000 C.ar      1 <1>        -0.252800 
     20 C           1.464000   -2.707000   -0.155000 C.ar      1 <1>        -0.041900 
     21 H           1.889000   -2.814000    0.841000 H         1 <1>         0.127500 
     22 C           1.327000   -3.837000   -0.965000 C.ar      1 <1>        -0.127500 
     23 H           1.653000   -4.810000   -0.600000 H         1 <1>         0.109900 
     24 C           0.769000   -3.723000   -2.240000 C.ar      1 <1>        -0.036000 
     25 H           0.665000   -4.606000   -2.869000 H         1 <1>         0.109200 
     26 C           0.345000   -2.479000   -2.709000 C.ar      1 <1>        -0.268900 
     27 H          -0.087000   -2.384000   -3.701000 H         1 <1>         0.153700 
     28 C           0.481000   -1.353000   -1.901000 C.ar      1 <1>         0.403200 
     29 F           0.087000   -0.165000   -2.386000 F         1 <1>        -0.258400 
     30 O           3.706000    2.883000    0.885000 O.2       1 <1>        -0.423200 
@<TRIPOS>BOND
     1    2    1 1    
     2    1    3 ar   
     3    3    4 1    
     4    3    5 ar   
     5    5    6 1    
     6    5    7 ar   
     7    7    8 ar   
     8    8    9 ar   
     9    9   10 1    
    10    9    1 ar   
    11    8   11 1    
    12   11   12 1    
    13   11   13 am   
    14   13   14 1    
    15   14   15 1    
    16   14   16 1    
    17   14   17 1    
    18   17   18 2    
    19   18    7 1    
    20   18   19 1    
    21   19   20 ar   
    22   20   21 1    
    23   20   22 ar   
    24   22   23 1    
    25   22   24 ar   
    26   24   25 1    
    27   24   26 ar   
    28   26   27 1    
    29   26   28 ar   
    30   28   19 ar   
    31   28   29 1    
    32   13   30 2    
@<TRIPOS>SUBSTRUCTURE
     1 ****        2 TEMP              0 ****  ****    0 ROOT 
@<TRIPOS>SET
UNITY_3DHIT     STATIC     ATOMS    <user>   **** Atoms matching 3D or FLEX Search
0
@<TRIPOS>UNITY_BOND_ATTR
18 1
S I
