#	Name:			Ro05-4619
#	Creating user name:	jeff
#	Creation time:		Tue Nov  4 15:19:51 2003

#	Modifying user name:	jeff
#	Modification time:	Tue Nov  4 15:19:51 2003

@<TRIPOS>MOLECULE
Ro05-4619
   32    34     1     0     1
SMALL
USER_CHARGES
****
From 3DB ct
@<TRIPOS>ATOM
      1 C          -2.094000    2.457000   -0.267000 C.ar      1 <1>        -0.326900 
      2 H          -2.914000    3.141000   -0.479000 H         1 <1>         0.159400 
      3 C          -2.342000    1.100000   -0.076000 C.ar      1 <1>         0.494300 
      4 C          -1.256000    0.246000    0.126000 C.ar      1 <1>        -0.405100 
      5 H          -1.447000   -0.822000    0.211000 H         1 <1>         0.173400 
      6 C           0.061000    0.740000    0.211000 C.ar      1 <1>         0.031700 
      7 C           0.286000    2.123000    0.110000 C.ar      1 <1>         0.134200 
      8 C          -0.795000    2.966000   -0.171000 C.ar      1 <1>        -0.110800 
      9 H          -0.648000    4.038000   -0.294000 H         1 <1>         0.126800 
     10 N           1.538000    2.751000    0.241000 N.am      1 <1>        -0.543600 
     11 H           1.638000    3.689000   -0.136000 H         1 <1>         0.319700 
     12 C           2.634000    2.286000    0.918000 C.2       1 <1>         0.439800 
     13 C           2.444000    1.046000    1.774000 C.3       1 <1>         0.172600 
     14 H           3.344000    0.913000    2.386000 H         1 <1>         0.038900 
     15 H           1.608000    1.177000    2.470000 H         1 <1>         0.014000 
     16 N           2.284000   -0.132000    0.924000 N.2       1 <1>        -0.456800 
     17 C           1.183000   -0.251000    0.256000 C.2       1 <1>         0.210400 
     18 C           1.052000   -1.470000   -0.591000 C.ar      1 <1>         0.468400 
     19 C           1.504000   -2.688000   -0.062000 C.ar      1 <1>        -0.386300 
     20 H           1.939000   -2.733000    0.934000 H         1 <1>         0.179100 
     21 C           1.387000   -3.858000   -0.813000 C.ar      1 <1>         0.065300 
     22 H           1.736000   -4.804000   -0.404000 H         1 <1>         0.086900 
     23 C           0.819000   -3.816000   -2.086000 C.ar      1 <1>        -0.242600 
     24 H           0.729000   -4.730000   -2.671000 H         1 <1>         0.126600 
     25 C           0.368000   -2.603000   -2.614000 C.ar      1 <1>         0.220700 
     26 H          -0.067000   -2.587000   -3.611000 H         1 <1>         0.047200 
     27 C           0.481000   -1.426000   -1.869000 C.ar      1 <1>        -0.582600 
     28 Cl         -0.052000    0.047000   -2.598000 Cl        1 <1>         0.108800 
     29 O           3.704000    2.902000    0.880000 O.2       1 <1>        -0.415400 
     30 N          -3.619000    0.593000   -0.224000 N.pl3     1 <1>        -0.873900 
     31 H          -3.828000   -0.365000    0.048000 H         1 <1>         0.364400 
     32 H          -4.420000    1.220000   -0.238000 H         1 <1>         0.361400 
@<TRIPOS>BOND
     1    2    1 1    
     2    1    3 ar   
     3    3    4 ar   
     4    4    5 1    
     5    4    6 ar   
     6    6    7 ar   
     7    7    8 ar   
     8    8    9 1    
     9    8    1 ar   
    10    7   10 1    
    11   10   11 1    
    12   10   12 am   
    13   12   13 1    
    14   13   14 1    
    15   13   15 1    
    16   13   16 1    
    17   16   17 2    
    18   17    6 1    
    19   17   18 1    
    20   18   19 ar   
    21   19   20 1    
    22   19   21 ar   
    23   21   22 1    
    24   21   23 ar   
    25   23   24 1    
    26   23   25 ar   
    27   25   26 1    
    28   25   27 ar   
    29   27   18 ar   
    30   27   28 1    
    31   12   29 2    
    32    3   30 1    
    33   30   31 1    
    34   30   32 1    
@<TRIPOS>SUBSTRUCTURE
     1 ****        2 TEMP              0 ****  ****    0 ROOT 
@<TRIPOS>SET
UNITY_3DHIT     STATIC     ATOMS    <user>   **** Atoms matching 3D or FLEX Search
0
@<TRIPOS>UNITY_BOND_ATTR
17 1
S I
