#	Name:			Ro05-3343
#	Creating user name:	jeff
#	Creation time:		Tue Nov  4 15:19:52 2003

#	Modifying user name:	jeff
#	Modification time:	Tue Nov  4 15:19:52 2003

@<TRIPOS>MOLECULE
Ro05-3343
   41    43     1     0     1
SMALL
USER_CHARGES
****
From 3DB ct
@<TRIPOS>ATOM
      1 C          -2.100000    2.492000   -0.225000 C.ar      1 <1>         0.092700 
      2 H          -2.925000    3.179000   -0.407000 H         1 <1>         0.126200 
      3 C          -2.336000    1.123000   -0.066000 C.ar      1 <1>        -0.441300 
      4 C          -1.262000    0.259000    0.146000 C.ar      1 <1>        -0.027900 
      5 H          -1.423000   -0.806000    0.249000 H         1 <1>         0.129000 
      6 C           0.056000    0.757000    0.201000 C.ar      1 <1>        -0.055300 
      7 C           0.284000    2.141000    0.113000 C.ar      1 <1>         0.302700 
      8 C          -0.799000    2.994000   -0.140000 C.ar      1 <1>        -0.281200 
      9 H          -0.647000    4.068000   -0.243000 H         1 <1>         0.146500 
     10 N           1.539000    2.758000    0.248000 N.am      1 <1>        -0.600900 
     11 H           1.648000    3.699000   -0.121000 H         1 <1>         0.336500 
     12 C           2.628000    2.277000    0.927000 C.2       1 <1>         0.502300 
     13 C           2.420000    1.034000    1.778000 C.3       1 <1>         0.130800 
     14 H           3.313000    0.893000    2.397000 H         1 <1>         0.049700 
     15 H           1.578000    1.167000    2.466000 H         1 <1>         0.010900 
     16 N           2.260000   -0.139000    0.920000 N.2       1 <1>        -0.429300 
     17 C           1.177000   -0.240000    0.220000 C.2       1 <1>         0.300400 
     18 C           1.051000   -1.453000   -0.650000 C.ar      1 <1>        -0.028200 
     19 C           0.528000   -1.357000   -1.946000 C.ar      1 <1>        -0.094500 
     20 H           0.219000   -0.398000   -2.357000 H         1 <1>         0.093900 
     21 C           0.408000   -2.503000   -2.734000 C.ar      1 <1>        -0.110700 
     22 H          -0.001000   -2.431000   -3.740000 H         1 <1>         0.106300 
     23 C           0.817000   -3.740000   -2.235000 C.ar      1 <1>        -0.099000 
     24 H           0.723000   -4.633000   -2.852000 H         1 <1>         0.105400 
     25 C           1.354000   -3.835000   -0.951000 C.ar      1 <1>        -0.065500 
     26 H           1.678000   -4.801000   -0.567000 H         1 <1>         0.099600 
     27 C           1.477000   -2.692000   -0.159000 C.ar      1 <1>        -0.136200 
     28 H           1.895000   -2.776000    0.842000 H         1 <1>         0.135700 
     29 O           3.705000    2.882000    0.897000 O.2       1 <1>        -0.409700 
     30 S          -4.022000    0.572000   -0.199000 S.o2      1 <1>         1.601700 
     31 O          -4.458000    0.872000   -1.553000 O.2       1 <1>        -0.669300 
     32 O          -4.744000    1.141000    0.928000 O.2       1 <1>        -0.650600 
     33 N          -4.064000   -1.111000   -0.027000 N.pl3     1 <1>        -0.455600 
     34 C          -4.225000   -1.943000   -1.236000 C.3       1 <1>        -0.147700 
     35 H          -4.022000   -2.992000   -0.994000 H         1 <1>         0.110900 
     36 H          -3.503000   -1.650000   -2.003000 H         1 <1>         0.078400 
     37 H          -5.235000   -1.873000   -1.644000 H         1 <1>         0.092800 
     38 C          -4.659000   -1.696000    1.193000 C.3       1 <1>        -0.166200 
     39 H          -3.939000   -2.388000    1.641000 H         1 <1>         0.109600 
     40 H          -5.577000   -2.245000    0.966000 H         1 <1>         0.103500 
     41 H          -4.895000   -0.933000    1.940000 H         1 <1>         0.103400 
@<TRIPOS>BOND
     1    2    1 1    
     2    1    3 ar   
     3    3    4 ar   
     4    4    5 1    
     5    4    6 ar   
     6    6    7 ar   
     7    7    8 ar   
     8    8    9 1    
     9    8    1 ar   
    10    7   10 1    
    11   10   11 1    
    12   10   12 am   
    13   12   13 1    
    14   13   14 1    
    15   13   15 1    
    16   13   16 1    
    17   16   17 2    
    18   17    6 1    
    19   17   18 1    
    20   18   19 ar   
    21   19   20 1    
    22   19   21 ar   
    23   21   22 1    
    24   21   23 ar   
    25   23   24 1    
    26   23   25 ar   
    27   25   26 1    
    28   25   27 ar   
    29   27   28 1    
    30   27   18 ar   
    31   12   29 2    
    32    3   30 1    
    33   30   31 2    
    34   30   32 2    
    35   30   33 1    
    36   33   34 1    
    37   34   35 1    
    38   34   36 1    
    39   34   37 1    
    40   33   38 1    
    41   38   39 1    
    42   38   40 1    
    43   38   41 1    
@<TRIPOS>SUBSTRUCTURE
     1 ****        2 TEMP              0 ****  ****    0 ROOT 
@<TRIPOS>SET
UNITY_3DHIT     STATIC     ATOMS    <user>   **** Atoms matching 3D or FLEX Search
0
@<TRIPOS>UNITY_BOND_ATTR
17 1
S I
