#	Name:			Ro05-3328
#	Creating user name:	jeff
#	Creation time:		Tue Nov  4 15:19:54 2003

#	Modifying user name:	jeff
#	Modification time:	Tue Nov  4 15:19:54 2003

@<TRIPOS>MOLECULE
Ro05-3328
   36    38     1     0     1
SMALL
USER_CHARGES
****
From 3DB ct
@<TRIPOS>ATOM
      1 C          -2.106000    2.519000   -0.203000 C.ar      1 <1>         0.244700 
      2 H          -2.921000    3.215000   -0.388000 H         1 <1>         0.058300 
      3 C          -2.359000    1.171000    0.018000 C.ar      1 <1>        -0.503600 
      4 C          -1.308000    0.281000    0.236000 C.ar      1 <1>         0.205700 
      5 H          -1.535000   -0.770000    0.386000 H         1 <1>         0.056500 
      6 C           0.019000    0.742000    0.246000 C.ar      1 <1>        -0.219000 
      7 C           0.275000    2.119000    0.098000 C.ar      1 <1>         0.434300 
      8 C          -0.792000    2.989000   -0.168000 C.ar      1 <1>        -0.380800 
      9 H          -0.617000    4.054000   -0.315000 H         1 <1>         0.159000 
     10 N           1.544000    2.715000    0.191000 N.am      1 <1>        -0.676700 
     11 H           1.667000    3.640000   -0.213000 H         1 <1>         0.344500 
     12 C           2.629000    2.244000    0.885000 C.2       1 <1>         0.571200 
     13 C           2.405000    1.032000    1.775000 C.3       1 <1>        -0.051200 
     14 H           3.301000    0.892000    2.390000 H         1 <1>         0.087000 
     15 H           1.571000    1.200000    2.466000 H         1 <1>         0.060200 
     16 N           2.219000   -0.157000    0.948000 N.2       1 <1>        -0.343300 
     17 C           1.129000   -0.271000    0.265000 C.2       1 <1>         0.217500 
     18 C           0.970000   -1.524000   -0.639000 C.3       1 <1>        -0.003000 
     19 H           0.074000   -2.048000   -0.286000 H         1 <1>         0.060300 
     20 C           2.232000   -2.389000   -0.480000 C.3       1 <1>        -0.025500 
     21 H           2.277000   -2.857000    0.509000 H         1 <1>         0.011800 
     22 H           3.113000   -1.738000   -0.550000 H         1 <1>         0.034400 
     23 C           2.342000   -3.475000   -1.547000 C.3       1 <1>        -0.055000 
     24 H           1.528000   -4.200000   -1.426000 H         1 <1>         0.027700 
     25 H           3.280000   -4.025000   -1.412000 H         1 <1>         0.020600 
     26 C           2.300000   -2.879000   -2.948000 C.3       1 <1>        -0.051400 
     27 H           2.344000   -3.682000   -3.693000 H         1 <1>         0.017500 
     28 H           3.184000   -2.249000   -3.105000 H         1 <1>         0.044300 
     29 C           1.041000   -2.049000   -3.162000 C.3       1 <1>        -0.083600 
     30 H           0.171000   -2.715000   -3.188000 H         1 <1>         0.045300 
     31 H           1.086000   -1.564000   -4.144000 H         1 <1>         0.032200 
     32 C           0.859000   -0.985000   -2.079000 C.3       1 <1>        -0.118900 
     33 H           1.638000   -0.223000   -2.219000 H         1 <1>         0.086700 
     34 H          -0.098000   -0.471000   -2.228000 H         1 <1>         0.022100 
     35 O           3.714000    2.833000    0.832000 O.2       1 <1>        -0.423300 
     36 Cl         -3.979000    0.590000   -0.003000 Cl        1 <1>         0.093600 
@<TRIPOS>BOND
     1    2    1 1    
     2    1    3 ar   
     3    3    4 ar   
     4    4    5 1    
     5    4    6 ar   
     6    6    7 ar   
     7    7    8 ar   
     8    8    9 1    
     9    8    1 ar   
    10    7   10 1    
    11   10   11 1    
    12   10   12 am   
    13   12   13 1    
    14   13   14 1    
    15   13   15 1    
    16   13   16 1    
    17   16   17 2    
    18   17    6 1    
    19   17   18 1    
    20   18   19 1    
    21   18   20 1    
    22   20   21 1    
    23   20   22 1    
    24   20   23 1    
    25   23   24 1    
    26   23   25 1    
    27   23   26 1    
    28   26   27 1    
    29   26   28 1    
    30   26   29 1    
    31   29   30 1    
    32   29   31 1    
    33   29   32 1    
    34   32   33 1    
    35   32   34 1    
    36   32   18 1    
    37   12   35 2    
    38    3   36 1    
@<TRIPOS>SUBSTRUCTURE
     1 ****        2 TEMP              0 ****  ****    0 ROOT 
@<TRIPOS>SET
UNITY_3DHIT     STATIC     ATOMS    <user>   **** Atoms matching 3D or FLEX Search
0
@<TRIPOS>UNITY_BOND_ATTR
17 1
S I
