#	Name:			Ro05-3636
#	Creating user name:	jeff
#	Creation time:		Tue Nov  4 15:19:55 2003

#	Modifying user name:	jeff
#	Modification time:	Tue Nov  4 15:19:55 2003

@<TRIPOS>MOLECULE
Ro05-3636
   38    40     1     0     1
SMALL
USER_CHARGES
****
From 3DB ct
@<TRIPOS>ATOM
      1 C          -2.071000    2.509000   -0.364000 C.ar      1 <1>         0.172000 
      2 H          -2.864000    3.210000   -0.611000 H         1 <1>         0.065500 
      3 C          -2.349000    1.165000   -0.204000 C.ar      1 <1>        -0.454400 
      4 C          -1.313000    0.283000    0.100000 C.ar      1 <1>         0.127600 
      5 H          -1.568000   -0.772000    0.198000 H         1 <1>         0.052300 
      6 C           0.037000    0.707000    0.250000 C.ar      1 <1>         0.008300 
      7 C           0.289000    2.086000    0.160000 C.ar      1 <1>         0.222400 
      8 C          -0.766000    2.961000   -0.182000 C.ar      1 <1>        -0.260900 
      9 H          -0.584000    4.029000   -0.285000 H         1 <1>         0.131800 
     10 N           1.504000    2.749000    0.399000 N.am      1 <1>        -0.297700 
     11 C           2.656000    2.347000    0.999000 C.2       1 <1>         0.489700 
     12 C           2.801000    0.935000    1.514000 C.3       1 <1>        -0.115400 
     13 H           3.857000    0.800000    1.777000 H         1 <1>         0.105500 
     14 H           2.223000    0.803000    2.435000 H         1 <1>         0.075700 
     15 N           2.473000   -0.016000    0.462000 N.3       1 <1>        -0.194300 
     16 C           1.062000   -0.401000    0.501000 C.3       1 <1>        -0.202600 
     17 H           0.844000   -0.781000    1.510000 H         1 <1>         0.118700 
     18 C           0.912000   -1.584000   -0.469000 C.ar      1 <1>        -0.004500 
     19 C           0.395000   -1.394000   -1.763000 C.ar      1 <1>         0.321900 
     20 C           0.283000   -2.466000   -2.650000 C.ar      1 <1>        -0.251700 
     21 H          -0.116000   -2.304000   -3.647000 H         1 <1>         0.152000 
     22 C           0.691000   -3.739000   -2.257000 C.ar      1 <1>        -0.040800 
     23 H           0.609000   -4.572000   -2.951000 H         1 <1>         0.113700 
     24 C           1.211000   -3.943000   -0.980000 C.ar      1 <1>        -0.172900 
     25 H           1.532000   -4.937000   -0.678000 H         1 <1>         0.123700 
     26 C           1.325000   -2.873000   -0.091000 C.ar      1 <1>        -0.084600 
     27 H           1.738000   -3.052000    0.899000 H         1 <1>         0.123700 
     28 F           0.015000   -0.171000   -2.157000 F         1 <1>        -0.217900 
     29 C           3.267000   -1.226000    0.657000 C.3       1 <1>        -0.183500 
     30 H           4.337000   -0.971000    0.633000 H         1 <1>         0.098700 
     31 H           3.019000   -1.675000    1.630000 H         1 <1>         0.071300 
     32 H           3.044000   -1.944000   -0.146000 H         1 <1>         0.090600 
     33 O           3.548000    3.184000    1.173000 O.2       1 <1>        -0.409800 
     34 C           1.558000    4.176000    0.090000 C.3       1 <1>        -0.084700 
     35 H           2.560000    4.564000    0.324000 H         1 <1>         0.095600 
     36 H           1.346000    4.328000   -0.978000 H         1 <1>         0.075500 
     37 H           0.808000    4.710000    0.692000 H         1 <1>         0.054300 
     38 Cl         -3.954000    0.578000   -0.402000 Cl        1 <1>         0.085200 
@<TRIPOS>BOND
     1    2    1 1    
     2    1    3 ar   
     3    3    4 ar   
     4    4    5 1    
     5    4    6 ar   
     6    6    7 ar   
     7    7    8 ar   
     8    8    9 1    
     9    8    1 ar   
    10    7   10 1    
    11   10   11 am   
    12   11   12 1    
    13   12   13 1    
    14   12   14 1    
    15   12   15 1    
    16   15   16 1    
    17   16   17 1    
    18   16    6 1    
    19   16   18 1    
    20   18   19 ar   
    21   19   20 ar   
    22   20   21 1    
    23   20   22 ar   
    24   22   23 1    
    25   22   24 ar   
    26   24   25 1    
    27   24   26 ar   
    28   26   27 1    
    29   26   18 ar   
    30   19   28 1    
    31   15   29 1    
    32   29   30 1    
    33   29   31 1    
    34   29   32 1    
    35   11   33 2    
    36   10   34 1    
    37   34   35 1    
    38   34   36 1    
    39   34   37 1    
    40    3   38 1    
@<TRIPOS>SUBSTRUCTURE
     1 ****        2 TEMP              0 ****  ****    0 ROOT 
@<TRIPOS>SET
UNITY_3DHIT     STATIC     ATOMS    <user>   **** Atoms matching 3D or FLEX Search
0
