#	Name:			Ro05-2750
#	Creating user name:	jeff
#	Creation time:		Tue Nov  4 15:19:53 2003

#	Modifying user name:	jeff
#	Modification time:	Tue Nov  4 15:19:53 2003

@<TRIPOS>MOLECULE
Ro05-2750
   30    32     1     0     1
SMALL
USER_CHARGES
****
From 3DB ct
@<TRIPOS>ATOM
      1 C          -2.083000    2.531000   -0.260000 C.ar      1 <1>        -0.529400 
      2 C          -2.381000    1.218000    0.085000 C.ar      1 <1>         0.463800 
      3 H          -3.417000    0.893000    0.141000 H         1 <1>        -0.000100 
      4 C          -1.345000    0.320000    0.353000 C.ar      1 <1>        -0.726600 
      5 C           0.000000    0.733000    0.274000 C.ar      1 <1>         0.625100 
      6 C           0.283000    2.093000    0.036000 C.ar      1 <1>        -0.093000 
      7 C          -0.762000    2.971000   -0.284000 C.ar      1 <1>         0.167000 
      8 H          -0.553000    4.016000   -0.507000 H         1 <1>         0.069000 
      9 N           1.566000    2.669000    0.118000 N.am      1 <1>        -0.568600 
     10 H           1.716000    3.570000   -0.329000 H         1 <1>         0.338400 
     11 C           2.622000    2.226000    0.877000 C.2       1 <1>         0.545700 
     12 C           2.365000    1.046000    1.808000 C.3       1 <1>         0.063600 
     13 H           3.244000    0.920000    2.449000 H         1 <1>         0.060200 
     14 H           1.514000    1.243000    2.469000 H         1 <1>         0.017400 
     15 N           2.193000   -0.164000    1.006000 N.2       1 <1>        -0.332600 
     16 C           1.116000   -0.269000    0.295000 C.2       1 <1>        -0.032300 
     17 C           1.032000   -1.455000   -0.621000 C.ar      1 <1>         0.100800 
     18 C           0.547000   -1.326000   -1.929000 C.ar      1 <1>        -0.112600 
     19 H           0.221000   -0.365000   -2.319000 H         1 <1>         0.099600 
     20 C           0.493000   -2.443000   -2.766000 C.ar      1 <1>        -0.144300 
     21 H           0.114000   -2.343000   -3.782000 H         1 <1>         0.121200 
     22 C           0.931000   -3.685000   -2.306000 C.ar      1 <1>        -0.097000 
     23 H           0.889000   -4.553000   -2.962000 H         1 <1>         0.107000 
     24 C           1.431000   -3.814000   -1.011000 C.ar      1 <1>        -0.060300 
     25 H           1.778000   -4.782000   -0.655000 H         1 <1>         0.098800 
     26 C           1.488000   -2.701000   -0.170000 C.ar      1 <1>        -0.159200 
     27 H           1.880000   -2.813000    0.839000 H         1 <1>         0.135800 
     28 O           3.711000    2.808000    0.837000 O.2       1 <1>        -0.428400 
     29 Cl         -1.812000   -1.276000    0.843000 Cl        1 <1>         0.154100 
     30 Cl         -3.358000    3.631000   -0.618000 Cl        1 <1>         0.117200 
@<TRIPOS>BOND
     1    1    2 ar   
     2    2    3 1    
     3    2    4 ar   
     4    4    5 ar   
     5    5    6 ar   
     6    6    7 ar   
     7    7    8 1    
     8    7    1 ar   
     9    6    9 1    
    10    9   10 1    
    11    9   11 am   
    12   11   12 1    
    13   12   13 1    
    14   12   14 1    
    15   12   15 1    
    16   15   16 2    
    17   16    5 1    
    18   16   17 1    
    19   17   18 ar   
    20   18   19 1    
    21   18   20 ar   
    22   20   21 1    
    23   20   22 ar   
    24   22   23 1    
    25   22   24 ar   
    26   24   25 1    
    27   24   26 ar   
    28   26   27 1    
    29   26   17 ar   
    30   11   28 2    
    31    4   29 1    
    32    1   30 1    
@<TRIPOS>SUBSTRUCTURE
     1 ****        1 TEMP              0 ****  ****    0 ROOT 
@<TRIPOS>SET
UNITY_3DHIT     STATIC     ATOMS    <user>   **** Atoms matching 3D or FLEX Search
0
@<TRIPOS>UNITY_BOND_ATTR
16 1
S I
