#	Name:			Ro05-6820
#	Creating user name:	jeff
#	Creation time:		Tue Nov  4 15:19:49 2003

#	Modifying user name:	jeff
#	Modification time:	Tue Nov  4 15:19:49 2003

@<TRIPOS>MOLECULE
Ro05-6820
   30    32     1     0     1
SMALL
USER_CHARGES
****
From 3DB ct
@<TRIPOS>ATOM
      1 C          -2.102000    2.492000   -0.227000 C.ar      1 <1>        -0.215000 
      2 H          -2.939000    3.161000   -0.403000 H         1 <1>         0.163100 
      3 C          -2.321000    1.132000   -0.071000 C.ar      1 <1>         0.379900 
      4 C          -1.262000    0.256000    0.136000 C.ar      1 <1>        -0.284200 
      5 H          -1.480000   -0.804000    0.225000 H         1 <1>         0.184800 
      6 C           0.053000    0.747000    0.202000 C.ar      1 <1>        -0.097800 
      7 C           0.280000    2.134000    0.113000 C.ar      1 <1>         0.218100 
      8 C          -0.802000    2.991000   -0.142000 C.ar      1 <1>        -0.164400 
      9 H          -0.648000    4.064000   -0.244000 H         1 <1>         0.137800 
     10 N           1.536000    2.753000    0.244000 N.am      1 <1>        -0.562600 
     11 H           1.643000    3.693000   -0.127000 H         1 <1>         0.321500 
     12 C           2.628000    2.276000    0.920000 C.2       1 <1>         0.491400 
     13 C           2.426000    1.034000    1.773000 C.3       1 <1>         0.061600 
     14 H           3.322000    0.895000    2.389000 H         1 <1>         0.066200 
     15 H           1.587000    1.168000    2.465000 H         1 <1>         0.033500 
     16 N           2.264000   -0.140000    0.918000 N.2       1 <1>        -0.429800 
     17 C           1.173000   -0.249000    0.233000 C.2       1 <1>         0.472600 
     18 C           1.044000   -1.458000   -0.629000 C.ar      1 <1>        -0.306100 
     19 C           1.465000   -2.707000   -0.155000 C.ar      1 <1>        -0.032400 
     20 H           1.887000   -2.815000    0.842000 H         1 <1>         0.125600 
     21 C           1.331000   -3.837000   -0.967000 C.ar      1 <1>        -0.119500 
     22 H           1.658000   -4.809000   -0.601000 H         1 <1>         0.108500 
     23 C           0.776000   -3.723000   -2.243000 C.ar      1 <1>        -0.035400 
     24 H           0.673000   -4.605000   -2.872000 H         1 <1>         0.110200 
     25 C           0.350000   -2.479000   -2.712000 C.ar      1 <1>        -0.264600 
     26 H          -0.080000   -2.384000   -3.705000 H         1 <1>         0.153800 
     27 C           0.483000   -1.353000   -1.903000 C.ar      1 <1>         0.418900 
     28 F           0.089000   -0.166000   -2.388000 F         1 <1>        -0.262000 
     29 O           3.704000    2.883000    0.884000 O.2       1 <1>        -0.413800 
     30 F          -3.569000    0.652000   -0.142000 F         1 <1>        -0.259800 
@<TRIPOS>BOND
     1    2    1 1    
     2    1    3 ar   
     3    3    4 ar   
     4    4    5 1    
     5    4    6 ar   
     6    6    7 ar   
     7    7    8 ar   
     8    8    9 1    
     9    8    1 ar   
    10    7   10 1    
    11   10   11 1    
    12   10   12 am   
    13   12   13 1    
    14   13   14 1    
    15   13   15 1    
    16   13   16 1    
    17   16   17 2    
    18   17    6 1    
    19   17   18 1    
    20   18   19 ar   
    21   19   20 1    
    22   19   21 ar   
    23   21   22 1    
    24   21   23 ar   
    25   23   24 1    
    26   23   25 ar   
    27   25   26 1    
    28   25   27 ar   
    29   27   18 ar   
    30   27   28 1    
    31   12   29 2    
    32    3   30 1    
@<TRIPOS>SUBSTRUCTURE
     1 ****        2 TEMP              0 ****  ****    0 ROOT 
@<TRIPOS>SET
UNITY_3DHIT     STATIC     ATOMS    <user>   **** Atoms matching 3D or FLEX Search
0
@<TRIPOS>UNITY_BOND_ATTR
17 1
S I
