#	Name:			Ro05-4865
#	Creating user name:	jeff
#	Creation time:		Tue Nov  4 15:19:49 2003

#	Modifying user name:	jeff
#	Modification time:	Tue Nov  4 15:19:49 2003

@<TRIPOS>MOLECULE
Ro05-4865
   33    35     1     0     1
SMALL
USER_CHARGES
****
From 3DB ct
@<TRIPOS>ATOM
      1 C          -2.135000    2.507000   -0.149000 C.ar      1 <1>        -0.267700 
      2 H          -2.980000    3.177000   -0.281000 H         1 <1>         0.168100 
      3 C          -2.348000    1.153000    0.036000 C.ar      1 <1>         0.404000 
      4 C          -1.280000    0.284000    0.200000 C.ar      1 <1>        -0.343500 
      5 H          -1.488000   -0.775000    0.331000 H         1 <1>         0.193700 
      6 C           0.037000    0.776000    0.180000 C.ar      1 <1>         0.098900 
      7 C           0.282000    2.162000    0.048000 C.ar      1 <1>        -0.042800 
      8 C          -0.829000    3.007000   -0.145000 C.ar      1 <1>        -0.044700 
      9 H          -0.711000    4.083000   -0.256000 H         1 <1>         0.116000 
     10 N           1.593000    2.741000    0.101000 N.am      1 <1>        -0.214800 
     11 C           2.635000    2.236000    0.884000 C.2       1 <1>         0.412000 
     12 C           2.299000    1.070000    1.806000 C.3       1 <1>         0.073300 
     13 H           3.130000    0.940000    2.508000 H         1 <1>         0.062600 
     14 H           1.409000    1.275000    2.412000 H         1 <1>         0.026500 
     15 N           2.181000   -0.142000    0.996000 N.2       1 <1>        -0.395000 
     16 C           1.137000   -0.237000    0.235000 C.2       1 <1>         0.270000 
     17 C           1.040000   -1.447000   -0.643000 C.ar      1 <1>        -0.039300 
     18 C           0.542000   -1.353000   -1.949000 C.ar      1 <1>        -0.119700 
     19 H           0.218000   -0.401000   -2.362000 H         1 <1>         0.103700 
     20 C           0.472000   -2.494000   -2.752000 C.ar      1 <1>        -0.079900 
     21 H           0.083000   -2.421000   -3.767000 H         1 <1>         0.099400 
     22 C           0.905000   -3.725000   -2.260000 C.ar      1 <1>        -0.106100 
     23 H           0.850000   -4.612000   -2.889000 H         1 <1>         0.103500 
     24 C           1.415000   -3.819000   -0.965000 C.ar      1 <1>        -0.063100 
     25 H           1.758000   -4.779000   -0.584000 H         1 <1>         0.096200 
     26 C           1.488000   -2.682000   -0.158000 C.ar      1 <1>        -0.121200 
     27 H           1.889000   -2.768000    0.850000 H         1 <1>         0.125900 
     28 O           3.773000    2.723000    0.882000 O.2       1 <1>        -0.387200 
     29 C           1.839000    3.980000   -0.634000 C.3       1 <1>        -0.092100 
     30 H           2.907000    4.122000   -0.822000 H         1 <1>         0.095500 
     31 H           1.485000    4.825000   -0.036000 H         1 <1>         0.051900 
     32 H           1.332000    3.954000   -1.604000 H         1 <1>         0.074400 
     33 F          -3.599000    0.674000    0.047000 F         1 <1>        -0.258500 
@<TRIPOS>BOND
     1    2    1 1    
     2    1    3 ar   
     3    3    4 ar   
     4    4    5 1    
     5    4    6 ar   
     6    6    7 ar   
     7    7    8 ar   
     8    8    9 1    
     9    8    1 ar   
    10    7   10 1    
    11   10   11 am   
    12   11   12 1    
    13   12   13 1    
    14   12   14 1    
    15   12   15 1    
    16   15   16 2    
    17   16    6 1    
    18   16   17 1    
    19   17   18 ar   
    20   18   19 1    
    21   18   20 ar   
    22   20   21 1    
    23   20   22 ar   
    24   22   23 1    
    25   22   24 ar   
    26   24   25 1    
    27   24   26 ar   
    28   26   27 1    
    29   26   17 ar   
    30   11   28 2    
    31   10   29 1    
    32   29   30 1    
    33   29   31 1    
    34   29   32 1    
    35    3   33 1    
@<TRIPOS>SUBSTRUCTURE
     1 ****        2 TEMP              0 ****  ****    0 ROOT 
@<TRIPOS>SET
UNITY_3DHIT     STATIC     ATOMS    <user>   **** Atoms matching 3D or FLEX Search
0
@<TRIPOS>UNITY_BOND_ATTR
16 1
S I
