#	Name:			Ro05-2904
#	Creating user name:	jeff
#	Creation time:		Tue Nov  4 15:19:50 2003

#	Modifying user name:	jeff
#	Modification time:	Tue Nov  4 15:19:50 2003

@<TRIPOS>MOLECULE
Ro05-2904
   33    35     1     0     1
SMALL
USER_CHARGES
****
From 3DB ct
@<TRIPOS>ATOM
      1 C          -2.101000    2.508000   -0.218000 C.ar      1 <1>         0.065300 
      2 H          -2.918000    3.205000   -0.402000 H         1 <1>         0.115100 
      3 C          -2.361000    1.146000   -0.033000 C.ar      1 <1>        -0.376800 
      4 C          -1.276000    0.278000    0.166000 C.ar      1 <1>        -0.035100 
      5 H          -1.472000   -0.789000    0.274000 H         1 <1>         0.142100 
      6 C           0.048000    0.759000    0.205000 C.ar      1 <1>        -0.055500 
      7 C           0.285000    2.139000    0.103000 C.ar      1 <1>         0.299700 
      8 C          -0.793000    2.998000   -0.152000 C.ar      1 <1>        -0.270900 
      9 H          -0.633000    4.069000   -0.270000 H         1 <1>         0.143300 
     10 N           1.545000    2.749000    0.230000 N.am      1 <1>        -0.586300 
     11 H           1.660000    3.686000   -0.147000 H         1 <1>         0.331000 
     12 C           2.629000    2.268000    0.918000 C.2       1 <1>         0.498900 
     13 C           2.410000    1.033000    1.779000 C.3       1 <1>         0.075000 
     14 H           3.301000    0.891000    2.401000 H         1 <1>         0.061100 
     15 H           1.567000    1.177000    2.464000 H         1 <1>         0.029300 
     16 N           2.245000   -0.145000    0.929000 N.2       1 <1>        -0.395900 
     17 C           1.163000   -0.244000    0.228000 C.2       1 <1>         0.265200 
     18 C           1.040000   -1.457000   -0.645000 C.ar      1 <1>        -0.027500 
     19 C           0.528000   -1.361000   -1.946000 C.ar      1 <1>        -0.101900 
     20 H           0.214000   -0.405000   -2.357000 H         1 <1>         0.095900 
     21 C           0.431000   -2.505000   -2.742000 C.ar      1 <1>        -0.099800 
     22 H           0.031000   -2.431000   -3.752000 H         1 <1>         0.106800 
     23 C           0.852000   -3.740000   -2.247000 C.ar      1 <1>        -0.093200 
     24 H           0.775000   -4.629000   -2.871000 H         1 <1>         0.103100 
     25 C           1.377000   -3.835000   -0.959000 C.ar      1 <1>        -0.063400 
     26 H           1.710000   -4.799000   -0.577000 H         1 <1>         0.097200 
     27 C           1.476000   -2.696000   -0.158000 C.ar      1 <1>        -0.133400 
     28 H           1.888000   -2.781000    0.846000 H         1 <1>         0.130900 
     29 O           3.710000    2.865000    0.885000 O.2       1 <1>        -0.406400 
     30 C          -3.768000    0.606000   -0.106000 C.3       1 <1>         1.063100 
     31 F          -4.007000   -0.398000    0.791000 F         1 <1>        -0.324500 
     32 F          -4.067000    0.081000   -1.332000 F         1 <1>        -0.326000 
     33 F          -4.733000    1.544000    0.137000 F         1 <1>        -0.326500 
@<TRIPOS>BOND
     1    2    1 1    
     2    1    3 ar   
     3    3    4 ar   
     4    4    5 1    
     5    4    6 ar   
     6    6    7 ar   
     7    7    8 ar   
     8    8    9 1    
     9    8    1 ar   
    10    7   10 1    
    11   10   11 1    
    12   10   12 am   
    13   12   13 1    
    14   13   14 1    
    15   13   15 1    
    16   13   16 1    
    17   16   17 2    
    18   17    6 1    
    19   17   18 1    
    20   18   19 ar   
    21   19   20 1    
    22   19   21 ar   
    23   21   22 1    
    24   21   23 ar   
    25   23   24 1    
    26   23   25 ar   
    27   25   26 1    
    28   25   27 ar   
    29   27   28 1    
    30   27   18 ar   
    31   12   29 2    
    32    3   30 1    
    33   30   31 1    
    34   30   32 1    
    35   30   33 1    
@<TRIPOS>SUBSTRUCTURE
     1 ****        2 TEMP              0 ****  ****    0 ROOT 
@<TRIPOS>SET
UNITY_3DHIT     STATIC     ATOMS    <user>   **** Atoms matching 3D or FLEX Search
0
@<TRIPOS>UNITY_BOND_ATTR
17 1
S I
