#	Name:			Ro05-2181
#	Creating user name:	jeff
#	Creation time:		Tue Nov  4 15:19:55 2003

#	Modifying user name:	jeff
#	Modification time:	Tue Nov  4 15:19:55 2003

@<TRIPOS>MOLECULE
Ro05-2181
   32    34     1     0     1
SMALL
USER_CHARGES
****
From 3DB ct
@<TRIPOS>ATOM
      1 C          -2.071000    2.509000   -0.364000 C.ar      1 <1>         0.255500 
      2 H          -2.864000    3.210000   -0.611000 H         1 <1>         0.053700 
      3 C          -2.349000    1.165000   -0.204000 C.ar      1 <1>        -0.510300 
      4 C          -1.313000    0.283000    0.100000 C.ar      1 <1>         0.206300 
      5 H          -1.568000   -0.772000    0.198000 H         1 <1>         0.041700 
      6 C           0.037000    0.707000    0.250000 C.ar      1 <1>        -0.153400 
      7 C           0.289000    2.086000    0.160000 C.ar      1 <1>         0.427600 
      8 C          -0.766000    2.961000   -0.182000 C.ar      1 <1>        -0.417200 
      9 H          -0.584000    4.029000   -0.285000 H         1 <1>         0.158800 
     10 N           1.504000    2.749000    0.399000 N.am      1 <1>        -0.569200 
     11 H           1.541000    3.737000    0.185000 H         1 <1>         0.312900 
     12 C           2.656000    2.347000    0.999000 C.2       1 <1>         0.522600 
     13 C           2.801000    0.935000    1.514000 C.3       1 <1>         0.066000 
     14 H           3.857000    0.800000    1.777000 H         1 <1>         0.053100 
     15 H           2.223000    0.803000    2.435000 H         1 <1>         0.034800 
     16 N           2.473000   -0.016000    0.462000 N.3       1 <1>        -0.486900 
     17 H           3.027000   -0.861000    0.598000 H         1 <1>         0.250500 
     18 C           1.062000   -0.401000    0.501000 C.3       1 <1>        -0.034200 
     19 H           0.844000   -0.781000    1.510000 H         1 <1>         0.066800 
     20 C           0.912000   -1.584000   -0.469000 C.ar      1 <1>         0.125400 
     21 C           0.395000   -1.394000   -1.763000 C.ar      1 <1>        -0.182300 
     22 H           0.086000   -0.400000   -2.083000 H         1 <1>         0.145400 
     23 C           0.283000   -2.466000   -2.650000 C.ar      1 <1>        -0.092600 
     24 H          -0.116000   -2.304000   -3.647000 H         1 <1>         0.107600 
     25 C           0.691000   -3.739000   -2.257000 C.ar      1 <1>        -0.094000 
     26 H           0.609000   -4.572000   -2.951000 H         1 <1>         0.105500 
     27 C           1.211000   -3.943000   -0.980000 C.ar      1 <1>        -0.125100 
     28 H           1.532000   -4.937000   -0.678000 H         1 <1>         0.110500 
     29 C           1.325000   -2.873000   -0.091000 C.ar      1 <1>        -0.117000 
     30 H           1.738000   -3.052000    0.899000 H         1 <1>         0.096400 
     31 O           3.548000    3.184000    1.173000 O.2       1 <1>        -0.447600 
     32 Cl         -3.954000    0.578000   -0.402000 Cl        1 <1>         0.088900 
@<TRIPOS>BOND
     1    2    1 1    
     2    1    3 ar   
     3    3    4 ar   
     4    4    5 1    
     5    4    6 ar   
     6    6    7 ar   
     7    7    8 ar   
     8    8    9 1    
     9    8    1 ar   
    10    7   10 1    
    11   10   11 1    
    12   10   12 am   
    13   12   13 1    
    14   13   14 1    
    15   13   15 1    
    16   13   16 1    
    17   16   17 1    
    18   16   18 1    
    19   18   19 1    
    20   18    6 1    
    21   18   20 1    
    22   20   21 ar   
    23   21   22 1    
    24   21   23 ar   
    25   23   24 1    
    26   23   25 ar   
    27   25   26 1    
    28   25   27 ar   
    29   27   28 1    
    30   27   29 ar   
    31   29   30 1    
    32   29   20 ar   
    33   12   31 2    
    34    3   32 1    
@<TRIPOS>SUBSTRUCTURE
     1 ****        2 TEMP              0 ****  ****    0 ROOT 
@<TRIPOS>SET
UNITY_3DHIT     STATIC     ATOMS    <user>   **** Atoms matching 3D or FLEX Search
0
