#	Name:			Ro05-3308
#	Creating user name:	jeff
#	Creation time:		Tue Nov  4 15:19:51 2003

#	Modifying user name:	jeff
#	Modification time:	Tue Nov  4 15:19:51 2003

@<TRIPOS>MOLECULE
Ro05-3308
   37    39     1     0     1
SMALL
USER_CHARGES
****
From 3DB ct
@<TRIPOS>ATOM
      1 C          -2.090000    2.512000   -0.194000 C.ar      1 <1>        -0.270700 
      2 H          -2.898000    3.221000   -0.355000 H         1 <1>         0.148500 
      3 C          -2.352000    1.151000   -0.022000 C.ar      1 <1>         0.377600 
      4 C          -1.278000    0.280000    0.169000 C.ar      1 <1>        -0.307200 
      5 H          -1.445000   -0.787000    0.285000 H         1 <1>         0.210900 
      6 C           0.048000    0.758000    0.195000 C.ar      1 <1>        -0.015300 
      7 C           0.294000    2.134000    0.093000 C.ar      1 <1>         0.145900 
      8 C          -0.780000    2.998000   -0.143000 C.ar      1 <1>        -0.131800 
      9 H          -0.616000    4.069000   -0.252000 H         1 <1>         0.126600 
     10 N           1.559000    2.730000    0.202000 N.am      1 <1>        -0.548900 
     11 H           1.695000    3.675000   -0.135000 H         1 <1>         0.315300 
     12 C           2.630000    2.271000    0.923000 C.2       1 <1>         0.495500 
     13 C           2.440000    1.019000    1.761000 C.3       1 <1>         0.068800 
     14 H           3.352000    0.866000    2.349000 H         1 <1>         0.058800 
     15 H           1.623000    1.156000    2.478000 H         1 <1>         0.031600 
     16 N           2.240000   -0.144000    0.907000 N.2       1 <1>        -0.411800 
     17 C           1.159000   -0.245000    0.211000 C.2       1 <1>         0.342800 
     18 C           1.034000   -1.460000   -0.657000 C.ar      1 <1>        -0.087300 
     19 C           0.535000   -1.371000   -1.962000 C.ar      1 <1>        -0.070500 
     20 H           0.233000   -0.417000   -2.382000 H         1 <1>         0.092100 
     21 C           0.438000   -2.521000   -2.749000 C.ar      1 <1>        -0.110800 
     22 H           0.051000   -2.455000   -3.762000 H         1 <1>         0.102200 
     23 C           0.845000   -3.754000   -2.239000 C.ar      1 <1>        -0.085900 
     24 H           0.766000   -4.648000   -2.852000 H         1 <1>         0.098500 
     25 C           1.360000   -3.842000   -0.946000 C.ar      1 <1>        -0.076100 
     26 H           1.687000   -4.801000   -0.553000 H         1 <1>         0.096600 
     27 C           1.461000   -2.696000   -0.157000 C.ar      1 <1>        -0.104000 
     28 H           1.869000   -2.767000    0.849000 H         1 <1>         0.122500 
     29 O           3.665000    2.939000    0.949000 O.2       1 <1>        -0.423500 
     30 N          -3.702000    0.745000   -0.073000 N.am      1 <1>        -0.710800 
     31 H          -4.383000    1.479000   -0.227000 H         1 <1>         0.338200 
     32 C          -4.202000   -0.538000    0.066000 C.2       1 <1>         0.688700 
     33 O          -3.558000   -1.562000    0.254000 O.2       1 <1>        -0.450200 
     34 C          -5.704000   -0.577000   -0.065000 C.3       1 <1>        -0.349100 
     35 H          -5.983000   -0.424000   -1.111000 H         1 <1>         0.097600 
     36 H          -6.162000    0.195000    0.559000 H         1 <1>         0.092700 
     37 H          -6.074000   -1.552000    0.266000 H         1 <1>         0.102700 
@<TRIPOS>BOND
     1    2    1 1    
     2    1    3 ar   
     3    3    4 ar   
     4    4    5 1    
     5    4    6 ar   
     6    6    7 ar   
     7    7    8 ar   
     8    8    9 1    
     9    8    1 ar   
    10    7   10 1    
    11   10   11 1    
    12   10   12 am   
    13   12   13 1    
    14   13   14 1    
    15   13   15 1    
    16   13   16 1    
    17   16   17 2    
    18   17    6 1    
    19   17   18 1    
    20   18   19 ar   
    21   19   20 1    
    22   19   21 ar   
    23   21   22 1    
    24   21   23 ar   
    25   23   24 1    
    26   23   25 ar   
    27   25   26 1    
    28   25   27 ar   
    29   27   28 1    
    30   27   18 ar   
    31   12   29 2    
    32    3   30 1    
    33   30   31 1    
    34   30   32 am   
    35   32   33 2    
    36   32   34 1    
    37   34   35 1    
    38   34   36 1    
    39   34   37 1    
@<TRIPOS>SUBSTRUCTURE
     1 ****        2 TEMP              0 ****  ****    0 ROOT 
@<TRIPOS>SET
UNITY_3DHIT     STATIC     ATOMS    <user>   **** Atoms matching 3D or FLEX Search
0
@<TRIPOS>UNITY_BOND_ATTR
17 1
S I
