#	Name:			Ro05-4435
#	Creating user name:	jeff
#	Creation time:		Tue Nov  4 15:19:51 2003

#	Modifying user name:	jeff
#	Modification time:	Tue Nov  4 15:19:51 2003

@<TRIPOS>MOLECULE
Ro05-4435
   32    34     1     0     1
SMALL
USER_CHARGES
****
From 3DB ct
@<TRIPOS>ATOM
      1 C          -2.103000    2.502000   -0.229000 C.ar      1 <1>        -0.104600 
      2 H          -2.918000    3.200000   -0.409000 H         1 <1>         0.170500 
      3 C          -2.337000    1.135000   -0.063000 C.ar      1 <1>         0.052900 
      4 C          -1.268000    0.255000    0.147000 C.ar      1 <1>        -0.174500 
      5 H          -1.455000   -0.812000    0.251000 H         1 <1>         0.185900 
      6 C           0.051000    0.747000    0.206000 C.ar      1 <1>        -0.080600 
      7 C           0.282000    2.132000    0.108000 C.ar      1 <1>         0.267400 
      8 C          -0.797000    2.991000   -0.150000 C.ar      1 <1>        -0.197800 
      9 H          -0.637000    4.064000   -0.258000 H         1 <1>         0.140200 
     10 N           1.539000    2.748000    0.236000 N.am      1 <1>        -0.572100 
     11 H           1.648000    3.686000   -0.139000 H         1 <1>         0.328600 
     12 C           2.630000    2.274000    0.918000 C.2       1 <1>         0.500600 
     13 C           2.425000    1.036000    1.776000 C.3       1 <1>         0.048500 
     14 H           3.319000    0.897000    2.392000 H         1 <1>         0.071700 
     15 H           1.584000    1.173000    2.466000 H         1 <1>         0.035500 
     16 N           2.261000   -0.140000    0.923000 N.2       1 <1>        -0.417500 
     17 C           1.171000   -0.250000    0.237000 C.2       1 <1>         0.437300 
     18 C           1.045000   -1.459000   -0.628000 C.ar      1 <1>        -0.297300 
     19 C           1.467000   -2.708000   -0.156000 C.ar      1 <1>        -0.022800 
     20 H           1.888000   -2.817000    0.842000 H         1 <1>         0.123800 
     21 C           1.336000   -3.837000   -0.968000 C.ar      1 <1>        -0.126000 
     22 H           1.663000   -4.809000   -0.604000 H         1 <1>         0.112500 
     23 C           0.781000   -3.722000   -2.244000 C.ar      1 <1>        -0.030800 
     24 H           0.680000   -4.604000   -2.875000 H         1 <1>         0.111700 
     25 C           0.354000   -2.479000   -2.712000 C.ar      1 <1>        -0.253800 
     26 H          -0.077000   -2.383000   -3.705000 H         1 <1>         0.154500 
     27 C           0.484000   -1.353000   -1.902000 C.ar      1 <1>         0.403300 
     28 F           0.089000   -0.166000   -2.386000 F         1 <1>        -0.263400 
     29 O           3.706000    2.880000    0.882000 O.2       1 <1>        -0.403100 
     30 N          -3.710000    0.615000   -0.130000 N.2       1 <1>         0.539400 
     31 O          -3.888000   -0.606000    0.037000 O.2       1 <1>        -0.370200 
     32 O          -4.636000    1.419000   -0.350000 O.3       1 <1>        -0.369900 
@<TRIPOS>BOND
     1    2    1 1    
     2    1    3 ar   
     3    3    4 ar   
     4    4    5 1    
     5    4    6 ar   
     6    6    7 ar   
     7    7    8 ar   
     8    8    9 1    
     9    8    1 ar   
    10    7   10 1    
    11   10   11 1    
    12   10   12 am   
    13   12   13 1    
    14   13   14 1    
    15   13   15 1    
    16   13   16 1    
    17   16   17 2    
    18   17    6 1    
    19   17   18 1    
    20   18   19 ar   
    21   19   20 1    
    22   19   21 ar   
    23   21   22 1    
    24   21   23 ar   
    25   23   24 1    
    26   23   25 ar   
    27   25   26 1    
    28   25   27 ar   
    29   27   18 ar   
    30   27   28 1    
    31   12   29 2    
    32    3   30 1    
    33   30   31 2    
    34   30   32 1    
@<TRIPOS>SUBSTRUCTURE
     1 ****        2 TEMP              0 ****  ****    0 ROOT 
@<TRIPOS>SET
UNITY_3DHIT     STATIC     ATOMS    <user>   **** Atoms matching 3D or FLEX Search
0
@<TRIPOS>UNITY_ATOM_ATTR
30 1
AtomExpr +1
32 1
AtomExpr -1
@<TRIPOS>UNITY_BOND_ATTR
17 1
S I
