#	Name:			Ro05-6822
#	Creating user name:	jeff
#	Creation time:		Tue Nov  4 15:19:49 2003

#	Modifying user name:	jeff
#	Modification time:	Tue Nov  4 15:19:49 2003

@<TRIPOS>MOLECULE
Ro05-6822
   33    35     1     0     1
SMALL
USER_CHARGES
****
From 3DB ct
@<TRIPOS>ATOM
      1 C          -2.133000    2.485000   -0.171000 C.ar      1 <1>        -0.267200 
      2 H          -2.981000    3.150000   -0.309000 H         1 <1>         0.168000 
      3 C          -2.338000    1.127000    0.000000 C.ar      1 <1>         0.417700 
      4 C          -1.266000    0.265000    0.172000 C.ar      1 <1>        -0.336200 
      5 H          -1.471000   -0.795000    0.293000 H         1 <1>         0.187600 
      6 C           0.048000    0.767000    0.179000 C.ar      1 <1>         0.046600 
      7 C           0.285000    2.155000    0.053000 C.ar      1 <1>         0.000700 
      8 C          -0.831000    2.993000   -0.147000 C.ar      1 <1>        -0.054400 
      9 H          -0.720000    4.071000   -0.251000 H         1 <1>         0.119400 
     10 N           1.592000    2.745000    0.110000 N.am      1 <1>        -0.236600 
     11 C           2.640000    2.246000    0.887000 C.2       1 <1>         0.423200 
     12 C           2.318000    1.073000    1.804000 C.3       1 <1>         0.052100 
     13 H           3.152000    0.946000    2.502000 H         1 <1>         0.069300 
     14 H           1.429000    1.269000    2.414000 H         1 <1>         0.029300 
     15 N           2.205000   -0.136000    0.989000 N.2       1 <1>        -0.404700 
     16 C           1.153000   -0.241000    0.244000 C.2       1 <1>         0.379600 
     17 C           1.047000   -1.447000   -0.625000 C.ar      1 <1>        -0.251700 
     18 C           1.424000   -2.703000   -0.132000 C.ar      1 <1>        -0.034800 
     19 H           1.793000   -2.820000    0.885000 H         1 <1>         0.125800 
     20 C           1.313000   -3.831000   -0.949000 C.ar      1 <1>        -0.125100 
     21 H           1.605000   -4.809000   -0.568000 H         1 <1>         0.111700 
     22 C           0.825000   -3.709000   -2.252000 C.ar      1 <1>        -0.046600 
     23 H           0.740000   -4.591000   -2.886000 H         1 <1>         0.111500 
     24 C           0.444000   -2.460000   -2.741000 C.ar      1 <1>        -0.231600 
     25 H           0.066000   -2.358000   -3.755000 H         1 <1>         0.146300 
     26 C           0.554000   -1.335000   -1.927000 C.ar      1 <1>         0.364600 
     27 F           0.205000   -0.143000   -2.433000 F         1 <1>        -0.248800 
     28 O           3.774000    2.741000    0.882000 O.2       1 <1>        -0.389800 
     29 C           1.827000    3.989000   -0.621000 C.3       1 <1>        -0.077100 
     30 H           2.894000    4.144000   -0.804000 H         1 <1>         0.092200 
     31 H           1.462000    4.829000   -0.021000 H         1 <1>         0.046700 
     32 H           1.324000    3.961000   -1.592000 H         1 <1>         0.074000 
     33 F          -3.586000    0.639000   -0.011000 F         1 <1>        -0.261900 
@<TRIPOS>BOND
     1    2    1 1    
     2    1    3 ar   
     3    3    4 ar   
     4    4    5 1    
     5    4    6 ar   
     6    6    7 ar   
     7    7    8 ar   
     8    8    9 1    
     9    8    1 ar   
    10    7   10 1    
    11   10   11 am   
    12   11   12 1    
    13   12   13 1    
    14   12   14 1    
    15   12   15 1    
    16   15   16 2    
    17   16    6 1    
    18   16   17 1    
    19   17   18 ar   
    20   18   19 1    
    21   18   20 ar   
    22   20   21 1    
    23   20   22 ar   
    24   22   23 1    
    25   22   24 ar   
    26   24   25 1    
    27   24   26 ar   
    28   26   17 ar   
    29   26   27 1    
    30   11   28 2    
    31   10   29 1    
    32   29   30 1    
    33   29   31 1    
    34   29   32 1    
    35    3   33 1    
@<TRIPOS>SUBSTRUCTURE
     1 ****        2 TEMP              0 ****  ****    0 ROOT 
@<TRIPOS>SET
UNITY_3DHIT     STATIC     ATOMS    <user>   **** Atoms matching 3D or FLEX Search
0
@<TRIPOS>UNITY_BOND_ATTR
16 1
S I
