#	Name:			Ro05-4528
#	Creating user name:	jeff
#	Creation time:		Tue Nov  4 15:19:51 2003

#	Modifying user name:	jeff
#	Modification time:	Tue Nov  4 15:19:51 2003

@<TRIPOS>MOLECULE
Ro05-4528
   34    36     1     0     1
SMALL
USER_CHARGES
****
From 3DB ct
@<TRIPOS>ATOM
      1 C          -2.134000    2.505000   -0.152000 C.ar      1 <1>        -0.124300 
      2 H          -2.965000    3.197000   -0.288000 H         1 <1>         0.143500 
      3 C          -2.368000    1.146000    0.036000 C.ar      1 <1>         0.109700 
      4 C          -1.282000    0.284000    0.202000 C.ar      1 <1>        -0.204400 
      5 H          -1.467000   -0.780000    0.339000 H         1 <1>         0.168800 
      6 C           0.039000    0.778000    0.181000 C.ar      1 <1>         0.060300 
      7 C           0.285000    2.161000    0.047000 C.ar      1 <1>         0.034600 
      8 C          -0.826000    3.003000   -0.148000 C.ar      1 <1>        -0.118400 
      9 H          -0.708000    4.080000   -0.261000 H         1 <1>         0.118400 
     10 N           1.596000    2.740000    0.101000 N.am      1 <1>        -0.232700 
     11 C           2.637000    2.237000    0.885000 C.2       1 <1>         0.419700 
     12 C           2.301000    1.071000    1.807000 C.3       1 <1>         0.064200 
     13 H           3.132000    0.940000    2.509000 H         1 <1>         0.064600 
     14 H           1.412000    1.276000    2.413000 H         1 <1>         0.028000 
     15 N           2.183000   -0.142000    0.997000 N.2       1 <1>        -0.385100 
     16 C           1.139000   -0.236000    0.236000 C.2       1 <1>         0.234100 
     17 C           1.042000   -1.446000   -0.643000 C.ar      1 <1>        -0.009200 
     18 C           0.543000   -1.351000   -1.949000 C.ar      1 <1>        -0.135500 
     19 H           0.219000   -0.398000   -2.361000 H         1 <1>         0.106100 
     20 C           0.471000   -2.491000   -2.752000 C.ar      1 <1>        -0.076200 
     21 H           0.082000   -2.418000   -3.766000 H         1 <1>         0.099900 
     22 C           0.903000   -3.723000   -2.260000 C.ar      1 <1>        -0.105900 
     23 H           0.847000   -4.610000   -2.889000 H         1 <1>         0.104000 
     24 C           1.414000   -3.818000   -0.966000 C.ar      1 <1>        -0.062900 
     25 H           1.756000   -4.779000   -0.585000 H         1 <1>         0.097900 
     26 C           1.489000   -2.681000   -0.159000 C.ar      1 <1>        -0.134700 
     27 H           1.889000   -2.767000    0.850000 H         1 <1>         0.130200 
     28 O           3.775000    2.724000    0.883000 O.2       1 <1>        -0.384700 
     29 C           1.842000    3.979000   -0.635000 C.3       1 <1>        -0.088500 
     30 H           2.910000    4.123000   -0.820000 H         1 <1>         0.096200 
     31 H           1.485000    4.824000   -0.038000 H         1 <1>         0.053300 
     32 H           1.337000    3.952000   -1.606000 H         1 <1>         0.074200 
     33 C          -3.709000    0.635000    0.050000 C.1       1 <1>         0.039100 
     34 N          -4.797000    0.220000    0.061000 N.1       1 <1>        -0.184400 
@<TRIPOS>BOND
     1    2    1 1    
     2    1    3 ar   
     3    3    4 ar   
     4    4    5 1    
     5    4    6 ar   
     6    6    7 ar   
     7    7    8 ar   
     8    8    9 1    
     9    8    1 ar   
    10    7   10 1    
    11   10   11 am   
    12   11   12 1    
    13   12   13 1    
    14   12   14 1    
    15   12   15 1    
    16   15   16 2    
    17   16    6 1    
    18   16   17 1    
    19   17   18 ar   
    20   18   19 1    
    21   18   20 ar   
    22   20   21 1    
    23   20   22 ar   
    24   22   23 1    
    25   22   24 ar   
    26   24   25 1    
    27   24   26 ar   
    28   26   27 1    
    29   26   17 ar   
    30   11   28 2    
    31   10   29 1    
    32   29   30 1    
    33   29   31 1    
    34   29   32 1    
    35    3   33 1    
    36   33   34 3    
@<TRIPOS>SUBSTRUCTURE
     1 ****        2 TEMP              0 ****  ****    0 ROOT 
@<TRIPOS>SET
UNITY_3DHIT     STATIC     ATOMS    <user>   **** Atoms matching 3D or FLEX Search
0
@<TRIPOS>UNITY_BOND_ATTR
16 1
S I
