#	Name:			Ro05-4520
#	Creating user name:	jeff
#	Creation time:		Tue Nov  4 15:19:52 2003

#	Modifying user name:	jeff
#	Modification time:	Tue Nov  4 15:19:52 2003

@<TRIPOS>MOLECULE
Ro05-4520
   33    35     1     0     1
SMALL
USER_CHARGES
****
From 3DB ct
@<TRIPOS>ATOM
      1 C          -2.132000    2.483000   -0.172000 C.ar      1 <1>        -0.101100 
      2 H          -2.975000    3.158000   -0.313000 H         1 <1>         0.116000 
      3 C          -2.353000    1.124000    0.000000 C.ar      1 <1>        -0.080700 
      4 H          -3.366000    0.727000   -0.008000 H         1 <1>         0.104700 
      5 C          -1.268000    0.269000    0.173000 C.ar      1 <1>        -0.173600 
      6 H          -1.464000   -0.795000    0.296000 H         1 <1>         0.130000 
      7 C           0.050000    0.769000    0.180000 C.ar      1 <1>         0.050800 
      8 C           0.287000    2.155000    0.053000 C.ar      1 <1>         0.044300 
      9 C          -0.830000    2.990000   -0.149000 C.ar      1 <1>        -0.113900 
     10 H          -0.719000    4.068000   -0.254000 H         1 <1>         0.111200 
     11 N           1.594000    2.745000    0.110000 N.am      1 <1>        -0.263000 
     12 C           2.642000    2.245000    0.887000 C.2       1 <1>         0.441900 
     13 C           2.318000    1.073000    1.804000 C.3       1 <1>         0.050600 
     14 H           3.153000    0.947000    2.503000 H         1 <1>         0.066300 
     15 H           1.430000    1.269000    2.414000 H         1 <1>         0.025400 
     16 N           2.207000   -0.137000    0.989000 N.2       1 <1>        -0.395700 
     17 C           1.153000   -0.240000    0.245000 C.2       1 <1>         0.299400 
     18 C           1.047000   -1.447000   -0.625000 C.ar      1 <1>        -0.171300 
     19 C           1.423000   -2.704000   -0.133000 C.ar      1 <1>        -0.069800 
     20 H           1.795000   -2.820000    0.883000 H         1 <1>         0.133700 
     21 C           1.309000   -3.832000   -0.949000 C.ar      1 <1>        -0.116600 
     22 H           1.601000   -4.809000   -0.568000 H         1 <1>         0.110200 
     23 C           0.819000   -3.709000   -2.251000 C.ar      1 <1>        -0.058700 
     24 H           0.732000   -4.591000   -2.884000 H         1 <1>         0.112400 
     25 C           0.439000   -2.459000   -2.739000 C.ar      1 <1>        -0.227100 
     26 H           0.059000   -2.357000   -3.752000 H         1 <1>         0.145700 
     27 C           0.551000   -1.335000   -1.925000 C.ar      1 <1>         0.335300 
     28 F           0.202000   -0.142000   -2.432000 F         1 <1>        -0.244500 
     29 O           3.776000    2.740000    0.882000 O.2       1 <1>        -0.399800 
     30 C           1.828000    3.990000   -0.620000 C.3       1 <1>        -0.071900 
     31 H           2.895000    4.146000   -0.803000 H         1 <1>         0.090800 
     32 H           1.462000    4.829000   -0.021000 H         1 <1>         0.047100 
     33 H           1.326000    3.961000   -1.592000 H         1 <1>         0.071900 
@<TRIPOS>BOND
     1    2    1 1    
     2    1    3 ar   
     3    3    4 1    
     4    3    5 ar   
     5    5    6 1    
     6    5    7 ar   
     7    7    8 ar   
     8    8    9 ar   
     9    9   10 1    
    10    9    1 ar   
    11    8   11 1    
    12   11   12 am   
    13   12   13 1    
    14   13   14 1    
    15   13   15 1    
    16   13   16 1    
    17   16   17 2    
    18   17    7 1    
    19   17   18 1    
    20   18   19 ar   
    21   19   20 1    
    22   19   21 ar   
    23   21   22 1    
    24   21   23 ar   
    25   23   24 1    
    26   23   25 ar   
    27   25   26 1    
    28   25   27 ar   
    29   27   18 ar   
    30   27   28 1    
    31   12   29 2    
    32   11   30 1    
    33   30   31 1    
    34   30   32 1    
    35   30   33 1    
@<TRIPOS>SUBSTRUCTURE
     1 ****        2 TEMP              0 ****  ****    0 ROOT 
@<TRIPOS>SET
UNITY_3DHIT     STATIC     ATOMS    <user>   **** Atoms matching 3D or FLEX Search
0
@<TRIPOS>UNITY_BOND_ATTR
17 1
S I
