#	Name:			Ro06-9098
#	Creating user name:	jeff
#	Creation time:		Tue Nov  4 15:19:53 2003

#	Modifying user name:	jeff
#	Modification time:	Tue Nov  4 15:19:53 2003

@<TRIPOS>MOLECULE
Ro06-9098
   39    41     1     0     1
SMALL
USER_CHARGES
****
From 3DB ct
@<TRIPOS>ATOM
      1 C          -2.145000    2.511000   -0.138000 C.ar      1 <1>        -0.148800 
      2 H          -2.969000    3.209000   -0.272000 H         1 <1>         0.175100 
      3 C          -2.369000    1.149000    0.057000 C.ar      1 <1>         0.061300 
      4 C          -1.287000    0.280000    0.216000 C.ar      1 <1>        -0.207900 
      5 H          -1.460000   -0.785000    0.359000 H         1 <1>         0.193700 
      6 C           0.032000    0.778000    0.182000 C.ar      1 <1>         0.017100 
      7 C           0.280000    2.162000    0.043000 C.ar      1 <1>         0.156100 
      8 C          -0.834000    3.005000   -0.146000 C.ar      1 <1>        -0.104600 
      9 H          -0.720000    4.080000   -0.270000 H         1 <1>         0.133900 
     10 N           1.598000    2.736000    0.086000 N.am      1 <1>        -0.443300 
     11 C           2.630000    2.233000    0.883000 C.2       1 <1>         0.482900 
     12 C           2.281000    1.077000    1.813000 C.3       1 <1>         0.053200 
     13 H           3.105000    0.951000    2.524000 H         1 <1>         0.064300 
     14 H           1.387000    1.289000    2.410000 H         1 <1>         0.042600 
     15 N           2.171000   -0.140000    1.008000 N.2       1 <1>        -0.396700 
     16 C           1.133000   -0.235000    0.240000 C.2       1 <1>         0.285300 
     17 C           1.042000   -1.442000   -0.643000 C.ar      1 <1>        -0.040400 
     18 C           0.547000   -1.345000   -1.950000 C.ar      1 <1>        -0.122600 
     19 H           0.222000   -0.392000   -2.360000 H         1 <1>         0.098600 
     20 C           0.482000   -2.483000   -2.757000 C.ar      1 <1>        -0.076200 
     21 H           0.096000   -2.408000   -3.772000 H         1 <1>         0.101200 
     22 C           0.917000   -3.715000   -2.267000 C.ar      1 <1>        -0.101700 
     23 H           0.866000   -4.600000   -2.899000 H         1 <1>         0.104400 
     24 C           1.425000   -3.812000   -0.972000 C.ar      1 <1>        -0.061100 
     25 H           1.769000   -4.773000   -0.593000 H         1 <1>         0.098300 
     26 C           1.492000   -2.678000   -0.161000 C.ar      1 <1>        -0.126000 
     27 H           1.891000   -2.766000    0.849000 H         1 <1>         0.130100 
     28 O           3.774000    2.705000    0.884000 O.2       1 <1>        -0.376100 
     29 C           1.877000    3.954000   -0.668000 C.3       1 <1>         0.227200 
     30 H           1.104000    4.143000   -1.421000 H         1 <1>         0.047700 
     31 H           2.833000    3.845000   -1.193000 H         1 <1>         0.076400 
     32 O           1.903000    5.059000    0.241000 O.3       1 <1>        -0.299600 
     33 C           2.247000    6.264000   -0.438000 C.3       1 <1>         0.007000 
     34 H           2.252000    7.078000    0.291000 H         1 <1>         0.069100 
     35 H           1.509000    6.492000   -1.213000 H         1 <1>         0.029300 
     36 H           3.246000    6.182000   -0.878000 H         1 <1>         0.046200 
     37 N          -3.741000    0.628000    0.083000 N.2       1 <1>         0.541300 
     38 O          -3.906000   -0.590000    0.288000 O.2       1 <1>        -0.368400 
     39 O          -4.681000    1.425000   -0.099000 O.3       1 <1>        -0.369100 
@<TRIPOS>BOND
     1    2    1 1    
     2    1    3 ar   
     3    3    4 ar   
     4    4    5 1    
     5    4    6 ar   
     6    6    7 ar   
     7    7    8 ar   
     8    8    9 1    
     9    8    1 ar   
    10    7   10 1    
    11   10   11 am   
    12   11   12 1    
    13   12   13 1    
    14   12   14 1    
    15   12   15 1    
    16   15   16 2    
    17   16    6 1    
    18   16   17 1    
    19   17   18 ar   
    20   18   19 1    
    21   18   20 ar   
    22   20   21 1    
    23   20   22 ar   
    24   22   23 1    
    25   22   24 ar   
    26   24   25 1    
    27   24   26 ar   
    28   26   27 1    
    29   26   17 ar   
    30   11   28 2    
    31   10   29 1    
    32   29   30 1    
    33   29   31 1    
    34   29   32 1    
    35   32   33 1    
    36   33   34 1    
    37   33   35 1    
    38   33   36 1    
    39    3   37 1    
    40   37   38 2    
    41   37   39 1    
@<TRIPOS>SUBSTRUCTURE
     1 ****        2 TEMP              0 ****  ****    0 ROOT 
@<TRIPOS>SET
UNITY_3DHIT     STATIC     ATOMS    <user>   **** Atoms matching 3D or FLEX Search
0
@<TRIPOS>UNITY_ATOM_ATTR
37 1
AtomExpr +1
39 1
AtomExpr -1
@<TRIPOS>UNITY_BOND_ATTR
16 1
S I
