#	Name:			Ro06-7263
#	Creating user name:	jeff
#	Creation time:		Tue Nov  4 15:19:54 2003

#	Modifying user name:	jeff
#	Modification time:	Tue Nov  4 15:19:55 2003

@<TRIPOS>MOLECULE
Ro06-7263
   33    35     1     0     1
SMALL
USER_CHARGES
****
From 3DB ct
@<TRIPOS>ATOM
      1 C          -2.142000    2.506000   -0.147000 C.ar      1 <1>         0.293000 
      2 H          -2.975000    3.191000   -0.281000 H         1 <1>         0.055600 
      3 C          -2.362000    1.147000    0.026000 C.ar      1 <1>        -0.544500 
      4 C          -1.286000    0.283000    0.191000 C.ar      1 <1>         0.262400 
      5 H          -1.476000   -0.781000    0.317000 H         1 <1>         0.052900 
      6 C           0.032000    0.779000    0.182000 C.ar      1 <1>        -0.359300 
      7 C           0.279000    2.162000    0.062000 C.ar      1 <1>         0.630400 
      8 C          -0.835000    3.006000   -0.131000 C.ar      1 <1>        -0.430500 
      9 H          -0.718000    4.084000   -0.228000 H         1 <1>         0.163500 
     10 N           1.586000    2.736000    0.130000 N.am      1 <1>        -0.880700 
     11 C           2.655000    2.234000    0.880000 C.2       1 <1>         0.708700 
     12 C           2.310000    1.069000    1.819000 C.3       1 <1>         0.322500 
     13 H           1.400000    1.292000    2.390000 H         1 <1>        -0.014900 
     14 N           2.175000   -0.137000    0.996000 N.2       1 <1>        -0.521600 
     15 C           1.132000   -0.233000    0.237000 C.2       1 <1>         0.392700 
     16 C           1.039000   -1.443000   -0.642000 C.ar      1 <1>         0.007100 
     17 C           1.489000   -2.677000   -0.155000 C.ar      1 <1>        -0.140300 
     18 H           1.888000   -2.761000    0.854000 H         1 <1>         0.133200 
     19 C           1.419000   -3.815000   -0.961000 C.ar      1 <1>        -0.069400 
     20 H           1.763000   -4.774000   -0.579000 H         1 <1>         0.098400 
     21 C           0.910000   -3.722000   -2.256000 C.ar      1 <1>        -0.094100 
     22 H           0.857000   -4.610000   -2.885000 H         1 <1>         0.103000 
     23 C           0.475000   -2.492000   -2.751000 C.ar      1 <1>        -0.096700 
     24 H           0.088000   -2.421000   -3.765000 H         1 <1>         0.106800 
     25 C           0.542000   -1.351000   -1.948000 C.ar      1 <1>        -0.133000 
     26 H           0.216000   -0.400000   -2.362000 H         1 <1>         0.105400 
     27 C           3.429000    0.811000    2.824000 C.3       1 <1>        -0.293500 
     28 H           3.608000    1.696000    3.444000 H         1 <1>         0.052800 
     29 H           4.369000    0.555000    2.322000 H         1 <1>         0.096900 
     30 H           3.170000   -0.024000    3.484000 H         1 <1>         0.096100 
     31 O           3.798000    2.710000    0.835000 O.2       1 <1>        -0.428600 
     32 Cl          1.902000    4.194000   -0.727000 Cl        1 <1>         0.222600 
     33 Cl         -3.968000    0.531000    0.024000 Cl        1 <1>         0.103200 
@<TRIPOS>BOND
     1    2    1 1    
     2    1    3 ar   
     3    3    4 ar   
     4    4    5 1    
     5    4    6 ar   
     6    6    7 ar   
     7    7    8 ar   
     8    8    9 1    
     9    8    1 ar   
    10    7   10 1    
    11   10   11 am   
    12   11   12 1    
    13   12   13 1    
    14   12   14 1    
    15   14   15 2    
    16   15    6 1    
    17   15   16 1    
    18   16   17 ar   
    19   17   18 1    
    20   17   19 ar   
    21   19   20 1    
    22   19   21 ar   
    23   21   22 1    
    24   21   23 ar   
    25   23   24 1    
    26   23   25 ar   
    27   25   26 1    
    28   25   16 ar   
    29   12   27 1    
    30   27   28 1    
    31   27   29 1    
    32   27   30 1    
    33   11   31 2    
    34   10   32 1    
    35    3   33 1    
@<TRIPOS>SUBSTRUCTURE
     1 ****        2 TEMP              0 ****  ****    0 ROOT 
@<TRIPOS>SET
UNITY_3DHIT     STATIC     ATOMS    <user>   **** Atoms matching 3D or FLEX Search
0
@<TRIPOS>UNITY_BOND_ATTR
15 1
S I
