#	Name:			Ro07-5096
#	Creating user name:	jeff
#	Creation time:		Tue Nov  4 15:19:54 2003

#	Modifying user name:	jeff
#	Modification time:	Tue Nov  4 15:19:54 2003

@<TRIPOS>MOLECULE
Ro07-5096
   36    38     1     0     1
SMALL
USER_CHARGES
****
From 3DB ct
@<TRIPOS>ATOM
      1 C          -2.139000    2.481000   -0.161000 C.ar      1 <1>         0.192500 
      2 H          -2.979000    3.159000   -0.300000 H         1 <1>         0.063700 
      3 C          -2.351000    1.122000    0.013000 C.ar      1 <1>        -0.447500 
      4 C          -1.269000    0.267000    0.185000 C.ar      1 <1>         0.132200 
      5 H          -1.453000   -0.798000    0.312000 H         1 <1>         0.064100 
      6 C           0.046000    0.773000    0.187000 C.ar      1 <1>        -0.031300 
      7 C           0.282000    2.161000    0.059000 C.ar      1 <1>         0.153800 
      8 C          -0.837000    2.993000   -0.140000 C.ar      1 <1>        -0.242000 
      9 H          -0.738000    4.071000   -0.241000 H         1 <1>         0.141600 
     10 N           1.591000    2.749000    0.115000 N.am      1 <1>        -0.297900 
     11 C           2.643000    2.241000    0.881000 C.2       1 <1>         0.451000 
     12 C           2.319000    1.078000    1.807000 C.3       1 <1>         0.083500 
     13 H           3.155000    0.953000    2.505000 H         1 <1>         0.065100 
     14 H           1.432000    1.279000    2.418000 H         1 <1>         0.024300 
     15 N           2.202000   -0.134000    0.997000 N.2       1 <1>        -0.404300 
     16 C           1.150000   -0.236000    0.251000 C.2       1 <1>         0.256800 
     17 C           1.044000   -1.442000   -0.621000 C.ar      1 <1>        -0.093400 
     18 C           1.420000   -2.699000   -0.130000 C.ar      1 <1>        -0.092700 
     19 H           1.788000   -2.818000    0.887000 H         1 <1>         0.140200 
     20 C           1.308000   -3.826000   -0.949000 C.ar      1 <1>        -0.112800 
     21 H           1.599000   -4.804000   -0.569000 H         1 <1>         0.112600 
     22 C           0.820000   -3.702000   -2.251000 C.ar      1 <1>        -0.059800 
     23 H           0.735000   -4.582000   -2.886000 H         1 <1>         0.115100 
     24 C           0.440000   -2.451000   -2.738000 C.ar      1 <1>        -0.219900 
     25 H           0.063000   -2.347000   -3.752000 H         1 <1>         0.149000 
     26 C           0.551000   -1.327000   -1.922000 C.ar      1 <1>         0.290400 
     27 F           0.204000   -0.134000   -2.428000 F         1 <1>        -0.238300 
     28 O           3.782000    2.724000    0.853000 O.2       1 <1>        -0.396700 
     29 C           1.864000    3.989000   -0.631000 C.3       1 <1>        -0.195800 
     30 H           1.127000    4.115000   -1.432000 H         1 <1>         0.137300 
     31 H           2.848000    3.897000   -1.106000 H         1 <1>         0.152200 
     32 C           1.904000    5.259000    0.217000 C.2       1 <1>         0.632100 
     33 O           1.730000    5.297000    1.431000 O.2       1 <1>        -0.463700 
     34 O           2.159000    6.392000   -0.474000 O.3       1 <1>        -0.473500 
     35 H           2.158000    7.122000    0.190000 H         1 <1>         0.322500 
     36 Cl         -3.951000    0.492000    0.001000 Cl        1 <1>         0.089700 
@<TRIPOS>BOND
     1    2    1 1    
     2    1    3 ar   
     3    3    4 ar   
     4    4    5 1    
     5    4    6 ar   
     6    6    7 ar   
     7    7    8 ar   
     8    8    9 1    
     9    8    1 ar   
    10    7   10 1    
    11   10   11 am   
    12   11   12 1    
    13   12   13 1    
    14   12   14 1    
    15   12   15 1    
    16   15   16 2    
    17   16    6 1    
    18   16   17 1    
    19   17   18 ar   
    20   18   19 1    
    21   18   20 ar   
    22   20   21 1    
    23   20   22 ar   
    24   22   23 1    
    25   22   24 ar   
    26   24   25 1    
    27   24   26 ar   
    28   26   17 ar   
    29   26   27 1    
    30   11   28 2    
    31   10   29 1    
    32   29   30 1    
    33   29   31 1    
    34   29   32 1    
    35   32   33 2    
    36   32   34 1    
    37   34   35 1    
    38    3   36 1    
@<TRIPOS>SUBSTRUCTURE
     1 ****        2 TEMP              0 ****  ****    0 ROOT 
@<TRIPOS>SET
UNITY_3DHIT     STATIC     ATOMS    <user>   **** Atoms matching 3D or FLEX Search
0
@<TRIPOS>UNITY_BOND_ATTR
16 1
S I
