#	Name:			Ro07-6198
#	Creating user name:	jeff
#	Creation time:		Tue Nov  4 15:19:52 2003

#	Modifying user name:	jeff
#	Modification time:	Tue Nov  4 15:19:52 2003

@<TRIPOS>MOLECULE
Ro07-6198
   30    32     1     0     1
SMALL
USER_CHARGES
****
From 3DB ct
@<TRIPOS>ATOM
      1 C          -2.098000    2.489000   -0.228000 C.ar      1 <1>        -0.388100 
      2 C          -2.336000    1.128000   -0.070000 C.ar      1 <1>         0.160100 
      3 H          -3.347000    0.731000   -0.124000 H         1 <1>         0.054300 
      4 C          -1.264000    0.259000    0.139000 C.ar      1 <1>        -0.259000 
      5 H          -1.474000   -0.804000    0.235000 H         1 <1>         0.160800 
      6 C           0.054000    0.749000    0.204000 C.ar      1 <1>        -0.020500 
      7 C           0.281000    2.135000    0.112000 C.ar      1 <1>         0.232500 
      8 C          -0.800000    2.992000   -0.145000 C.ar      1 <1>         0.029700 
      9 H          -0.638000    4.063000   -0.249000 H         1 <1>         0.080200 
     10 N           1.538000    2.752000    0.242000 N.am      1 <1>        -0.697300 
     11 H           1.648000    3.692000   -0.130000 H         1 <1>         0.361600 
     12 C           2.630000    2.275000    0.920000 C.2       1 <1>         0.586500 
     13 C           2.427000    1.034000    1.774000 C.3       1 <1>         0.023300 
     14 H           3.322000    0.895000    2.390000 H         1 <1>         0.072500 
     15 H           1.587000    1.168000    2.465000 H         1 <1>         0.032500 
     16 N           2.264000   -0.140000    0.919000 N.2       1 <1>        -0.395200 
     17 C           1.173000   -0.247000    0.232000 C.2       1 <1>         0.491100 
     18 C           1.045000   -1.455000   -0.626000 C.ar      1 <1>        -0.559900 
     19 C           0.527000   -1.354000   -1.918000 C.ar      1 <1>         0.561400 
     20 C           0.415000   -2.482000   -2.729000 C.ar      1 <1>        -0.373100 
     21 H           0.010000   -2.387000   -3.733000 H         1 <1>         0.176200 
     22 C           0.829000   -3.725000   -2.249000 C.ar      1 <1>         0.064300 
     23 H           0.744000   -4.609000   -2.880000 H         1 <1>         0.112500 
     24 C           1.355000   -3.833000   -0.961000 C.ar      1 <1>        -0.321400 
     25 H           1.679000   -4.798000   -0.579000 H         1 <1>         0.164600 
     26 C           1.464000   -2.699000   -0.157000 C.ar      1 <1>         0.502700 
     27 F           1.951000   -2.839000    1.085000 F         1 <1>        -0.242700 
     28 F           0.140000   -0.168000   -2.410000 F         1 <1>        -0.269300 
     29 O           3.706000    2.881000    0.884000 O.2       1 <1>        -0.433600 
     30 Cl         -3.416000    3.559000   -0.512000 Cl        1 <1>         0.093200 
@<TRIPOS>BOND
     1    1    2 ar   
     2    2    3 1    
     3    2    4 ar   
     4    4    5 1    
     5    4    6 ar   
     6    6    7 ar   
     7    7    8 ar   
     8    8    9 1    
     9    8    1 ar   
    10    7   10 1    
    11   10   11 1    
    12   10   12 am   
    13   12   13 1    
    14   13   14 1    
    15   13   15 1    
    16   13   16 1    
    17   16   17 2    
    18   17    6 1    
    19   17   18 1    
    20   18   19 ar   
    21   19   20 ar   
    22   20   21 1    
    23   20   22 ar   
    24   22   23 1    
    25   22   24 ar   
    26   24   25 1    
    27   24   26 ar   
    28   26   18 ar   
    29   26   27 1    
    30   19   28 1    
    31   12   29 2    
    32    1   30 1    
@<TRIPOS>SUBSTRUCTURE
     1 ****        1 TEMP              0 ****  ****    0 ROOT 
@<TRIPOS>SET
UNITY_3DHIT     STATIC     ATOMS    <user>   **** Atoms matching 3D or FLEX Search
0
@<TRIPOS>UNITY_BOND_ATTR
17 1
S I
