#	Name:			Ro07-4532
#	Creating user name:	jeff
#	Creation time:		Tue Nov  4 15:19:54 2003

#	Modifying user name:	jeff
#	Modification time:	Tue Nov  4 15:19:54 2003

@<TRIPOS>MOLECULE
Ro07-4532
   39    41     1     0     1
SMALL
USER_CHARGES
****
From 3DB ct
@<TRIPOS>ATOM
      1 C          -2.136000    2.506000   -0.142000 C.ar      1 <1>         0.207500 
      2 H          -2.970000    3.195000   -0.261000 H         1 <1>         0.060300 
      3 C          -2.356000    1.145000   -0.001000 C.ar      1 <1>        -0.494400 
      4 C          -1.278000    0.281000    0.148000 C.ar      1 <1>         0.188700 
      5 H          -1.468000   -0.785000    0.257000 H         1 <1>         0.055700 
      6 C           0.043000    0.777000    0.153000 C.ar      1 <1>        -0.069600 
      7 C           0.287000    2.159000    0.063000 C.ar      1 <1>         0.194600 
      8 C          -0.830000    3.004000   -0.110000 C.ar      1 <1>        -0.263900 
      9 H          -0.717000    4.084000   -0.181000 H         1 <1>         0.134200 
     10 N           1.590000    2.748000    0.142000 N.am      1 <1>        -0.347300 
     11 C           2.661000    2.258000    0.894000 C.2       1 <1>         0.513500 
     12 C           2.460000    1.019000    1.809000 C.3       1 <1>         0.396800 
     13 N           2.170000   -0.152000    0.974000 N.2       1 <1>        -0.493300 
     14 C           1.131000   -0.234000    0.220000 C.2       1 <1>         0.159100 
     15 C           1.027000   -1.454000   -0.646000 C.ar      1 <1>         0.151800 
     16 C           0.524000   -1.372000   -1.951000 C.ar      1 <1>        -0.223400 
     17 H           0.201000   -0.422000   -2.371000 H         1 <1>         0.124900 
     18 C           0.446000   -2.520000   -2.741000 C.ar      1 <1>        -0.058800 
     19 H           0.053000   -2.457000   -3.754000 H         1 <1>         0.099500 
     20 C           0.877000   -3.748000   -2.237000 C.ar      1 <1>        -0.113500 
     21 H           0.815000   -4.641000   -2.856000 H         1 <1>         0.105300 
     22 C           1.393000   -3.830000   -0.944000 C.ar      1 <1>        -0.077700 
     23 H           1.734000   -4.788000   -0.554000 H         1 <1>         0.100600 
     24 C           1.474000   -2.685000   -0.149000 C.ar      1 <1>        -0.163200 
     25 H           1.878000   -2.760000    0.858000 H         1 <1>         0.143800 
     26 C           3.814000    0.679000    2.476000 C.3       1 <1>        -0.321400 
     27 H           4.161000    1.496000    3.120000 H         1 <1>         0.078000 
     28 H           4.593000    0.494000    1.726000 H         1 <1>         0.087100 
     29 H           3.737000   -0.226000    3.090000 H         1 <1>         0.099900 
     30 C           1.453000    1.220000    2.945000 C.3       1 <1>        -0.383100 
     31 H           1.791000    2.015000    3.620000 H         1 <1>         0.090400 
     32 H           1.340000    0.302000    3.534000 H         1 <1>         0.131200 
     33 H           0.454000    1.509000    2.618000 H         1 <1>         0.070900 
     34 O           3.760000    2.835000    0.865000 O.2       1 <1>        -0.423600 
     35 C           1.805000    4.011000   -0.572000 C.3       1 <1>        -0.097800 
     36 H           2.864000    4.166000   -0.799000 H         1 <1>         0.102200 
     37 H           1.469000    4.838000    0.060000 H         1 <1>         0.064100 
     38 H           1.267000    4.009000   -1.526000 H         1 <1>         0.077800 
     39 Cl         -3.960000    0.526000   -0.018000 Cl        1 <1>         0.093100 
@<TRIPOS>BOND
     1    2    1 1    
     2    1    3 ar   
     3    3    4 ar   
     4    4    5 1    
     5    4    6 ar   
     6    6    7 ar   
     7    7    8 ar   
     8    8    9 1    
     9    8    1 ar   
    10    7   10 1    
    11   10   11 am   
    12   11   12 1    
    13   12   13 1    
    14   13   14 2    
    15   14    6 1    
    16   14   15 1    
    17   15   16 ar   
    18   16   17 1    
    19   16   18 ar   
    20   18   19 1    
    21   18   20 ar   
    22   20   21 1    
    23   20   22 ar   
    24   22   23 1    
    25   22   24 ar   
    26   24   25 1    
    27   24   15 ar   
    28   12   26 1    
    29   26   27 1    
    30   26   28 1    
    31   26   29 1    
    32   12   30 1    
    33   30   31 1    
    34   30   32 1    
    35   30   33 1    
    36   11   34 2    
    37   10   35 1    
    38   35   36 1    
    39   35   37 1    
    40   35   38 1    
    41    3   39 1    
@<TRIPOS>SUBSTRUCTURE
     1 ****        2 TEMP              0 ****  ****    0 ROOT 
@<TRIPOS>SET
UNITY_3DHIT     STATIC     ATOMS    <user>   **** Atoms matching 3D or FLEX Search
0
@<TRIPOS>UNITY_BOND_ATTR
14 1
S I
