#	Name:			Ro07-1986
#	Creating user name:	jeff
#	Creation time:		Tue Nov  4 15:19:53 2003

#	Modifying user name:	jeff
#	Modification time:	Tue Nov  4 15:19:53 2003

@<TRIPOS>MOLECULE
Ro07-1986
   38    40     1     0     1
SMALL
USER_CHARGES
****
From 3DB ct
@<TRIPOS>ATOM
      1 C          -2.148000    2.478000   -0.156000 C.ar      1 <1>         0.190100 
      2 H          -2.989000    3.154000   -0.294000 H         1 <1>         0.060300 
      3 C          -2.355000    1.118000    0.011000 C.ar      1 <1>        -0.439600 
      4 C          -1.270000    0.268000    0.184000 C.ar      1 <1>         0.134800 
      5 H          -1.451000   -0.798000    0.307000 H         1 <1>         0.066700 
      6 C           0.044000    0.780000    0.191000 C.ar      1 <1>        -0.102200 
      7 C           0.277000    2.170000    0.069000 C.ar      1 <1>         0.268300 
      8 C          -0.847000    2.995000   -0.128000 C.ar      1 <1>        -0.293700 
      9 H          -0.759000    4.074000   -0.224000 H         1 <1>         0.162000 
     10 N           1.588000    2.764000    0.128000 N.am      1 <1>        -0.401900 
     11 C           2.644000    2.230000    0.875000 C.2       1 <1>         0.445200 
     12 C           2.304000    1.084000    1.818000 C.3       1 <1>         0.072900 
     13 H           3.133000    0.965000    2.524000 H         1 <1>         0.064700 
     14 H           1.413000    1.298000    2.419000 H         1 <1>         0.019400 
     15 N           2.189000   -0.135000    1.019000 N.2       1 <1>        -0.403800 
     16 C           1.145000   -0.232000    0.261000 C.2       1 <1>         0.316200 
     17 C           1.046000   -1.435000   -0.615000 C.ar      1 <1>        -0.147100 
     18 C           1.412000   -2.694000   -0.123000 C.ar      1 <1>        -0.068500 
     19 H           1.769000   -2.817000    0.897000 H         1 <1>         0.131800 
     20 C           1.306000   -3.819000   -0.945000 C.ar      1 <1>        -0.121300 
     21 H           1.590000   -4.799000   -0.564000 H         1 <1>         0.112900 
     22 C           0.832000   -3.691000   -2.252000 C.ar      1 <1>        -0.054000 
     23 H           0.751000   -4.569000   -2.890000 H         1 <1>         0.114300 
     24 C           0.462000   -2.438000   -2.741000 C.ar      1 <1>        -0.231900 
     25 H           0.095000   -2.331000   -3.758000 H         1 <1>         0.149400 
     26 C           0.567000   -1.316000   -1.922000 C.ar      1 <1>         0.324300 
     27 F           0.229000   -0.121000   -2.429000 F         1 <1>        -0.243400 
     28 O           3.802000    2.662000    0.812000 O.2       1 <1>        -0.382000 
     29 C           1.869000    3.975000   -0.666000 C.3       1 <1>        -0.122200 
     30 H           1.101000    4.087000   -1.442000 H         1 <1>         0.094500 
     31 H           2.805000    3.861000   -1.220000 H         1 <1>         0.134000 
     32 C           1.873000    5.251000    0.195000 C.3       1 <1>         0.272800 
     33 H           2.650000    5.186000    0.964000 H         1 <1>         0.038300 
     34 H           0.913000    5.348000    0.716000 H         1 <1>        -0.049200 
     35 N           2.111000    6.460000   -0.603000 N.3       1 <1>        -0.718800 
     36 H           2.022000    7.272000    0.019000 H         1 <1>         0.260100 
     37 H           1.326000    6.575000   -1.256000 H         1 <1>         0.261000 
     38 Cl         -3.953000    0.482000   -0.008000 Cl        1 <1>         0.085600 
@<TRIPOS>BOND
     1    2    1 1    
     2    1    3 ar   
     3    3    4 ar   
     4    4    5 1    
     5    4    6 ar   
     6    6    7 ar   
     7    7    8 ar   
     8    8    9 1    
     9    8    1 ar   
    10    7   10 1    
    11   10   11 am   
    12   11   12 1    
    13   12   13 1    
    14   12   14 1    
    15   12   15 1    
    16   15   16 2    
    17   16    6 1    
    18   16   17 1    
    19   17   18 ar   
    20   18   19 1    
    21   18   20 ar   
    22   20   21 1    
    23   20   22 ar   
    24   22   23 1    
    25   22   24 ar   
    26   24   25 1    
    27   24   26 ar   
    28   26   17 ar   
    29   26   27 1    
    30   11   28 2    
    31   10   29 1    
    32   29   30 1    
    33   29   31 1    
    34   29   32 1    
    35   32   33 1    
    36   32   34 1    
    37   32   35 1    
    38   35   36 1    
    39   35   37 1    
    40    3   38 1    
@<TRIPOS>SUBSTRUCTURE
     1 ****        2 TEMP              0 ****  ****    0 ROOT 
@<TRIPOS>SET
UNITY_3DHIT     STATIC     ATOMS    <user>   **** Atoms matching 3D or FLEX Search
0
@<TRIPOS>UNITY_BOND_ATTR
16 1
S I
