#	Name:			Ro07-4065
#	Creating user name:	jeff
#	Creation time:		Tue Nov  4 15:19:50 2003

#	Modifying user name:	jeff
#	Modification time:	Tue Nov  4 15:19:50 2003

@<TRIPOS>MOLECULE
Ro07-4065
   33    35     1     0     1
SMALL
USER_CHARGES
****
From 3DB ct
@<TRIPOS>ATOM
      1 C          -2.132000    2.486000   -0.163000 C.ar      1 <1>         0.187900 
      2 H          -2.969000    3.167000   -0.304000 H         1 <1>         0.062300 
      3 C          -2.347000    1.127000    0.012000 C.ar      1 <1>        -0.431300 
      4 C          -1.268000    0.267000    0.186000 C.ar      1 <1>         0.097400 
      5 H          -1.457000   -0.796000    0.316000 H         1 <1>         0.079800 
      6 C           0.048000    0.770000    0.187000 C.ar      1 <1>        -0.063600 
      7 C           0.287000    2.156000    0.057000 C.ar      1 <1>         0.192200 
      8 C          -0.829000    2.993000   -0.143000 C.ar      1 <1>        -0.256500 
      9 H          -0.718000    4.070000   -0.251000 H         1 <1>         0.138600 
     10 N           1.595000    2.746000    0.109000 N.am      1 <1>        -0.316700 
     11 C           2.645000    2.247000    0.884000 C.2       1 <1>         0.473500 
     12 C           2.324000    1.075000    1.802000 C.3       1 <1>         0.032000 
     13 H           3.161000    0.946000    2.498000 H         1 <1>         0.078000 
     14 H           1.438000    1.271000    2.416000 H         1 <1>         0.023800 
     15 N           2.208000   -0.135000    0.987000 N.2       1 <1>        -0.378500 
     16 C           1.153000   -0.237000    0.244000 C.2       1 <1>         0.374700 
     17 C           1.046000   -1.442000   -0.621000 C.ar      1 <1>        -0.440000 
     18 C           0.537000   -1.340000   -1.917000 C.ar      1 <1>         0.485400 
     19 C           0.442000   -2.464000   -2.736000 C.ar      1 <1>        -0.354000 
     20 H           0.043000   -2.367000   -3.742000 H         1 <1>         0.175200 
     21 C           0.865000   -3.706000   -2.260000 C.ar      1 <1>         0.059500 
     22 H           0.792000   -4.586000   -2.896000 H         1 <1>         0.113900 
     23 C           1.382000   -3.816000   -0.969000 C.ar      1 <1>        -0.331100 
     24 H           1.711000   -4.780000   -0.589000 H         1 <1>         0.168200 
     25 C           1.473000   -2.686000   -0.158000 C.ar      1 <1>         0.486900 
     26 F           1.951000   -2.830000    1.088000 F         1 <1>        -0.237100 
     27 F           0.143000   -0.155000   -2.407000 F         1 <1>        -0.252300 
     28 O           3.779000    2.742000    0.877000 O.2       1 <1>        -0.399800 
     29 C           1.829000    3.988000   -0.625000 C.3       1 <1>        -0.075200 
     30 H           2.896000    4.143000   -0.810000 H         1 <1>         0.098500 
     31 H           1.464000    4.829000   -0.026000 H         1 <1>         0.051800 
     32 H           1.324000    3.957000   -1.595000 H         1 <1>         0.072100 
     33 Cl         -3.950000    0.502000    0.003000 Cl        1 <1>         0.084500 
@<TRIPOS>BOND
     1    2    1 1    
     2    1    3 ar   
     3    3    4 ar   
     4    4    5 1    
     5    4    6 ar   
     6    6    7 ar   
     7    7    8 ar   
     8    8    9 1    
     9    8    1 ar   
    10    7   10 1    
    11   10   11 am   
    12   11   12 1    
    13   12   13 1    
    14   12   14 1    
    15   12   15 1    
    16   15   16 2    
    17   16    6 1    
    18   16   17 1    
    19   17   18 ar   
    20   18   19 ar   
    21   19   20 1    
    22   19   21 ar   
    23   21   22 1    
    24   21   23 ar   
    25   23   24 1    
    26   23   25 ar   
    27   25   17 ar   
    28   25   26 1    
    29   18   27 1    
    30   11   28 2    
    31   10   29 1    
    32   29   30 1    
    33   29   31 1    
    34   29   32 1    
    35    3   33 1    
@<TRIPOS>SUBSTRUCTURE
     1 ****        2 TEMP              0 ****  ****    0 ROOT 
@<TRIPOS>SET
UNITY_3DHIT     STATIC     ATOMS    <user>   **** Atoms matching 3D or FLEX Search
0
@<TRIPOS>UNITY_BOND_ATTR
16 1
S I
