#	Name:			Ro07-3953
#	Creating user name:	jeff
#	Creation time:		Tue Nov  4 15:19:50 2003

#	Modifying user name:	jeff
#	Modification time:	Tue Nov  4 15:19:50 2003

@<TRIPOS>MOLECULE
Ro07-3953
   30    32     1     0     1
SMALL
USER_CHARGES
****
From 3DB ct
@<TRIPOS>ATOM
      1 C          -2.107000    2.487000   -0.189000 C.ar      1 <1>         0.254400 
      2 H          -2.937000    3.170000   -0.359000 H         1 <1>         0.055000 
      3 C          -2.331000    1.125000   -0.026000 C.ar      1 <1>        -0.484200 
      4 C          -1.262000    0.255000    0.173000 C.ar      1 <1>         0.184900 
      5 H          -1.461000   -0.809000    0.276000 H         1 <1>         0.069700 
      6 C           0.055000    0.749000    0.221000 C.ar      1 <1>        -0.268300 
      7 C           0.280000    2.135000    0.126000 C.ar      1 <1>         0.449700 
      8 C          -0.806000    2.988000   -0.119000 C.ar      1 <1>        -0.385300 
      9 H          -0.655000    4.061000   -0.226000 H         1 <1>         0.159600 
     10 N           1.536000    2.755000    0.242000 N.am      1 <1>        -0.675700 
     11 H           1.637000    3.696000   -0.131000 H         1 <1>         0.346700 
     12 C           2.637000    2.282000    0.907000 C.2       1 <1>         0.548300 
     13 C           2.447000    1.039000    1.762000 C.3       1 <1>         0.035300 
     14 H           3.351000    0.901000    2.366000 H         1 <1>         0.074600 
     15 H           1.616000    1.171000    2.464000 H         1 <1>         0.032900 
     16 N           2.275000   -0.135000    0.908000 N.2       1 <1>        -0.409600 
     17 C           1.177000   -0.245000    0.234000 C.2       1 <1>         0.516100 
     18 C           1.041000   -1.453000   -0.623000 C.ar      1 <1>        -0.526000 
     19 C           0.520000   -1.352000   -1.913000 C.ar      1 <1>         0.530600 
     20 C           0.401000   -2.480000   -2.723000 C.ar      1 <1>        -0.369900 
     21 H          -0.007000   -2.385000   -3.726000 H         1 <1>         0.177900 
     22 C           0.811000   -3.725000   -2.243000 C.ar      1 <1>         0.066700 
     23 H           0.720000   -4.609000   -2.872000 H         1 <1>         0.112500 
     24 C           1.341000   -3.833000   -0.956000 C.ar      1 <1>        -0.329400 
     25 H           1.661000   -4.799000   -0.574000 H         1 <1>         0.166300 
     26 C           1.456000   -2.699000   -0.154000 C.ar      1 <1>         0.508400 
     27 F           1.946000   -2.840000    1.087000 F         1 <1>        -0.244200 
     28 F           0.135000   -0.165000   -2.406000 F         1 <1>        -0.261700 
     29 O           3.710000    2.891000    0.859000 O.2       1 <1>        -0.422300 
     30 Cl         -3.936000    0.507000   -0.098000 Cl        1 <1>         0.086900 
@<TRIPOS>BOND
     1    2    1 1    
     2    1    3 ar   
     3    3    4 ar   
     4    4    5 1    
     5    4    6 ar   
     6    6    7 ar   
     7    7    8 ar   
     8    8    9 1    
     9    8    1 ar   
    10    7   10 1    
    11   10   11 1    
    12   10   12 am   
    13   12   13 1    
    14   13   14 1    
    15   13   15 1    
    16   13   16 1    
    17   16   17 2    
    18   17    6 1    
    19   17   18 1    
    20   18   19 ar   
    21   19   20 ar   
    22   20   21 1    
    23   20   22 ar   
    24   22   23 1    
    25   22   24 ar   
    26   24   25 1    
    27   24   26 ar   
    28   26   18 ar   
    29   26   27 1    
    30   19   28 1    
    31   12   29 2    
    32    3   30 1    
@<TRIPOS>SUBSTRUCTURE
     1 ****        2 TEMP              0 ****  ****    0 ROOT 
@<TRIPOS>SET
UNITY_3DHIT     STATIC     ATOMS    <user>   **** Atoms matching 3D or FLEX Search
0
@<TRIPOS>UNITY_BOND_ATTR
17 1
S I
