#	Name:			Ro07-2750
#	Creating user name:	jeff
#	Creation time:		Tue Nov  4 15:19:53 2003

#	Modifying user name:	jeff
#	Modification time:	Tue Nov  4 15:19:54 2003

@<TRIPOS>MOLECULE
Ro07-2750
   37    39     1     0     1
SMALL
USER_CHARGES
****
From 3DB ct
@<TRIPOS>ATOM
      1 C          -2.147000    2.478000   -0.157000 C.ar      1 <1>         0.177900 
      2 H          -2.988000    3.155000   -0.296000 H         1 <1>         0.064400 
      3 C          -2.354000    1.118000    0.009000 C.ar      1 <1>        -0.435900 
      4 C          -1.270000    0.268000    0.183000 C.ar      1 <1>         0.139800 
      5 H          -1.450000   -0.798000    0.306000 H         1 <1>         0.065300 
      6 C           0.044000    0.780000    0.191000 C.ar      1 <1>        -0.113600 
      7 C           0.278000    2.170000    0.070000 C.ar      1 <1>         0.255500 
      8 C          -0.847000    2.995000   -0.128000 C.ar      1 <1>        -0.268100 
      9 H          -0.759000    4.074000   -0.223000 H         1 <1>         0.157800 
     10 N           1.588000    2.764000    0.129000 N.am      1 <1>        -0.410100 
     11 C           2.645000    2.231000    0.875000 C.2       1 <1>         0.453600 
     12 C           2.307000    1.083000    1.817000 C.3       1 <1>         0.076900 
     13 H           3.138000    0.964000    2.521000 H         1 <1>         0.062100 
     14 H           1.417000    1.296000    2.419000 H         1 <1>         0.021800 
     15 N           2.192000   -0.134000    1.016000 N.2       1 <1>        -0.406500 
     16 C           1.146000   -0.232000    0.260000 C.2       1 <1>         0.318200 
     17 C           1.046000   -1.436000   -0.615000 C.ar      1 <1>        -0.152500 
     18 C           1.414000   -2.695000   -0.123000 C.ar      1 <1>        -0.063600 
     19 H           1.772000   -2.816000    0.897000 H         1 <1>         0.131200 
     20 C           1.307000   -3.820000   -0.945000 C.ar      1 <1>        -0.124700 
     21 H           1.592000   -4.799000   -0.564000 H         1 <1>         0.113500 
     22 C           0.831000   -3.693000   -2.251000 C.ar      1 <1>        -0.052700 
     23 H           0.749000   -4.572000   -2.888000 H         1 <1>         0.114400 
     24 C           0.459000   -2.440000   -2.740000 C.ar      1 <1>        -0.234800 
     25 H           0.090000   -2.334000   -3.757000 H         1 <1>         0.150700 
     26 C           0.564000   -1.318000   -1.921000 C.ar      1 <1>         0.331200 
     27 F           0.224000   -0.123000   -2.428000 F         1 <1>        -0.245900 
     28 O           3.801000    2.665000    0.810000 O.2       1 <1>        -0.390800 
     29 C           1.865000    3.980000   -0.655000 C.3       1 <1>        -0.040700 
     30 H           1.103000    4.104000   -1.435000 H         1 <1>         0.094100 
     31 H           2.794000    3.877000   -1.223000 H         1 <1>         0.096400 
     32 C           1.874000    5.250000    0.200000 C.3       1 <1>         0.248000 
     33 H           2.666000    5.214000    0.954000 H         1 <1>         0.005000 
     34 H           0.914000    5.374000    0.712000 H         1 <1>        -0.028400 
     35 O           2.095000    6.396000   -0.625000 O.3       1 <1>        -0.484100 
     36 H           2.085000    7.166000   -0.015000 H         1 <1>         0.288900 
     37 Cl         -3.952000    0.482000   -0.010000 Cl        1 <1>         0.085400 
@<TRIPOS>BOND
     1    2    1 1    
     2    1    3 ar   
     3    3    4 ar   
     4    4    5 1    
     5    4    6 ar   
     6    6    7 ar   
     7    7    8 ar   
     8    8    9 1    
     9    8    1 ar   
    10    7   10 1    
    11   10   11 am   
    12   11   12 1    
    13   12   13 1    
    14   12   14 1    
    15   12   15 1    
    16   15   16 2    
    17   16    6 1    
    18   16   17 1    
    19   17   18 ar   
    20   18   19 1    
    21   18   20 ar   
    22   20   21 1    
    23   20   22 ar   
    24   22   23 1    
    25   22   24 ar   
    26   24   25 1    
    27   24   26 ar   
    28   26   17 ar   
    29   26   27 1    
    30   11   28 2    
    31   10   29 1    
    32   29   30 1    
    33   29   31 1    
    34   29   32 1    
    35   32   33 1    
    36   32   34 1    
    37   32   35 1    
    38   35   36 1    
    39    3   37 1    
@<TRIPOS>SUBSTRUCTURE
     1 ****        2 TEMP              0 ****  ****    0 ROOT 
@<TRIPOS>SET
UNITY_3DHIT     STATIC     ATOMS    <user>   **** Atoms matching 3D or FLEX Search
0
@<TRIPOS>UNITY_BOND_ATTR
16 1
S I
