#	Name:			Ro07-4419
#	Creating user name:	jeff
#	Creation time:		Tue Nov  4 15:19:52 2003

#	Modifying user name:	jeff
#	Modification time:	Tue Nov  4 15:19:52 2003

@<TRIPOS>MOLECULE
Ro07-4419
   30    32     1     0     1
SMALL
USER_CHARGES
****
From 3DB ct
@<TRIPOS>ATOM
      1 C          -2.101000    2.490000   -0.228000 C.ar      1 <1>        -0.029800 
      2 H          -2.933000    3.169000   -0.406000 H         1 <1>         0.107900 
      3 C          -2.335000    1.129000   -0.071000 C.ar      1 <1>        -0.129300 
      4 H          -3.349000    0.739000   -0.127000 H         1 <1>         0.108200 
      5 C          -1.263000    0.260000    0.136000 C.ar      1 <1>        -0.111500 
      6 H          -1.474000   -0.804000    0.231000 H         1 <1>         0.133300 
      7 C           0.055000    0.749000    0.203000 C.ar      1 <1>        -0.169300 
      8 C           0.282000    2.134000    0.113000 C.ar      1 <1>         0.336700 
      9 C          -0.800000    2.988000   -0.143000 C.ar      1 <1>        -0.256500 
     10 H          -0.647000    4.062000   -0.246000 H         1 <1>         0.135500 
     11 N           1.538000    2.753000    0.244000 N.am      1 <1>        -0.645600 
     12 H           1.644000    3.694000   -0.126000 H         1 <1>         0.337200 
     13 C           2.630000    2.276000    0.921000 C.2       1 <1>         0.549000 
     14 C           2.428000    1.034000    1.773000 C.3       1 <1>         0.008300 
     15 H           3.323000    0.894000    2.388000 H         1 <1>         0.077800 
     16 H           1.588000    1.166000    2.465000 H         1 <1>         0.040000 
     17 N           2.265000   -0.141000    0.917000 N.2       1 <1>        -0.400800 
     18 C           1.174000   -0.247000    0.231000 C.2       1 <1>         0.535600 
     19 C           1.045000   -1.455000   -0.626000 C.ar      1 <1>        -0.579500 
     20 C           0.527000   -1.355000   -1.918000 C.ar      1 <1>         0.569300 
     21 C           0.414000   -2.483000   -2.728000 C.ar      1 <1>        -0.375000 
     22 H           0.008000   -2.388000   -3.732000 H         1 <1>         0.174200 
     23 C           0.828000   -3.726000   -2.248000 C.ar      1 <1>         0.067900 
     24 H           0.742000   -4.610000   -2.877000 H         1 <1>         0.110300 
     25 C           1.354000   -3.834000   -0.960000 C.ar      1 <1>        -0.332700 
     26 H           1.677000   -4.798000   -0.577000 H         1 <1>         0.165400 
     27 C           1.464000   -2.699000   -0.157000 C.ar      1 <1>         0.517700 
     28 F           1.952000   -2.837000    1.085000 F         1 <1>        -0.246600 
     29 F           0.141000   -0.168000   -2.411000 F         1 <1>        -0.268700 
     30 O           3.705000    2.883000    0.886000 O.2       1 <1>        -0.428900 
@<TRIPOS>BOND
     1    2    1 1    
     2    1    3 ar   
     3    3    4 1    
     4    3    5 ar   
     5    5    6 1    
     6    5    7 ar   
     7    7    8 ar   
     8    8    9 ar   
     9    9   10 1    
    10    9    1 ar   
    11    8   11 1    
    12   11   12 1    
    13   11   13 am   
    14   13   14 1    
    15   14   15 1    
    16   14   16 1    
    17   14   17 1    
    18   17   18 2    
    19   18    7 1    
    20   18   19 1    
    21   19   20 ar   
    22   20   21 ar   
    23   21   22 1    
    24   21   23 ar   
    25   23   24 1    
    26   23   25 ar   
    27   25   26 1    
    28   25   27 ar   
    29   27   19 ar   
    30   27   28 1    
    31   20   29 1    
    32   13   30 2    
@<TRIPOS>SUBSTRUCTURE
     1 ****        2 TEMP              0 ****  ****    0 ROOT 
@<TRIPOS>SET
UNITY_3DHIT     STATIC     ATOMS    <user>   **** Atoms matching 3D or FLEX Search
0
@<TRIPOS>UNITY_BOND_ATTR
18 1
S I
