#	Name:			Ro08-6739
#	Creating user name:	jeff
#	Creation time:		Tue Nov  4 15:19:55 2003

#	Modifying user name:	jeff
#	Modification time:	Tue Nov  4 15:19:55 2003

@<TRIPOS>MOLECULE
Ro08-6739
   27    29     1     0     1
SMALL
USER_CHARGES
****
From 3DB ct
@<TRIPOS>ATOM
      1 C           0.172000    1.953000    0.295000 C.ar      1 <1>         0.070800 
      2 C           0.071000    0.577000    0.220000 C.ar      1 <1>        -0.031300 
      3 C           1.218000   -0.331000    0.145000 C.2       1 <1>         0.267800 
      4 N           2.340000   -0.120000    0.749000 N.2       1 <1>        -0.423200 
      5 C           2.483000    1.018000    1.660000 C.3       1 <1>         0.129000 
      6 H           3.453000    0.930000    2.163000 H         1 <1>         0.040100 
      7 H           1.724000    1.002000    2.452000 H         1 <1>         0.015800 
      8 C           2.461000    2.358000    0.931000 C.2       1 <1>         0.532700 
      9 N           1.255000    2.780000    0.436000 N.am      1 <1>        -0.585100 
     10 H           1.157000    3.757000    0.184000 H         1 <1>         0.364200 
     11 O           3.459000    3.085000    0.868000 O.2       1 <1>        -0.417000 
     12 C           1.095000   -1.558000   -0.697000 C.ar      1 <1>        -0.027400 
     13 C           0.584000   -1.498000   -2.000000 C.ar      1 <1>        -0.092600 
     14 H           0.265000   -0.553000   -2.436000 H         1 <1>         0.095100 
     15 C           0.493000   -2.660000   -2.768000 C.ar      1 <1>        -0.098800 
     16 H           0.094000   -2.614000   -3.780000 H         1 <1>         0.102100 
     17 C           0.920000   -3.880000   -2.244000 C.ar      1 <1>        -0.091900 
     18 H           0.850000   -4.785000   -2.846000 H         1 <1>         0.103200 
     19 C           1.445000   -3.942000   -0.954000 C.ar      1 <1>        -0.087400 
     20 H           1.784000   -4.894000   -0.548000 H         1 <1>         0.103100 
     21 C           1.538000   -2.782000   -0.181000 C.ar      1 <1>        -0.117100 
     22 H           1.951000   -2.841000    0.824000 H         1 <1>         0.127900 
     23 C          -1.321000    0.201000    0.152000 C.ar      1 <1>         0.013200 
     24 H          -1.684000   -0.819000    0.112000 H         1 <1>         0.120500 
     25 C          -2.146000    1.295000    0.097000 C.ar      1 <1>        -0.512000 
     26 S          -1.311000    2.764000    0.125000 S.3       1 <1>         0.243100 
     27 Cl         -3.859000    1.287000   -0.021000 Cl        1 <1>         0.155100 
@<TRIPOS>BOND
     1    1    2 ar   
     2    2    3 1    
     3    3    4 2    
     4    4    5 1    
     5    5    6 1    
     6    5    7 1    
     7    5    8 1    
     8    8    9 am   
     9    9   10 1    
    10    9    1 1    
    11    8   11 2    
    12    3   12 1    
    13   12   13 ar   
    14   13   14 1    
    15   13   15 ar   
    16   15   16 1    
    17   15   17 ar   
    18   17   18 1    
    19   17   19 ar   
    20   19   20 1    
    21   19   21 ar   
    22   21   22 1    
    23   21   12 ar   
    24    2   23 ar   
    25   23   24 1    
    26   23   25 ar   
    27   25   26 ar   
    28   26    1 ar   
    29   25   27 1    
@<TRIPOS>SUBSTRUCTURE
     1 ****        1 TEMP              0 ****  ****    0 ROOT 
@<TRIPOS>SET
UNITY_3DHIT     STATIC     ATOMS    <user>   **** Atoms matching 3D or FLEX Search
0
@<TRIPOS>UNITY_BOND_ATTR
3 1
S I
