#	Name:			Ro08-9212
#	Creating user name:	jeff
#	Creation time:		Tue Nov  4 15:19:55 2003

#	Modifying user name:	jeff
#	Modification time:	Tue Nov  4 15:19:55 2003

@<TRIPOS>MOLECULE
Ro08-9212
   27    29     1     0     1
SMALL
USER_CHARGES
****
From 3DB ct
@<TRIPOS>ATOM
      1 C           0.175000    1.930000    0.317000 C.ar      1 <1>         0.047000 
      2 C           0.098000    0.554000    0.230000 C.ar      1 <1>         0.172000 
      3 C           1.258000   -0.336000    0.168000 C.2       1 <1>         0.032600 
      4 N           2.397000   -0.102000    0.727000 N.2       1 <1>        -0.424100 
      5 C           2.537000    1.034000    1.641000 C.3       1 <1>         0.216300 
      6 H           3.521000    0.963000    2.120000 H         1 <1>         0.023900 
      7 H           1.798000    0.994000    2.450000 H         1 <1>        -0.007200 
      8 C           2.467000    2.379000    0.929000 C.2       1 <1>         0.494900 
      9 N           1.241000    2.778000    0.466000 N.am      1 <1>        -0.577800 
     10 H           1.119000    3.756000    0.224000 H         1 <1>         0.368300 
     11 O           3.444000    3.132000    0.855000 O.2       1 <1>        -0.409800 
     12 C           1.115000   -1.564000   -0.646000 C.ar      1 <1>         0.397800 
     13 C           1.697000   -2.747000   -0.168000 C.ar      1 <1>        -0.337700 
     14 H           2.237000   -2.758000    0.776000 H         1 <1>         0.180800 
     15 C           1.577000   -3.925000   -0.906000 C.ar      1 <1>         0.038400 
     16 H           2.027000   -4.846000   -0.539000 H         1 <1>         0.087600 
     17 C           0.879000   -3.923000   -2.114000 C.ar      1 <1>        -0.182400 
     18 H           0.787000   -4.843000   -2.689000 H         1 <1>         0.120600 
     19 C           0.300000   -2.744000   -2.589000 C.ar      1 <1>         0.115100 
     20 H          -0.237000   -2.758000   -3.536000 H         1 <1>         0.065300 
     21 C           0.414000   -1.559000   -1.857000 C.ar      1 <1>        -0.436800 
     22 Cl         -0.288000   -0.124000   -2.513000 Cl        1 <1>         0.082000 
     23 C          -1.283000    0.156000    0.098000 C.ar      1 <1>        -0.134800 
     24 H          -1.629000   -0.868000    0.018000 H         1 <1>         0.158100 
     25 C          -2.127000    1.237000    0.050000 C.ar      1 <1>        -0.491100 
     26 S          -1.319000    2.718000    0.138000 S.3       1 <1>         0.241600 
     27 Cl         -3.835000    1.202000   -0.117000 Cl        1 <1>         0.159700 
@<TRIPOS>BOND
     1    1    2 ar   
     2    2    3 1    
     3    3    4 2    
     4    4    5 1    
     5    5    6 1    
     6    5    7 1    
     7    5    8 1    
     8    8    9 am   
     9    9   10 1    
    10    9    1 1    
    11    8   11 2    
    12    3   12 1    
    13   12   13 ar   
    14   13   14 1    
    15   13   15 ar   
    16   15   16 1    
    17   15   17 ar   
    18   17   18 1    
    19   17   19 ar   
    20   19   20 1    
    21   19   21 ar   
    22   21   12 ar   
    23   21   22 1    
    24    2   23 ar   
    25   23   24 1    
    26   23   25 ar   
    27   25   26 ar   
    28   26    1 ar   
    29   25   27 1    
@<TRIPOS>SUBSTRUCTURE
     1 ****        1 TEMP              0 ****  ****    0 ROOT 
@<TRIPOS>SET
UNITY_3DHIT     STATIC     ATOMS    <user>   **** Atoms matching 3D or FLEX Search
0
@<TRIPOS>UNITY_BOND_ATTR
3 1
S I
