#	Name:			Ro10-2643
#	Creating user name:	jeff
#	Creation time:		Tue Nov  4 15:19:55 2003

#	Modifying user name:	jeff
#	Modification time:	Tue Nov  4 15:19:55 2003

@<TRIPOS>MOLECULE
Ro10-2643
   27    29     1     0     1
SMALL
USER_CHARGES
****
From 3DB ct
@<TRIPOS>ATOM
      1 C           0.346000    2.203000    0.118000 C.ar      1 <1>         0.343300 
      2 C           0.182000    0.826000    0.065000 C.ar      1 <1>        -0.257800 
      3 C           1.200000   -0.213000    0.169000 C.2       1 <1>         0.250500 
      4 N           2.283000   -0.121000    0.871000 N.2       1 <1>        -0.462300 
      5 C           2.445000    1.035000    1.757000 C.3       1 <1>         0.203600 
      6 H           3.341000    0.872000    2.367000 H         1 <1>         0.030700 
      7 H           1.608000    1.128000    2.461000 H         1 <1>         0.001900 
      8 C           2.638000    2.337000    0.990000 C.2       1 <1>         0.477000 
      9 N           1.537000    2.866000    0.368000 N.am      1 <1>        -0.628900 
     10 H           1.606000    3.839000    0.081000 H         1 <1>         0.352100 
     11 O           3.712000    2.948000    0.998000 O.2       1 <1>        -0.403600 
     12 C           1.036000   -1.448000   -0.640000 C.ar      1 <1>         0.351200 
     13 C           1.409000   -2.670000   -0.064000 C.ar      1 <1>        -0.308300 
     14 H           1.808000   -2.708000    0.948000 H         1 <1>         0.168000 
     15 C           1.261000   -3.851000   -0.791000 C.ar      1 <1>         0.039900 
     16 H           1.549000   -4.803000   -0.347000 H         1 <1>         0.088600 
     17 C           0.741000   -3.814000   -2.085000 C.ar      1 <1>        -0.200300 
     18 H           0.626000   -4.737000   -2.651000 H         1 <1>         0.122500 
     19 C           0.367000   -2.595000   -2.657000 C.ar      1 <1>         0.170600 
     20 H          -0.033000   -2.583000   -3.669000 H         1 <1>         0.055800 
     21 C           0.512000   -1.406000   -1.937000 C.ar      1 <1>        -0.503400 
     22 Cl          0.065000    0.074000   -2.708000 Cl        1 <1>         0.099700 
     23 S          -1.461000    0.411000   -0.242000 S.3       1 <1>         0.268100 
     24 C          -1.901000    2.031000   -0.400000 C.ar      1 <1>        -0.477000 
     25 C          -0.860000    2.898000   -0.209000 C.ar      1 <1>        -0.084800 
     26 H          -0.958000    3.975000   -0.269000 H         1 <1>         0.131900 
     27 Cl         -3.527000    2.442000   -0.770000 Cl        1 <1>         0.171000 
@<TRIPOS>BOND
     1    1    2 ar   
     2    2    3 1    
     3    3    4 2    
     4    4    5 1    
     5    5    6 1    
     6    5    7 1    
     7    5    8 1    
     8    8    9 am   
     9    9   10 1    
    10    9    1 1    
    11    8   11 2    
    12    3   12 1    
    13   12   13 ar   
    14   13   14 1    
    15   13   15 ar   
    16   15   16 1    
    17   15   17 ar   
    18   17   18 1    
    19   17   19 ar   
    20   19   20 1    
    21   19   21 ar   
    22   21   12 ar   
    23   21   22 1    
    24    2   23 ar   
    25   23   24 ar   
    26   24   25 ar   
    27   25   26 1    
    28   25    1 ar   
    29   24   27 1    
@<TRIPOS>SUBSTRUCTURE
     1 ****        1 TEMP              0 ****  ****    0 ROOT 
@<TRIPOS>SET
UNITY_3DHIT     STATIC     ATOMS    <user>   **** Atoms matching 3D or FLEX Search
0
@<TRIPOS>UNITY_BOND_ATTR
3 1
S I
