#	Name:			Ro10-3580
#	Creating user name:	jeff
#	Creation time:		Tue Nov  4 15:19:54 2003

#	Modifying user name:	jeff
#	Modification time:	Tue Nov  4 15:19:54 2003

@<TRIPOS>MOLECULE
Ro10-3580
   41    43     1     0     1
SMALL
USER_CHARGES
****
From 3DB ct
@<TRIPOS>ATOM
      1 C          -2.147000    2.468000   -0.187000 C.ar      1 <1>         0.154600 
      2 H          -2.989000    3.138000   -0.345000 H         1 <1>         0.070000 
      3 C          -2.350000    1.110000   -0.004000 C.ar      1 <1>        -0.432100 
      4 C          -1.263000    0.266000    0.183000 C.ar      1 <1>         0.140900 
      5 H          -1.441000   -0.799000    0.313000 H         1 <1>         0.065500 
      6 C           0.050000    0.782000    0.193000 C.ar      1 <1>        -0.099500 
      7 C           0.279000    2.174000    0.070000 C.ar      1 <1>         0.198500 
      8 C          -0.849000    2.990000   -0.154000 C.ar      1 <1>        -0.209000 
      9 H          -0.764000    4.065000   -0.280000 H         1 <1>         0.125000 
     10 N           1.586000    2.777000    0.143000 N.am      1 <1>        -0.325700 
     11 C           2.656000    2.226000    0.858000 C.2       1 <1>         0.450700 
     12 C           2.324000    1.082000    1.806000 C.3       1 <1>         0.083300 
     13 H           3.160000    0.964000    2.505000 H         1 <1>         0.063600 
     14 H           1.439000    1.298000    2.414000 H         1 <1>         0.024600 
     15 N           2.200000   -0.137000    1.011000 N.2       1 <1>        -0.406300 
     16 C           1.151000   -0.232000    0.261000 C.2       1 <1>         0.308200 
     17 C           1.044000   -1.437000   -0.611000 C.ar      1 <1>        -0.150600 
     18 C           1.411000   -2.696000   -0.117000 C.ar      1 <1>        -0.060600 
     19 H           1.773000   -2.815000    0.901000 H         1 <1>         0.131400 
     20 C           1.298000   -3.822000   -0.936000 C.ar      1 <1>        -0.126600 
     21 H           1.583000   -4.802000   -0.554000 H         1 <1>         0.114100 
     22 C           0.818000   -3.697000   -2.241000 C.ar      1 <1>        -0.051000 
     23 H           0.732000   -4.577000   -2.876000 H         1 <1>         0.114300 
     24 C           0.447000   -2.445000   -2.731000 C.ar      1 <1>        -0.235000 
     25 H           0.075000   -2.340000   -3.747000 H         1 <1>         0.150600 
     26 C           0.558000   -1.321000   -1.915000 C.ar      1 <1>         0.329300 
     27 F           0.219000   -0.127000   -2.424000 F         1 <1>        -0.246000 
     28 O           3.819000    2.639000    0.761000 O.2       1 <1>        -0.404200 
     29 C           1.837000    4.056000   -0.553000 C.3       1 <1>        -0.189800 
     30 H           1.099000    4.185000   -1.353000 H         1 <1>         0.112000 
     31 H           2.811000    3.974000   -1.052000 H         1 <1>         0.152600 
     32 C           1.859000    5.279000    0.396000 C.3       1 <1>         0.275800 
     33 H           0.971000    5.289000    1.034000 H         1 <1>         0.002600 
     34 O           2.996000    5.222000    1.279000 O.3       1 <1>        -0.501700 
     35 H           3.777000    5.343000    0.695000 H         1 <1>         0.328600 
     36 C           1.925000    6.593000   -0.395000 C.3       1 <1>         0.104500 
     37 H           1.943000    7.444000    0.293000 H         1 <1>         0.029800 
     38 H           1.070000    6.691000   -1.071000 H         1 <1>         0.000500 
     39 O           3.131000    6.642000   -1.164000 O.3       1 <1>        -0.484500 
     40 H           3.117000    7.511000   -1.621000 H         1 <1>         0.305400 
     41 Cl         -3.946000    0.467000   -0.027000 Cl        1 <1>         0.086500 
@<TRIPOS>BOND
     1    2    1 1    
     2    1    3 ar   
     3    3    4 ar   
     4    4    5 1    
     5    4    6 ar   
     6    6    7 ar   
     7    7    8 ar   
     8    8    9 1    
     9    8    1 ar   
    10    7   10 1    
    11   10   11 am   
    12   11   12 1    
    13   12   13 1    
    14   12   14 1    
    15   12   15 1    
    16   15   16 2    
    17   16    6 1    
    18   16   17 1    
    19   17   18 ar   
    20   18   19 1    
    21   18   20 ar   
    22   20   21 1    
    23   20   22 ar   
    24   22   23 1    
    25   22   24 ar   
    26   24   25 1    
    27   24   26 ar   
    28   26   17 ar   
    29   26   27 1    
    30   11   28 2    
    31   10   29 1    
    32   29   30 1    
    33   29   31 1    
    34   29   32 1    
    35   32   33 1    
    36   32   34 1    
    37   34   35 1    
    38   32   36 1    
    39   36   37 1    
    40   36   38 1    
    41   36   39 1    
    42   39   40 1    
    43    3   41 1    
@<TRIPOS>SUBSTRUCTURE
     1 ****        2 TEMP              0 ****  ****    0 ROOT 
@<TRIPOS>SET
UNITY_3DHIT     STATIC     ATOMS    <user>   **** Atoms matching 3D or FLEX Search
0
@<TRIPOS>UNITY_BOND_ATTR
16 1
S I
