#	Name:			Ro11-1465
#	Creating user name:	jeff
#	Creation time:		Tue Nov  4 15:19:57 2003

#	Modifying user name:	jeff
#	Modification time:	Tue Nov  4 15:19:57 2003

@<TRIPOS>MOLECULE
Ro11-1465
   32    35     1     0     1
SMALL
USER_CHARGES
****
From 3DB ct
@<TRIPOS>ATOM
      1 C           0.087000    1.992000    0.214000 C.ar      1 <1>        -0.150300 
      2 C           0.060000    0.602000    0.202000 C.ar      1 <1>         0.343900 
      3 C           1.234000   -0.281000    0.174000 C.2       1 <1>        -0.080900 
      4 N           2.357000   -0.048000    0.765000 N.2       1 <1>        -0.379400 
      5 C           2.498000    1.096000    1.660000 C.3       1 <1>         0.231600 
      6 H           3.485000    1.029000    2.132000 H         1 <1>         0.036300 
      7 H           1.772000    1.040000    2.481000 H         1 <1>         0.001300 
      8 C           2.396000    2.394000    0.950000 C.ar      1 <1>         0.186200 
      9 N           1.221000    2.803000    0.343000 N.pl3     1 <1>        -0.252100 
     10 C           1.491000    4.117000   -0.032000 C.ar      1 <1>         0.376500 
     11 N           2.732000    4.429000    0.300000 N.ar      1 <1>        -0.238400 
     12 N           3.299000    3.352000    0.911000 N.ar      1 <1>        -0.228900 
     13 C           0.583000    5.022000   -0.780000 C.3       1 <1>        -0.370400 
     14 H           1.140000    5.894000   -1.141000 H         1 <1>         0.122400 
     15 H          -0.218000    5.395000   -0.136000 H         1 <1>         0.116100 
     16 H           0.157000    4.528000   -1.658000 H         1 <1>         0.134900 
     17 C           1.117000   -1.515000   -0.639000 C.ar      1 <1>         0.443400 
     18 C           1.684000   -2.696000   -0.137000 C.ar      1 <1>        -0.351400 
     19 H           2.195000   -2.702000    0.824000 H         1 <1>         0.189700 
     20 C           1.586000   -3.878000   -0.871000 C.ar      1 <1>         0.032200 
     21 H           2.024000   -4.797000   -0.484000 H         1 <1>         0.092400 
     22 C           0.925000   -3.883000   -2.099000 C.ar      1 <1>        -0.182800 
     23 H           0.850000   -4.807000   -2.671000 H         1 <1>         0.122800 
     24 C           0.361000   -2.707000   -2.599000 C.ar      1 <1>         0.116400 
     25 H          -0.146000   -2.727000   -3.561000 H         1 <1>         0.068400 
     26 C           0.454000   -1.518000   -1.870000 C.ar      1 <1>        -0.451800 
     27 Cl         -0.226000   -0.087000   -2.559000 Cl        1 <1>         0.080300 
     28 C          -1.310000    0.147000    0.118000 C.ar      1 <1>        -0.149000 
     29 H          -1.617000   -0.893000    0.090000 H         1 <1>         0.153900 
     30 C          -2.199000    1.187000    0.061000 C.ar      1 <1>        -0.478700 
     31 S          -1.453000    2.698000    0.094000 S.3       1 <1>         0.295300 
     32 Cl         -3.908000    1.077000   -0.050000 Cl        1 <1>         0.170200 
@<TRIPOS>BOND
     1    1    2 ar   
     2    2    3 1    
     3    3    4 2    
     4    4    5 1    
     5    5    6 1    
     6    5    7 1    
     7    5    8 1    
     8    8    9 ar   
     9    9    1 1    
    10    9   10 ar   
    11   10   11 ar   
    12   11   12 ar   
    13   12    8 ar   
    14   10   13 1    
    15   13   14 1    
    16   13   15 1    
    17   13   16 1    
    18    3   17 1    
    19   17   18 ar   
    20   18   19 1    
    21   18   20 ar   
    22   20   21 1    
    23   20   22 ar   
    24   22   23 1    
    25   22   24 ar   
    26   24   25 1    
    27   24   26 ar   
    28   26   17 ar   
    29   26   27 1    
    30    2   28 ar   
    31   28   29 1    
    32   28   30 ar   
    33   30   31 ar   
    34   31    1 ar   
    35   30   32 1    
@<TRIPOS>SUBSTRUCTURE
     1 ****        1 TEMP              0 ****  ****    0 ROOT 
@<TRIPOS>SET
UNITY_3DHIT     STATIC     ATOMS    <user>   **** Atoms matching 3D or FLEX Search
0
@<TRIPOS>UNITY_BOND_ATTR
3 1
S I
