#	Name:			Ro11-5073
#	Creating user name:	jeff
#	Creation time:		Tue Nov  4 15:19:56 2003

#	Modifying user name:	jeff
#	Modification time:	Tue Nov  4 15:19:56 2003

@<TRIPOS>MOLECULE
Ro11-5073
   38    41     1     0     1
SMALL
USER_CHARGES
****
From 3DB ct
@<TRIPOS>ATOM
      1 C           0.262000    2.167000    0.031000 C.ar      1 <1>         0.197500 
      2 C           0.044000    0.781000    0.170000 C.ar      1 <1>        -0.064000 
      3 C           1.155000   -0.229000    0.224000 C.2       1 <1>         0.275200 
      4 N           2.213000   -0.136000    0.963000 N.2       1 <1>        -0.423100 
      5 C           2.392000    1.048000    1.805000 C.3       1 <1>         0.282700 
      6 H           1.528000    1.189000    2.468000 H         1 <1>         0.000400 
      7 C           2.580000    2.243000    0.931000 C.ar      1 <1>         0.230700 
      8 N           1.566000    2.719000    0.121000 N.pl3     1 <1>        -0.400100 
      9 C           2.111000    3.842000   -0.487000 C.ar      1 <1>         0.411200 
     10 N           3.341000    4.029000   -0.042000 N.ar      1 <1>        -0.288500 
     11 N           3.636000    3.030000    0.840000 N.ar      1 <1>        -0.195700 
     12 C           1.474000    4.650000   -1.557000 C.3       1 <1>        -0.303000 
     13 H           0.869000    4.034000   -2.229000 H         1 <1>         0.106300 
     14 H           2.245000    5.133000   -2.167000 H         1 <1>         0.106600 
     15 H           0.853000    5.441000   -1.128000 H         1 <1>         0.092600 
     16 C           3.609000    0.795000    2.694000 C.3       1 <1>        -0.238500 
     17 H           3.800000    1.648000    3.354000 H         1 <1>         0.047300 
     18 H           4.513000    0.620000    2.099000 H         1 <1>         0.072600 
     19 H           3.451000   -0.090000    3.320000 H         1 <1>         0.085700 
     20 C           1.047000   -1.441000   -0.642000 C.ar      1 <1>        -0.134200 
     21 C           1.490000   -2.676000   -0.152000 C.ar      1 <1>        -0.053500 
     22 H           1.897000   -2.757000    0.854000 H         1 <1>         0.131000 
     23 C           1.399000   -3.817000   -0.953000 C.ar      1 <1>        -0.144500 
     24 H           1.737000   -4.778000   -0.569000 H         1 <1>         0.117900 
     25 C           0.880000   -3.727000   -2.246000 C.ar      1 <1>        -0.025700 
     26 H           0.813000   -4.618000   -2.868000 H         1 <1>         0.110800 
     27 C           0.455000   -2.495000   -2.743000 C.ar      1 <1>        -0.261700 
     28 H           0.060000   -2.416000   -3.753000 H         1 <1>         0.155800 
     29 C           0.544000   -1.359000   -1.944000 C.ar      1 <1>         0.333200 
     30 F           0.158000   -0.182000   -2.460000 F         1 <1>        -0.240600 
     31 C          -1.272000    0.283000    0.181000 C.ar      1 <1>         0.133400 
     32 H          -1.461000   -0.780000    0.310000 H         1 <1>         0.065800 
     33 C          -2.351000    1.148000    0.019000 C.ar      1 <1>        -0.424200 
     34 C          -2.140000    2.512000   -0.146000 C.ar      1 <1>         0.188100 
     35 H          -2.981000    3.192000   -0.263000 H         1 <1>         0.064400 
     36 C          -0.839000    3.023000   -0.135000 C.ar      1 <1>        -0.245100 
     37 H          -0.728000    4.102000   -0.199000 H         1 <1>         0.141700 
     38 Cl         -3.955000    0.524000    0.022000 Cl        1 <1>         0.091600 
@<TRIPOS>BOND
     1    1    2 ar   
     2    2    3 1    
     3    3    4 2    
     4    4    5 1    
     5    5    6 1    
     6    5    7 1    
     7    7    8 ar   
     8    8    1 1    
     9    8    9 ar   
    10    9   10 ar   
    11   10   11 ar   
    12   11    7 ar   
    13    9   12 1    
    14   12   13 1    
    15   12   14 1    
    16   12   15 1    
    17    5   16 1    
    18   16   17 1    
    19   16   18 1    
    20   16   19 1    
    21    3   20 1    
    22   20   21 ar   
    23   21   22 1    
    24   21   23 ar   
    25   23   24 1    
    26   23   25 ar   
    27   25   26 1    
    28   25   27 ar   
    29   27   28 1    
    30   27   29 ar   
    31   29   20 ar   
    32   29   30 1    
    33    2   31 ar   
    34   31   32 1    
    35   31   33 ar   
    36   33   34 ar   
    37   34   35 1    
    38   34   36 ar   
    39   36   37 1    
    40   36    1 ar   
    41   33   38 1    
@<TRIPOS>SUBSTRUCTURE
     1 ****        1 TEMP              0 ****  ****    0 ROOT 
@<TRIPOS>SET
UNITY_3DHIT     STATIC     ATOMS    <user>   **** Atoms matching 3D or FLEX Search
0
@<TRIPOS>UNITY_BOND_ATTR
3 1
S I
