#	Name:			Ro11-6679
#	Creating user name:	jeff
#	Creation time:		Tue Nov  4 15:19:56 2003

#	Modifying user name:	jeff
#	Modification time:	Tue Nov  4 15:19:56 2003

@<TRIPOS>MOLECULE
Ro11-6679
   40    43     1     0     1
SMALL
USER_CHARGES
****
From 3DB ct
@<TRIPOS>ATOM
      1 C           0.262000    2.165000    0.025000 C.ar      1 <1>         0.118400 
      2 C           0.040000    0.778000    0.169000 C.ar      1 <1>         0.028300 
      3 C           1.152000   -0.232000    0.225000 C.2       1 <1>         0.340900 
      4 N           2.207000   -0.140000    0.968000 N.2       1 <1>        -0.407300 
      5 C           2.386000    1.046000    1.808000 C.3       1 <1>         0.241800 
      6 H           1.521000    1.190000    2.468000 H         1 <1>         0.018400 
      7 C           2.579000    2.239000    0.931000 C.ar      1 <1>         0.230200 
      8 N           1.569000    2.713000    0.116000 N.pl3     1 <1>        -0.380300 
      9 C           2.118000    3.832000   -0.495000 C.ar      1 <1>         0.406900 
     10 N           3.347000    4.018000   -0.047000 N.ar      1 <1>        -0.280200 
     11 N           3.636000    3.022000    0.840000 N.ar      1 <1>        -0.186500 
     12 C           1.487000    4.637000   -1.571000 C.3       1 <1>        -0.310500 
     13 H           0.880000    4.019000   -2.241000 H         1 <1>         0.111600 
     14 H           2.261000    5.112000   -2.183000 H         1 <1>         0.110700 
     15 H           0.868000    5.433000   -1.148000 H         1 <1>         0.094500 
     16 C           3.600000    0.793000    2.700000 C.3       1 <1>        -0.257300 
     17 H           3.790000    1.647000    3.360000 H         1 <1>         0.056300 
     18 H           4.505000    0.615000    2.109000 H         1 <1>         0.080900 
     19 H           3.439000   -0.090000    3.328000 H         1 <1>         0.092400 
     20 C           1.048000   -1.444000   -0.642000 C.ar      1 <1>        -0.248800 
     21 C           1.493000   -2.678000   -0.153000 C.ar      1 <1>        -0.019400 
     22 H           1.898000   -2.760000    0.854000 H         1 <1>         0.124700 
     23 C           1.408000   -3.818000   -0.956000 C.ar      1 <1>        -0.145200 
     24 H           1.748000   -4.779000   -0.573000 H         1 <1>         0.119400 
     25 C           0.892000   -3.728000   -2.250000 C.ar      1 <1>        -0.019700 
     26 H           0.829000   -4.617000   -2.874000 H         1 <1>         0.113200 
     27 C           0.464000   -2.496000   -2.747000 C.ar      1 <1>        -0.271300 
     28 H           0.072000   -2.416000   -3.757000 H         1 <1>         0.158700 
     29 C           0.548000   -1.361000   -1.944000 C.ar      1 <1>         0.391700 
     30 F           0.158000   -0.184000   -2.459000 F         1 <1>        -0.255500 
     31 C          -1.277000    0.282000    0.183000 C.ar      1 <1>        -0.208700 
     32 H          -1.455000   -0.783000    0.319000 H         1 <1>         0.190300 
     33 C          -2.360000    1.155000    0.020000 C.ar      1 <1>         0.085300 
     34 C          -2.141000    2.525000   -0.151000 C.ar      1 <1>        -0.128200 
     35 H          -2.970000    3.220000   -0.270000 H         1 <1>         0.171600 
     36 C          -0.835000    3.026000   -0.142000 C.ar      1 <1>        -0.105400 
     37 H          -0.717000    4.105000   -0.209000 H         1 <1>         0.130800 
     38 N          -3.732000    0.630000    0.028000 N.2       1 <1>         0.531000 
     39 O          -4.674000    1.435000   -0.097000 O.2       1 <1>        -0.363200 
     40 O          -3.893000   -0.597000    0.161000 O.3       1 <1>        -0.360500 
@<TRIPOS>BOND
     1    1    2 ar   
     2    2    3 1    
     3    3    4 2    
     4    4    5 1    
     5    5    6 1    
     6    5    7 1    
     7    7    8 ar   
     8    8    1 1    
     9    8    9 ar   
    10    9   10 ar   
    11   10   11 ar   
    12   11    7 ar   
    13    9   12 1    
    14   12   13 1    
    15   12   14 1    
    16   12   15 1    
    17    5   16 1    
    18   16   17 1    
    19   16   18 1    
    20   16   19 1    
    21    3   20 1    
    22   20   21 ar   
    23   21   22 1    
    24   21   23 ar   
    25   23   24 1    
    26   23   25 ar   
    27   25   26 1    
    28   25   27 ar   
    29   27   28 1    
    30   27   29 ar   
    31   29   20 ar   
    32   29   30 1    
    33    2   31 ar   
    34   31   32 1    
    35   31   33 ar   
    36   33   34 ar   
    37   34   35 1    
    38   34   36 ar   
    39   36   37 1    
    40   36    1 ar   
    41   33   38 1    
    42   38   39 2    
    43   38   40 1    
@<TRIPOS>SUBSTRUCTURE
     1 ****        1 TEMP              0 ****  ****    0 ROOT 
@<TRIPOS>SET
UNITY_3DHIT     STATIC     ATOMS    <user>   **** Atoms matching 3D or FLEX Search
0
@<TRIPOS>UNITY_ATOM_ATTR
38 1
AtomExpr +1
40 1
AtomExpr -1
@<TRIPOS>UNITY_BOND_ATTR
3 1
S I
