#	Name:			Ro11-6896
#	Creating user name:	jeff
#	Creation time:		Tue Nov  4 15:19:54 2003

#	Modifying user name:	jeff
#	Modification time:	Tue Nov  4 15:19:54 2003

@<TRIPOS>MOLECULE
Ro11-6896
   38    40     1     0     1
SMALL
USER_CHARGES
****
From 3DB ct
@<TRIPOS>ATOM
      1 C          -2.136000    2.518000   -0.145000 C.ar      1 <1>        -0.143600 
      2 H          -2.957000    3.219000   -0.280000 H         1 <1>         0.173400 
      3 C          -2.365000    1.155000    0.040000 C.ar      1 <1>         0.084400 
      4 C          -1.288000    0.279000    0.203000 C.ar      1 <1>        -0.214500 
      5 H          -1.467000   -0.785000    0.342000 H         1 <1>         0.185900 
      6 C           0.033000    0.774000    0.182000 C.ar      1 <1>         0.027300 
      7 C           0.284000    2.157000    0.049000 C.ar      1 <1>         0.097000 
      8 C          -0.824000    3.007000   -0.142000 C.ar      1 <1>        -0.113700 
      9 H          -0.699000    4.082000   -0.252000 H         1 <1>         0.127100 
     10 N           1.598000    2.729000    0.096000 N.am      1 <1>        -0.307800 
     11 C           2.641000    2.235000    0.889000 C.2       1 <1>         0.434000 
     12 C           2.297000    1.063000    1.825000 C.3       1 <1>         0.251100 
     13 H           1.383000    1.281000    2.390000 H         1 <1>         0.002100 
     14 N           2.172000   -0.144000    1.000000 N.2       1 <1>        -0.431700 
     15 C           1.134000   -0.236000    0.234000 C.2       1 <1>         0.309600 
     16 C           1.042000   -1.442000   -0.642000 C.ar      1 <1>        -0.189300 
     17 C           1.491000   -2.677000   -0.158000 C.ar      1 <1>        -0.036900 
     18 H           1.892000   -2.763000    0.850000 H         1 <1>         0.129800 
     19 C           1.419000   -3.813000   -0.969000 C.ar      1 <1>        -0.139900 
     20 H           1.762000   -4.774000   -0.588000 H         1 <1>         0.117700 
     21 C           0.909000   -3.718000   -2.265000 C.ar      1 <1>        -0.037100 
     22 H           0.855000   -4.605000   -2.894000 H         1 <1>         0.113000 
     23 C           0.476000   -2.487000   -2.756000 C.ar      1 <1>        -0.229100 
     24 H           0.089000   -2.404000   -3.768000 H         1 <1>         0.148900 
     25 C           0.548000   -1.356000   -1.947000 C.ar      1 <1>         0.333900 
     26 F           0.153000   -0.180000   -2.458000 F         1 <1>        -0.242100 
     27 C           3.411000    0.809000    2.836000 C.3       1 <1>        -0.265800 
     28 H           3.580000    1.693000    3.460000 H         1 <1>         0.057800 
     29 H           4.357000    0.563000    2.340000 H         1 <1>         0.086300 
     30 H           3.154000   -0.030000    3.491000 H         1 <1>         0.088000 
     31 O           3.772000    2.739000    0.873000 O.2       1 <1>        -0.372900 
     32 C           1.846000    3.959000   -0.656000 C.3       1 <1>        -0.045800 
     33 H           2.913000    4.088000   -0.860000 H         1 <1>         0.087400 
     34 H           1.508000    4.814000   -0.062000 H         1 <1>         0.045100 
     35 H           1.326000    3.929000   -1.619000 H         1 <1>         0.072900 
     36 N          -3.740000    0.638000    0.053000 N.2       1 <1>         0.534300 
     37 O          -3.906000   -0.593000    0.138000 O.2       1 <1>        -0.367500 
     38 O          -4.678000    1.453000   -0.022000 O.3       1 <1>        -0.369100 
@<TRIPOS>BOND
     1    2    1 1    
     2    1    3 ar   
     3    3    4 ar   
     4    4    5 1    
     5    4    6 ar   
     6    6    7 ar   
     7    7    8 ar   
     8    8    9 1    
     9    8    1 ar   
    10    7   10 1    
    11   10   11 am   
    12   11   12 1    
    13   12   13 1    
    14   12   14 1    
    15   14   15 2    
    16   15    6 1    
    17   15   16 1    
    18   16   17 ar   
    19   17   18 1    
    20   17   19 ar   
    21   19   20 1    
    22   19   21 ar   
    23   21   22 1    
    24   21   23 ar   
    25   23   24 1    
    26   23   25 ar   
    27   25   16 ar   
    28   25   26 1    
    29   12   27 1    
    30   27   28 1    
    31   27   29 1    
    32   27   30 1    
    33   11   31 2    
    34   10   32 1    
    35   32   33 1    
    36   32   34 1    
    37   32   35 1    
    38    3   36 1    
    39   36   37 2    
    40   36   38 1    
@<TRIPOS>SUBSTRUCTURE
     1 ****        2 TEMP              0 ****  ****    0 ROOT 
@<TRIPOS>SET
UNITY_3DHIT     STATIC     ATOMS    <user>   **** Atoms matching 3D or FLEX Search
0
@<TRIPOS>UNITY_ATOM_ATTR
36 1
AtomExpr +1
38 1
AtomExpr -1
@<TRIPOS>UNITY_BOND_ATTR
15 1
S I
