#	Name:			Ro11-8125
#	Creating user name:	jeff
#	Creation time:		Tue Nov  4 15:19:55 2003

#	Modifying user name:	jeff
#	Modification time:	Tue Nov  4 15:19:55 2003

@<TRIPOS>MOLECULE
Ro11-8125
   27    29     1     0     1
SMALL
USER_CHARGES
****
From 3DB ct
@<TRIPOS>ATOM
      1 C           0.268000    2.016000    0.241000 C.ar      1 <1>        -0.047500 
      2 C           0.127000    0.646000    0.166000 C.ar      1 <1>         0.189200 
      3 C           1.242000   -0.301000    0.172000 C.2       1 <1>         0.116200 
      4 N           2.362000   -0.118000    0.786000 N.2       1 <1>        -0.438200 
      5 C           2.512000    1.022000    1.694000 C.3       1 <1>         0.212500 
      6 H           3.464000    0.909000    2.224000 H         1 <1>         0.024000 
      7 H           1.732000    1.030000    2.465000 H         1 <1>        -0.004200 
      8 C           2.545000    2.359000    0.965000 C.2       1 <1>         0.474700 
      9 N           1.366000    2.812000    0.434000 N.am      1 <1>        -0.509500 
     10 H           1.304000    3.791000    0.175000 H         1 <1>         0.353500 
     11 O           3.561000    3.062000    0.933000 O.2       1 <1>        -0.414500 
     12 C           1.080000   -1.532000   -0.636000 C.ar      1 <1>         0.322500 
     13 C           1.576000   -2.736000   -0.117000 C.ar      1 <1>        -0.298900 
     14 H           2.069000   -2.761000    0.853000 H         1 <1>         0.169700 
     15 C           1.433000   -3.916000   -0.847000 C.ar      1 <1>         0.019200 
     16 H           1.817000   -4.854000   -0.448000 H         1 <1>         0.090600 
     17 C           0.795000   -3.896000   -2.087000 C.ar      1 <1>        -0.178000 
     18 H           0.684000   -4.817000   -2.656000 H         1 <1>         0.118600 
     19 C           0.300000   -2.695000   -2.603000 C.ar      1 <1>         0.116700 
     20 H          -0.190000   -2.696000   -3.575000 H         1 <1>         0.062000 
     21 C           0.439000   -1.508000   -1.879000 C.ar      1 <1>        -0.415800 
     22 Cl         -0.159000   -0.049000   -2.585000 Cl        1 <1>         0.079900 
     23 C          -1.263000    0.317000   -0.029000 C.ar      1 <1>        -0.366200 
     24 H          -1.654000   -0.692000   -0.115000 H         1 <1>         0.210700 
     25 C          -2.072000    1.429000   -0.131000 C.ar      1 <1>        -0.244300 
     26 H          -3.143000    1.456000   -0.289000 H         1 <1>         0.193700 
     27 S          -1.171000    2.875000   -0.023000 S.3       1 <1>         0.163200 
@<TRIPOS>BOND
     1    1    2 ar   
     2    2    3 1    
     3    3    4 2    
     4    4    5 1    
     5    5    6 1    
     6    5    7 1    
     7    5    8 1    
     8    8    9 am   
     9    9   10 1    
    10    9    1 1    
    11    8   11 2    
    12    3   12 1    
    13   12   13 ar   
    14   13   14 1    
    15   13   15 ar   
    16   15   16 1    
    17   15   17 ar   
    18   17   18 1    
    19   17   19 ar   
    20   19   20 1    
    21   19   21 ar   
    22   21   12 ar   
    23   21   22 1    
    24    2   23 ar   
    25   23   24 1    
    26   23   25 ar   
    27   25   26 1    
    28   25   27 ar   
    29   27    1 ar   
@<TRIPOS>SUBSTRUCTURE
     1 ****        1 TEMP              0 ****  ****    0 ROOT 
@<TRIPOS>SET
UNITY_3DHIT     STATIC     ATOMS    <user>   **** Atoms matching 3D or FLEX Search
0
@<TRIPOS>UNITY_BOND_ATTR
3 1
S I
