#	Name:			Ro11-4878
#	Creating user name:	jeff
#	Creation time:		Tue Nov  4 15:19:54 2003

#	Modifying user name:	jeff
#	Modification time:	Tue Nov  4 15:19:54 2003

@<TRIPOS>MOLECULE
Ro11-4878
   33    35     1     0     1
SMALL
USER_CHARGES
****
From 3DB ct
@<TRIPOS>ATOM
      1 C          -2.107000    2.504000   -0.180000 C.ar      1 <1>         0.247900 
      2 H          -2.933000    3.192000   -0.347000 H         1 <1>         0.057500 
      3 C          -2.339000    1.144000   -0.008000 C.ar      1 <1>        -0.495300 
      4 C          -1.274000    0.267000    0.185000 C.ar      1 <1>         0.223800 
      5 H          -1.475000   -0.796000    0.293000 H         1 <1>         0.052800 
      6 C           0.045000    0.754000    0.216000 C.ar      1 <1>        -0.277000 
      7 C           0.280000    2.136000    0.117000 C.ar      1 <1>         0.450700 
      8 C          -0.801000    2.996000   -0.123000 C.ar      1 <1>        -0.380300 
      9 H          -0.644000    4.068000   -0.234000 H         1 <1>         0.157900 
     10 N           1.541000    2.745000    0.231000 N.am      1 <1>        -0.700200 
     11 H           1.651000    3.682000   -0.149000 H         1 <1>         0.356000 
     12 C           2.637000    2.272000    0.908000 C.2       1 <1>         0.510400 
     13 C           2.426000    1.028000    1.783000 C.3       1 <1>         0.328800 
     14 H           1.561000    1.181000    2.440000 H         1 <1>        -0.016200 
     15 N           2.248000   -0.144000    0.920000 N.2       1 <1>        -0.483500 
     16 C           1.162000   -0.244000    0.225000 C.2       1 <1>         0.364500 
     17 C           1.037000   -1.454000   -0.642000 C.ar      1 <1>        -0.148000 
     18 C           1.473000   -2.692000   -0.153000 C.ar      1 <1>        -0.051800 
     19 H           1.886000   -2.776000    0.850000 H         1 <1>         0.129800 
     20 C           1.369000   -3.833000   -0.954000 C.ar      1 <1>        -0.142400 
     21 H           1.701000   -4.796000   -0.571000 H         1 <1>         0.115400 
     22 C           0.842000   -3.739000   -2.243000 C.ar      1 <1>        -0.031300 
     23 H           0.763000   -4.629000   -2.865000 H         1 <1>         0.110900 
     24 C           0.423000   -2.504000   -2.738000 C.ar      1 <1>        -0.261000 
     25 H           0.023000   -2.422000   -3.745000 H         1 <1>         0.155200 
     26 C           0.527000   -1.368000   -1.939000 C.ar      1 <1>         0.343300 
     27 F           0.145000   -0.188000   -2.453000 F         1 <1>        -0.241600 
     28 C           3.640000    0.761000    2.666000 C.3       1 <1>        -0.279600 
     29 H           3.838000    1.611000    3.327000 H         1 <1>         0.053200 
     30 H           4.541000    0.585000    2.067000 H         1 <1>         0.086200 
     31 H           3.479000   -0.126000    3.288000 H         1 <1>         0.088400 
     32 O           3.707000    2.887000    0.848000 O.2       1 <1>        -0.412500 
     33 Cl         -3.948000    0.537000   -0.062000 Cl        1 <1>         0.087800 
@<TRIPOS>BOND
     1    2    1 1    
     2    1    3 ar   
     3    3    4 ar   
     4    4    5 1    
     5    4    6 ar   
     6    6    7 ar   
     7    7    8 ar   
     8    8    9 1    
     9    8    1 ar   
    10    7   10 1    
    11   10   11 1    
    12   10   12 am   
    13   12   13 1    
    14   13   14 1    
    15   13   15 1    
    16   15   16 2    
    17   16    6 1    
    18   16   17 1    
    19   17   18 ar   
    20   18   19 1    
    21   18   20 ar   
    22   20   21 1    
    23   20   22 ar   
    24   22   23 1    
    25   22   24 ar   
    26   24   25 1    
    27   24   26 ar   
    28   26   17 ar   
    29   26   27 1    
    30   13   28 1    
    31   28   29 1    
    32   28   30 1    
    33   28   31 1    
    34   12   32 2    
    35    3   33 1    
@<TRIPOS>SUBSTRUCTURE
     1 ****        2 TEMP              0 ****  ****    0 ROOT 
@<TRIPOS>SET
UNITY_3DHIT     STATIC     ATOMS    <user>   **** Atoms matching 3D or FLEX Search
0
@<TRIPOS>UNITY_BOND_ATTR
16 1
S I
