#	Name:			Ro11-7800
#	Creating user name:	jeff
#	Creation time:		Tue Nov  4 15:19:57 2003

#	Modifying user name:	jeff
#	Modification time:	Tue Nov  4 15:19:57 2003

@<TRIPOS>MOLECULE
Ro11-7800
   34    37     1     0     1
SMALL
USER_CHARGES
****
From 3DB ct
@<TRIPOS>ATOM
      1 C           0.088000    1.992000    0.207000 C.ar      1 <1>        -0.120700 
      2 C           0.059000    0.602000    0.200000 C.ar      1 <1>         0.355100 
      3 C           1.233000   -0.282000    0.175000 C.2       1 <1>        -0.076700 
      4 N           2.353000   -0.050000    0.770000 N.2       1 <1>        -0.383100 
      5 C           2.489000    1.095000    1.665000 C.3       1 <1>         0.216500 
      6 H           3.473000    1.028000    2.144000 H         1 <1>         0.039800 
      7 H           1.757000    1.041000    2.482000 H         1 <1>         0.004700 
      8 C           2.394000    2.392000    0.952000 C.ar      1 <1>         0.251400 
      9 N           1.225000    2.802000    0.332000 N.pl3     1 <1>        -0.329400 
     10 C           1.503000    4.113000   -0.055000 C.ar      1 <1>         0.284700 
     11 N           2.742000    4.423000    0.298000 N.ar      1 <1>        -0.213000 
     12 N           3.299000    3.348000    0.921000 N.ar      1 <1>        -0.255900 
     13 C           0.585000    5.003000   -0.831000 C.3       1 <1>         0.055100 
     14 H          -0.312000    5.217000   -0.243000 H         1 <1>         0.081200 
     15 H           0.289000    4.525000   -1.770000 H         1 <1>         0.090300 
     16 N           1.212000    6.293000   -1.172000 N.3       1 <1>        -0.591800 
     17 H           2.080000    6.082000   -1.677000 H         1 <1>         0.239000 
     18 H           1.554000    6.699000   -0.293000 H         1 <1>         0.223600 
     19 C           1.118000   -1.516000   -0.639000 C.ar      1 <1>         0.442000 
     20 C           1.681000   -2.697000   -0.136000 C.ar      1 <1>        -0.349700 
     21 H           2.189000   -2.705000    0.827000 H         1 <1>         0.189900 
     22 C           1.584000   -3.879000   -0.870000 C.ar      1 <1>         0.031100 
     23 H           2.020000   -4.798000   -0.482000 H         1 <1>         0.092900 
     24 C           0.927000   -3.884000   -2.101000 C.ar      1 <1>        -0.182100 
     25 H           0.853000   -4.807000   -2.674000 H         1 <1>         0.123000 
     26 C           0.366000   -2.706000   -2.602000 C.ar      1 <1>         0.120000 
     27 H          -0.137000   -2.726000   -3.567000 H         1 <1>         0.068300 
     28 C           0.458000   -1.518000   -1.873000 C.ar      1 <1>        -0.455700 
     29 Cl         -0.216000   -0.085000   -2.565000 Cl        1 <1>         0.080900 
     30 C          -1.311000    0.148000    0.120000 C.ar      1 <1>        -0.175700 
     31 H          -1.618000   -0.892000    0.095000 H         1 <1>         0.159300 
     32 C          -2.199000    1.189000    0.065000 C.ar      1 <1>        -0.452900 
     33 S          -1.451000    2.700000    0.095000 S.3       1 <1>         0.267000 
     34 Cl         -3.908000    1.081000   -0.041000 Cl        1 <1>         0.171200 
@<TRIPOS>BOND
     1    1    2 ar   
     2    2    3 1    
     3    3    4 2    
     4    4    5 1    
     5    5    6 1    
     6    5    7 1    
     7    5    8 1    
     8    8    9 ar   
     9    9    1 1    
    10    9   10 ar   
    11   10   11 ar   
    12   11   12 ar   
    13   12    8 ar   
    14   10   13 1    
    15   13   14 1    
    16   13   15 1    
    17   13   16 1    
    18   16   17 1    
    19   16   18 1    
    20    3   19 1    
    21   19   20 ar   
    22   20   21 1    
    23   20   22 ar   
    24   22   23 1    
    25   22   24 ar   
    26   24   25 1    
    27   24   26 ar   
    28   26   27 1    
    29   26   28 ar   
    30   28   19 ar   
    31   28   29 1    
    32    2   30 ar   
    33   30   31 1    
    34   30   32 ar   
    35   32   33 ar   
    36   33    1 ar   
    37   32   34 1    
@<TRIPOS>SUBSTRUCTURE
     1 ****        1 TEMP              0 ****  ****    0 ROOT 
@<TRIPOS>SET
UNITY_3DHIT     STATIC     ATOMS    <user>   **** Atoms matching 3D or FLEX Search
0
@<TRIPOS>UNITY_BOND_ATTR
3 1
S I
