#	Name:			Ro12-6377
#	Creating user name:	jeff
#	Creation time:		Tue Nov  4 15:19:51 2003

#	Modifying user name:	jeff
#	Modification time:	Tue Nov  4 15:19:51 2003

@<TRIPOS>MOLECULE
Ro12-6377
   42    44     1     0     1
SMALL
USER_CHARGES
****
From 3DB ct
@<TRIPOS>ATOM
      1 C          -2.133000    2.477000   -0.175000 C.ar      1 <1>        -0.355200 
      2 H          -2.942000    3.186000   -0.322000 H         1 <1>         0.161300 
      3 C          -2.369000    1.119000    0.004000 C.ar      1 <1>         0.531300 
      4 C          -1.271000    0.273000    0.180000 C.ar      1 <1>        -0.395500 
      5 H          -1.441000   -0.795000    0.313000 H         1 <1>         0.207800 
      6 C           0.050000    0.771000    0.182000 C.ar      1 <1>         0.090900 
      7 C           0.291000    2.153000    0.051000 C.ar      1 <1>        -0.056600 
      8 C          -0.825000    2.983000   -0.154000 C.ar      1 <1>        -0.020600 
      9 H          -0.715000    4.060000   -0.265000 H         1 <1>         0.110000 
     10 N           1.597000    2.743000    0.107000 N.am      1 <1>        -0.213800 
     11 C           2.644000    2.245000    0.887000 C.2       1 <1>         0.412400 
     12 C           2.320000    1.074000    1.806000 C.3       1 <1>         0.054000 
     13 H           3.154000    0.947000    2.504000 H         1 <1>         0.067600 
     14 H           1.431000    1.273000    2.416000 H         1 <1>         0.029400 
     15 N           2.205000   -0.136000    0.992000 N.2       1 <1>        -0.412400 
     16 C           1.152000   -0.239000    0.247000 C.2       1 <1>         0.375100 
     17 C           1.046000   -1.445000   -0.624000 C.ar      1 <1>        -0.239600 
     18 C           1.423000   -2.702000   -0.133000 C.ar      1 <1>        -0.034700 
     19 H           1.793000   -2.820000    0.883000 H         1 <1>         0.126800 
     20 C           1.309000   -3.829000   -0.951000 C.ar      1 <1>        -0.126700 
     21 H           1.601000   -4.807000   -0.571000 H         1 <1>         0.110200 
     22 C           0.819000   -3.706000   -2.252000 C.ar      1 <1>        -0.046600 
     23 H           0.732000   -4.587000   -2.886000 H         1 <1>         0.109100 
     24 C           0.439000   -2.455000   -2.740000 C.ar      1 <1>        -0.233800 
     25 H           0.059000   -2.352000   -3.753000 H         1 <1>         0.143800 
     26 C           0.551000   -1.331000   -1.924000 C.ar      1 <1>         0.367700 
     27 F           0.202000   -0.139000   -2.430000 F         1 <1>        -0.251400 
     28 O           3.778000    2.740000    0.884000 O.2       1 <1>        -0.395300 
     29 C           1.832000    3.986000   -0.625000 C.3       1 <1>        -0.078900 
     30 H           2.900000    4.142000   -0.806000 H         1 <1>         0.089600 
     31 H           1.464000    4.826000   -0.028000 H         1 <1>         0.044200 
     32 H           1.332000    3.955000   -1.598000 H         1 <1>         0.072400 
     33 N          -3.648000    0.526000    0.013000 N.am      1 <1>        -0.798000 
     34 H          -4.426000    1.159000   -0.124000 H         1 <1>         0.337200 
     35 C          -4.138000   -0.742000    0.164000 C.2       1 <1>         0.816200 
     36 O          -3.475000   -1.762000    0.346000 O.2       1 <1>        -0.477000 
     37 N          -5.502000   -0.761000    0.088000 N.am      1 <1>        -0.605700 
     38 H          -5.929000    0.147000   -0.065000 H         1 <1>         0.316700 
     39 C          -6.398000   -1.893000    0.196000 C.3       1 <1>        -0.013300 
     40 H          -7.424000   -1.536000    0.087000 H         1 <1>         0.066000 
     41 H          -6.271000   -2.362000    1.175000 H         1 <1>         0.057100 
     42 H          -6.169000   -2.612000   -0.594000 H         1 <1>         0.058300 
@<TRIPOS>BOND
     1    2    1 1    
     2    1    3 ar   
     3    3    4 ar   
     4    4    5 1    
     5    4    6 ar   
     6    6    7 ar   
     7    7    8 ar   
     8    8    9 1    
     9    8    1 ar   
    10    7   10 1    
    11   10   11 am   
    12   11   12 1    
    13   12   13 1    
    14   12   14 1    
    15   12   15 1    
    16   15   16 2    
    17   16    6 1    
    18   16   17 1    
    19   17   18 ar   
    20   18   19 1    
    21   18   20 ar   
    22   20   21 1    
    23   20   22 ar   
    24   22   23 1    
    25   22   24 ar   
    26   24   25 1    
    27   24   26 ar   
    28   26   17 ar   
    29   26   27 1    
    30   11   28 2    
    31   10   29 1    
    32   29   30 1    
    33   29   31 1    
    34   29   32 1    
    35    3   33 1    
    36   33   34 1    
    37   33   35 am   
    38   35   36 2    
    39   35   37 am   
    40   37   38 1    
    41   37   39 1    
    42   39   40 1    
    43   39   41 1    
    44   39   42 1    
@<TRIPOS>SUBSTRUCTURE
     1 ****        2 TEMP              0 ****  ****    0 ROOT 
@<TRIPOS>SET
UNITY_3DHIT     STATIC     ATOMS    <user>   **** Atoms matching 3D or FLEX Search
0
@<TRIPOS>UNITY_BOND_ATTR
16 1
S I
