#	Name:			Ro13-0882
#	Creating user name:	jeff
#	Creation time:		Tue Nov  4 15:19:52 2003

#	Modifying user name:	jeff
#	Modification time:	Tue Nov  4 15:19:53 2003

@<TRIPOS>MOLECULE
Ro13-0882
   33    35     1     0     1
SMALL
USER_CHARGES
****
From 3DB ct
@<TRIPOS>ATOM
      1 C          -2.123000    2.518000   -0.191000 C.ar      1 <1>        -0.587600 
      2 C          -2.400000    1.200000    0.138000 C.ar      1 <1>         0.500300 
      3 H          -3.430000    0.862000    0.217000 H         1 <1>         0.000700 
      4 C          -1.347000    0.314000    0.368000 C.ar      1 <1>        -0.773000 
      5 C          -0.006000    0.745000    0.261000 C.ar      1 <1>         0.797700 
      6 C           0.277000    2.108000    0.008000 C.ar      1 <1>        -0.325300 
      7 C          -0.805000    2.971000   -0.252000 C.ar      1 <1>         0.292400 
      8 H          -0.644000    4.026000   -0.460000 H         1 <1>         0.049700 
      9 N           1.606000    2.659000    0.026000 N.am      1 <1>        -0.237100 
     10 C           2.623000    2.211000    0.877000 C.2       1 <1>         0.507400 
     11 C           2.269000    1.088000    1.846000 C.3       1 <1>        -0.021500 
     12 H           3.095000    0.976000    2.558000 H         1 <1>         0.085900 
     13 H           1.377000    1.324000    2.435000 H         1 <1>         0.026100 
     14 N           2.152000   -0.147000    1.069000 N.2       1 <1>        -0.306200 
     15 C           1.105000   -0.259000    0.316000 C.2       1 <1>        -0.056800 
     16 C           1.045000   -1.435000   -0.604000 C.ar      1 <1>        -0.020400 
     17 C           1.465000   -2.697000   -0.161000 C.ar      1 <1>        -0.086400 
     18 H           1.836000   -2.847000    0.850000 H         1 <1>         0.137500 
     19 C           1.392000   -3.796000   -1.021000 C.ar      1 <1>        -0.131700 
     20 H           1.718000   -4.777000   -0.677000 H         1 <1>         0.117700 
     21 C           0.897000   -3.643000   -2.317000 C.ar      1 <1>        -0.036600 
     22 H           0.842000   -4.502000   -2.984000 H         1 <1>         0.114600 
     23 C           0.472000   -2.390000   -2.757000 C.ar      1 <1>        -0.283200 
     24 H           0.088000   -2.263000   -3.766000 H         1 <1>         0.165900 
     25 C           0.543000   -1.294000   -1.900000 C.ar      1 <1>         0.311600 
     26 F           0.150000   -0.098000   -2.365000 F         1 <1>        -0.239500 
     27 O           3.757000    2.709000    0.884000 O.2       1 <1>        -0.411200 
     28 C           1.890000    3.830000   -0.801000 C.3       1 <1>        -0.090100 
     29 H           2.962000    3.920000   -0.999000 H         1 <1>         0.097200 
     30 H           1.567000    4.730000   -0.269000 H         1 <1>         0.061100 
     31 H           1.380000    3.748000   -1.767000 H         1 <1>         0.076400 
     32 Cl         -1.787000   -1.293000    0.849000 Cl        1 <1>         0.142500 
     33 Cl         -3.419000    3.613000   -0.488000 Cl        1 <1>         0.121600 
@<TRIPOS>BOND
     1    1    2 ar   
     2    2    3 1    
     3    2    4 ar   
     4    4    5 ar   
     5    5    6 ar   
     6    6    7 ar   
     7    7    8 1    
     8    7    1 ar   
     9    6    9 1    
    10    9   10 am   
    11   10   11 1    
    12   11   12 1    
    13   11   13 1    
    14   11   14 1    
    15   14   15 2    
    16   15    5 1    
    17   15   16 1    
    18   16   17 ar   
    19   17   18 1    
    20   17   19 ar   
    21   19   20 1    
    22   19   21 ar   
    23   21   22 1    
    24   21   23 ar   
    25   23   24 1    
    26   23   25 ar   
    27   25   16 ar   
    28   25   26 1    
    29   10   27 2    
    30    9   28 1    
    31   28   29 1    
    32   28   30 1    
    33   28   31 1    
    34    4   32 1    
    35    1   33 1    
@<TRIPOS>SUBSTRUCTURE
     1 ****        1 TEMP              0 ****  ****    0 ROOT 
@<TRIPOS>SET
UNITY_3DHIT     STATIC     ATOMS    <user>   **** Atoms matching 3D or FLEX Search
0
@<TRIPOS>UNITY_BOND_ATTR
15 1
S I
