#	Name:			Ro13-0699
#	Creating user name:	jeff
#	Creation time:		Tue Nov  4 15:19:52 2003

#	Modifying user name:	jeff
#	Modification time:	Tue Nov  4 15:19:52 2003

@<TRIPOS>MOLECULE
Ro13-0699
   33    35     1     0     1
SMALL
USER_CHARGES
****
From 3DB ct
@<TRIPOS>ATOM
      1 C          -2.126000    2.521000   -0.195000 C.ar      1 <1>        -0.214900 
      2 H          -2.944000    3.215000   -0.381000 H         1 <1>         0.140300 
      3 C          -2.396000    1.201000    0.138000 C.ar      1 <1>         0.188400 
      4 H          -3.430000    0.872000    0.216000 H         1 <1>         0.058600 
      5 C          -1.345000    0.312000    0.370000 C.ar      1 <1>        -0.607700 
      6 C          -0.005000    0.744000    0.261000 C.ar      1 <1>         0.630600 
      7 C           0.278000    2.107000    0.008000 C.ar      1 <1>        -0.212300 
      8 C          -0.805000    2.969000   -0.253000 C.ar      1 <1>        -0.015300 
      9 H          -0.652000    4.026000   -0.462000 H         1 <1>         0.112700 
     10 N           1.605000    2.659000    0.026000 N.am      1 <1>        -0.187900 
     11 C           2.623000    2.212000    0.876000 C.2       1 <1>         0.463500 
     12 C           2.270000    1.088000    1.845000 C.3       1 <1>        -0.008700 
     13 H           3.095000    0.977000    2.558000 H         1 <1>         0.085600 
     14 H           1.377000    1.323000    2.435000 H         1 <1>         0.027800 
     15 N           2.153000   -0.147000    1.069000 N.2       1 <1>        -0.322100 
     16 C           1.106000   -0.259000    0.316000 C.2       1 <1>        -0.002700 
     17 C           1.045000   -1.435000   -0.603000 C.ar      1 <1>        -0.053200 
     18 C           1.465000   -2.698000   -0.161000 C.ar      1 <1>        -0.081100 
     19 H           1.837000   -2.847000    0.850000 H         1 <1>         0.137900 
     20 C           1.391000   -3.797000   -1.021000 C.ar      1 <1>        -0.128200 
     21 H           1.717000   -4.778000   -0.677000 H         1 <1>         0.114100 
     22 C           0.896000   -3.643000   -2.317000 C.ar      1 <1>        -0.036900 
     23 H           0.840000   -4.502000   -2.984000 H         1 <1>         0.112800 
     24 C           0.470000   -2.390000   -2.756000 C.ar      1 <1>        -0.288600 
     25 H           0.086000   -2.263000   -3.765000 H         1 <1>         0.164000 
     26 C           0.542000   -1.294000   -1.900000 C.ar      1 <1>         0.337800 
     27 F           0.149000   -0.098000   -2.365000 F         1 <1>        -0.244900 
     28 O           3.756000    2.709000    0.884000 O.2       1 <1>        -0.406100 
     29 C           1.886000    3.833000   -0.798000 C.3       1 <1>        -0.121200 
     30 H           2.959000    3.927000   -0.993000 H         1 <1>         0.101700 
     31 H           1.558000    4.731000   -0.266000 H         1 <1>         0.058800 
     32 H           1.379000    3.749000   -1.765000 H         1 <1>         0.082400 
     33 Cl         -1.787000   -1.292000    0.852000 Cl        1 <1>         0.115000 
@<TRIPOS>BOND
     1    2    1 1    
     2    1    3 ar   
     3    3    4 1    
     4    3    5 ar   
     5    5    6 ar   
     6    6    7 ar   
     7    7    8 ar   
     8    8    9 1    
     9    8    1 ar   
    10    7   10 1    
    11   10   11 am   
    12   11   12 1    
    13   12   13 1    
    14   12   14 1    
    15   12   15 1    
    16   15   16 2    
    17   16    6 1    
    18   16   17 1    
    19   17   18 ar   
    20   18   19 1    
    21   18   20 ar   
    22   20   21 1    
    23   20   22 ar   
    24   22   23 1    
    25   22   24 ar   
    26   24   25 1    
    27   24   26 ar   
    28   26   17 ar   
    29   26   27 1    
    30   11   28 2    
    31   10   29 1    
    32   29   30 1    
    33   29   31 1    
    34   29   32 1    
    35    5   33 1    
@<TRIPOS>SUBSTRUCTURE
     1 ****        2 TEMP              0 ****  ****    0 ROOT 
@<TRIPOS>SET
UNITY_3DHIT     STATIC     ATOMS    <user>   **** Atoms matching 3D or FLEX Search
0
@<TRIPOS>UNITY_BOND_ATTR
16 1
S I
