#	Name:			Ro13-0593
#	Creating user name:	jeff
#	Creation time:		Tue Nov  4 15:19:52 2003

#	Modifying user name:	jeff
#	Modification time:	Tue Nov  4 15:19:52 2003

@<TRIPOS>MOLECULE
Ro13-0593
   33    35     1     0     1
SMALL
USER_CHARGES
****
From 3DB ct
@<TRIPOS>ATOM
      1 C          -2.572000    1.825000    0.117000 C.ar      1 <1>         0.140800 
      2 H          -3.527000    2.348000    0.104000 H         1 <1>         0.064700 
      3 C          -2.567000    0.439000    0.197000 C.ar      1 <1>        -0.177000 
      4 H          -3.505000   -0.112000    0.234000 H         1 <1>         0.129300 
      5 C          -1.355000   -0.237000    0.253000 C.ar      1 <1>        -0.100500 
      6 H          -1.374000   -1.323000    0.339000 H         1 <1>         0.126400 
      7 C          -0.136000    0.466000    0.203000 C.ar      1 <1>        -0.077200 
      8 C          -0.114000    1.880000    0.118000 C.ar      1 <1>         0.399900 
      9 C          -1.367000    2.542000    0.089000 C.ar      1 <1>        -0.436100 
     10 Cl         -1.546000    4.268000    0.170000 Cl        1 <1>         0.085800 
     11 N           1.131000    2.599000    0.058000 N.am      1 <1>        -0.398100 
     12 C           2.245000    2.280000    0.838000 C.2       1 <1>         0.445900 
     13 C           2.103000    1.091000    1.778000 C.3       1 <1>         0.062100 
     14 H           2.962000    1.086000    2.458000 H         1 <1>         0.067100 
     15 H           1.207000    1.166000    2.404000 H         1 <1>         0.015400 
     16 N           2.144000   -0.124000    0.960000 N.2       1 <1>        -0.400300 
     17 C           1.109000   -0.367000    0.221000 C.2       1 <1>         0.353100 
     18 C           1.167000   -1.556000   -0.676000 C.ar      1 <1>        -0.198400 
     19 C           1.728000   -2.755000   -0.217000 C.ar      1 <1>        -0.061800 
     20 H           2.126000   -2.839000    0.792000 H         1 <1>         0.129200 
     21 C           1.768000   -3.870000   -1.058000 C.ar      1 <1>        -0.113400 
     22 H           2.203000   -4.803000   -0.703000 H         1 <1>         0.111100 
     23 C           1.247000   -3.794000   -2.351000 C.ar      1 <1>        -0.057200 
     24 H           1.279000   -4.665000   -3.003000 H         1 <1>         0.113400 
     25 C           0.683000   -2.602000   -2.807000 C.ar      1 <1>        -0.223400 
     26 H           0.279000   -2.535000   -3.813000 H         1 <1>         0.144800 
     27 C           0.643000   -1.490000   -1.969000 C.ar      1 <1>         0.330900 
     28 F           0.119000   -0.351000   -2.446000 F         1 <1>        -0.239000 
     29 O           3.303000    2.921000    0.784000 O.2       1 <1>        -0.383100 
     30 C           1.278000    3.701000   -0.885000 C.3       1 <1>        -0.149200 
     31 H           2.270000    3.656000   -1.347000 H         1 <1>         0.107400 
     32 H           1.208000    4.650000   -0.347000 H         1 <1>         0.087600 
     33 H           0.541000    3.641000   -1.692000 H         1 <1>         0.100000 
@<TRIPOS>BOND
     1    2    1 1    
     2    1    3 ar   
     3    3    4 1    
     4    3    5 ar   
     5    5    6 1    
     6    5    7 ar   
     7    7    8 ar   
     8    8    9 ar   
     9    9    1 ar   
    10    9   10 1    
    11    8   11 1    
    12   11   12 am   
    13   12   13 1    
    14   13   14 1    
    15   13   15 1    
    16   13   16 1    
    17   16   17 2    
    18   17    7 1    
    19   17   18 1    
    20   18   19 ar   
    21   19   20 1    
    22   19   21 ar   
    23   21   22 1    
    24   21   23 ar   
    25   23   24 1    
    26   23   25 ar   
    27   25   26 1    
    28   25   27 ar   
    29   27   18 ar   
    30   27   28 1    
    31   12   29 2    
    32   11   30 1    
    33   30   31 1    
    34   30   32 1    
    35   30   33 1    
@<TRIPOS>SUBSTRUCTURE
     1 ****        2 TEMP              0 ****  ****    0 ROOT 
@<TRIPOS>SET
UNITY_3DHIT     STATIC     ATOMS    <user>   **** Atoms matching 3D or FLEX Search
0
@<TRIPOS>UNITY_BOND_ATTR
17 1
S I
