#	Name:			Ro13-9868
#	Creating user name:	jeff
#	Creation time:		Tue Nov  4 15:19:58 2003

#	Modifying user name:	jeff
#	Modification time:	Tue Nov  4 15:19:58 2003

@<TRIPOS>MOLECULE
Ro13-9868
   36    39     1     0     1
SMALL
USER_CHARGES
****
From 3DB ct
@<TRIPOS>ATOM
      1 C           0.244000    2.206000    0.094000 C.ar      1 <1>         0.128300 
      2 C           0.053000    0.802000    0.138000 C.ar      1 <1>         0.164900 
      3 C           1.127000   -0.241000    0.142000 C.2       1 <1>        -0.406200 
      4 C           2.229000   -0.107000    0.907000 C.2       1 <1>         0.167300 
      5 H           2.999000   -0.878000    0.907000 H         1 <1>         0.061900 
      6 C           2.543000    1.089000    1.747000 C.3       1 <1>        -0.292600 
      7 H           3.519000    0.932000    2.222000 H         1 <1>         0.112200 
      8 H           1.821000    1.178000    2.567000 H         1 <1>         0.104200 
      9 C           2.595000    2.343000    0.956000 C.ar      1 <1>         0.303300 
     10 N           1.535000    2.801000    0.194000 N.pl3     1 <1>        -0.262400 
     11 C           2.017000    3.976000   -0.374000 C.ar      1 <1>         0.318300 
     12 N           3.237000    4.216000    0.073000 N.ar      1 <1>        -0.251800 
     13 N           3.599000    3.196000    0.901000 N.ar      1 <1>        -0.245700 
     14 C           1.336000    4.785000   -1.417000 C.3       1 <1>        -0.295900 
     15 H           2.081000    5.304000   -2.029000 H         1 <1>         0.104900 
     16 H           0.699000    5.548000   -0.961000 H         1 <1>         0.097300 
     17 H           0.739000    4.165000   -2.092000 H         1 <1>         0.103400 
     18 C           1.062000   -1.485000   -0.674000 C.ar      1 <1>         0.128100 
     19 C           0.542000   -1.433000   -1.975000 C.ar      1 <1>        -0.152900 
     20 H           0.203000   -0.488000   -2.397000 H         1 <1>         0.129000 
     21 C           0.457000   -2.592000   -2.750000 C.ar      1 <1>        -0.120500 
     22 H           0.055000   -2.542000   -3.760000 H         1 <1>         0.113000 
     23 C           0.886000   -3.813000   -2.230000 C.ar      1 <1>        -0.072500 
     24 H           0.818000   -4.716000   -2.835000 H         1 <1>         0.103200 
     25 C           1.398000   -3.877000   -0.936000 C.ar      1 <1>        -0.149200 
     26 H           1.730000   -4.831000   -0.528000 H         1 <1>         0.116600 
     27 C           1.485000   -2.720000   -0.159000 C.ar      1 <1>        -0.070000 
     28 H           1.879000   -2.790000    0.854000 H         1 <1>         0.094300 
     29 C          -1.272000    0.314000    0.088000 C.ar      1 <1>         0.124400 
     30 H          -1.462000   -0.758000    0.121000 H         1 <1>         0.075500 
     31 C          -2.364000    1.175000   -0.008000 C.ar      1 <1>        -0.455900 
     32 C          -2.169000    2.546000   -0.052000 C.ar      1 <1>         0.194400 
     33 H          -3.015000    3.227000   -0.112000 H         1 <1>         0.062500 
     34 C          -0.873000    3.060000    0.003000 C.ar      1 <1>        -0.268800 
     35 H          -0.772000    4.142000    0.029000 H         1 <1>         0.144400 
     36 Cl         -3.960000    0.534000   -0.066000 Cl        1 <1>         0.093200 
@<TRIPOS>BOND
     1    1    2 ar   
     2    2    3 1    
     3    3    4 2    
     4    4    5 1    
     5    4    6 1    
     6    6    7 1    
     7    6    8 1    
     8    6    9 1    
     9    9   10 ar   
    10   10    1 1    
    11   10   11 ar   
    12   11   12 ar   
    13   12   13 ar   
    14   13    9 ar   
    15   11   14 1    
    16   14   15 1    
    17   14   16 1    
    18   14   17 1    
    19    3   18 1    
    20   18   19 ar   
    21   19   20 1    
    22   19   21 ar   
    23   21   22 1    
    24   21   23 ar   
    25   23   24 1    
    26   23   25 ar   
    27   25   26 1    
    28   25   27 ar   
    29   27   28 1    
    30   27   18 ar   
    31    2   29 ar   
    32   29   30 1    
    33   29   31 ar   
    34   31   32 ar   
    35   32   33 1    
    36   32   34 ar   
    37   34   35 1    
    38   34    1 ar   
    39   31   36 1    
@<TRIPOS>SUBSTRUCTURE
     1 ****        1 TEMP              0 ****  ****    0 ROOT 
@<TRIPOS>SET
UNITY_3DHIT     STATIC     ATOMS    <user>   **** Atoms matching 3D or FLEX Search
0
@<TRIPOS>UNITY_BOND_ATTR
3 1
S N
