#	Name:			Ro14-3930
#	Creating user name:	jeff
#	Creation time:		Tue Nov  4 15:19:58 2003

#	Modifying user name:	jeff
#	Modification time:	Tue Nov  4 15:19:59 2003

@<TRIPOS>MOLECULE
Ro14-3930
   38    41     1     0     1
SMALL
USER_CHARGES
****
From 3DB ct
@<TRIPOS>ATOM
      1 C           0.237000    2.208000    0.135000 C.ar      1 <1>         0.123200 
      2 C           0.056000    0.802000    0.165000 C.ar      1 <1>         0.112600 
      3 C           1.135000   -0.238000    0.153000 C.2       1 <1>        -0.250100 
      4 C           2.260000   -0.098000    0.880000 C.2       1 <1>         0.110400 
      5 H           3.032000   -0.867000    0.861000 H         1 <1>         0.068400 
      6 C           2.577000    1.093000    1.716000 C.3       1 <1>        -0.260100 
      7 H           3.520000    0.918000    2.244000 H         1 <1>         0.101200 
      8 H           1.829000    1.198000    2.514000 H         1 <1>         0.107300 
      9 C           2.638000    2.337000    0.908000 C.ar      1 <1>         0.011800 
     10 N           1.520000    2.825000    0.252000 N.pl3     1 <1>        -0.076300 
     11 C           1.881000    4.069000   -0.221000 C.ar      1 <1>         0.056200 
     12 H           1.196000    4.707000   -0.765000 H         1 <1>         0.184400 
     13 N           3.141000    4.360000    0.019000 N.ar      1 <1>        -0.337600 
     14 C           3.652000    3.262000    0.689000 C.ar      1 <1>        -0.041300 
     15 C           5.058000    3.211000    1.109000 C.2       1 <1>         0.671700 
     16 O           5.856000    4.126000    0.895000 O.2       1 <1>        -0.446300 
     17 N           5.468000    2.057000    1.710000 N.am      1 <1>        -0.817400 
     18 H           6.426000    1.963000    2.021000 H         1 <1>         0.332400 
     19 H           4.881000    1.237000    1.788000 H         1 <1>         0.343700 
     20 C           1.060000   -1.481000   -0.661000 C.ar      1 <1>        -0.120000 
     21 C           1.503000   -2.693000   -0.111000 C.ar      1 <1>         0.012900 
     22 H           1.887000   -2.729000    0.907000 H         1 <1>         0.097500 
     23 C           1.455000   -3.871000   -0.863000 C.ar      1 <1>        -0.206800 
     24 H           1.800000   -4.807000   -0.426000 H         1 <1>         0.130100 
     25 C           0.968000   -3.850000   -2.170000 C.ar      1 <1>        -0.004800 
     26 H           0.932000   -4.769000   -2.753000 H         1 <1>         0.110600 
     27 C           0.529000   -2.652000   -2.729000 C.ar      1 <1>        -0.300300 
     28 H           0.152000   -2.624000   -3.748000 H         1 <1>         0.167000 
     29 C           0.578000   -1.480000   -1.978000 C.ar      1 <1>         0.384800 
     30 F           0.164000   -0.337000   -2.547000 F         1 <1>        -0.245500 
     31 C          -1.267000    0.308000    0.097000 C.ar      1 <1>         0.136600 
     32 H          -1.454000   -0.764000    0.130000 H         1 <1>         0.068000 
     33 C          -2.363000    1.162000   -0.023000 C.ar      1 <1>        -0.455500 
     34 C          -2.175000    2.534000   -0.084000 C.ar      1 <1>         0.204800 
     35 H          -3.023000    3.208000   -0.179000 H         1 <1>         0.060000 
     36 C          -0.883000    3.056000   -0.008000 C.ar      1 <1>        -0.272700 
     37 H          -0.788000    4.140000   -0.019000 H         1 <1>         0.146900 
     38 Cl         -3.953000    0.510000   -0.108000 Cl        1 <1>         0.092100 
@<TRIPOS>BOND
     1    1    2 ar   
     2    2    3 1    
     3    3    4 2    
     4    4    5 1    
     5    4    6 1    
     6    6    7 1    
     7    6    8 1    
     8    6    9 1    
     9    9   10 ar   
    10   10    1 1    
    11   10   11 ar   
    12   11   12 1    
    13   11   13 ar   
    14   13   14 ar   
    15   14    9 ar   
    16   14   15 1    
    17   15   16 2    
    18   15   17 am   
    19   17   18 1    
    20   17   19 1    
    21    3   20 1    
    22   20   21 ar   
    23   21   22 1    
    24   21   23 ar   
    25   23   24 1    
    26   23   25 ar   
    27   25   26 1    
    28   25   27 ar   
    29   27   28 1    
    30   27   29 ar   
    31   29   20 ar   
    32   29   30 1    
    33    2   31 ar   
    34   31   32 1    
    35   31   33 ar   
    36   33   34 ar   
    37   34   35 1    
    38   34   36 ar   
    39   36   37 1    
    40   36    1 ar   
    41   33   38 1    
@<TRIPOS>SUBSTRUCTURE
     1 ****        1 TEMP              0 ****  ****    0 ROOT 
@<TRIPOS>SET
UNITY_3DHIT     STATIC     ATOMS    <user>   **** Atoms matching 3D or FLEX Search
0
@<TRIPOS>UNITY_BOND_ATTR
3 1
S N
