#	Name:			Ro14-7181
#	Creating user name:	jeff
#	Creation time:		Tue Nov  4 15:19:59 2003

#	Modifying user name:	jeff
#	Modification time:	Tue Nov  4 15:19:59 2003

@<TRIPOS>MOLECULE
Ro14-7181
   35    38     1     0     1
SMALL
USER_CHARGES
****
From 3DB ct
@<TRIPOS>ATOM
      1 C           0.257000    2.125000    0.069000 C.ar      1 <1>         0.097800 
      2 C           0.007000    0.757000    0.224000 C.ar      1 <1>        -0.074200 
      3 C           1.043000   -0.303000    0.280000 C.2       1 <1>         0.452900 
      4 N           2.224000   -0.074000    0.943000 N.am      1 <1>        -0.290100 
      5 C           2.549000    1.069000    1.793000 C.3       1 <1>         0.250800 
      6 H           1.755000    1.167000    2.544000 H         1 <1>         0.041400 
      7 C           2.619000    2.297000    0.950000 C.ar      1 <1>        -0.208600 
      8 N           1.558000    2.683000    0.137000 N.pl3     1 <1>        -0.074100 
      9 C           1.966000    3.810000   -0.539000 C.ar      1 <1>         0.089000 
     10 H           1.366000    4.278000   -1.308000 H         1 <1>         0.173200 
     11 N           3.142000    4.231000   -0.152000 N.ar      1 <1>        -0.382500 
     12 C           3.536000    3.346000    0.841000 C.ar      1 <1>         0.116600 
     13 C           4.749000    3.637000    1.611000 C.2       1 <1>         0.553100 
     14 O           5.471000    4.614000    1.460000 O.2       1 <1>        -0.469000 
     15 N           5.066000    2.653000    2.506000 N.am      1 <1>        -0.748500 
     16 H           4.561000    1.777000    2.436000 H         1 <1>         0.330600 
     17 H           5.976000    2.680000    2.940000 H         1 <1>         0.336400 
     18 C           3.856000    0.634000    2.468000 C.3       1 <1>        -0.184000 
     19 H           3.972000    1.061000    3.468000 H         1 <1>         0.091400 
     20 H           4.735000    0.890000    1.865000 H         1 <1>         0.115700 
     21 C           3.757000   -0.881000    2.515000 C.3       1 <1>        -0.085900 
     22 H           4.723000   -1.373000    2.658000 H         1 <1>         0.060700 
     23 H           3.084000   -1.189000    3.325000 H         1 <1>         0.042600 
     24 C           3.138000   -1.184000    1.167000 C.3       1 <1>        -0.010300 
     25 H           3.888000   -1.159000    0.369000 H         1 <1>         0.053400 
     26 H           2.633000   -2.155000    1.152000 H         1 <1>         0.073100 
     27 O           0.795000   -1.380000   -0.263000 O.2       1 <1>        -0.431400 
     28 C          -1.324000    0.295000    0.169000 C.ar      1 <1>        -0.077000 
     29 H          -1.534000   -0.771000    0.259000 H         1 <1>         0.145700 
     30 C          -2.389000    1.172000   -0.029000 C.ar      1 <1>        -0.119800 
     31 H          -3.407000    0.792000   -0.069000 H         1 <1>         0.116100 
     32 C          -2.138000    2.527000   -0.195000 C.ar      1 <1>        -0.047500 
     33 H          -2.964000    3.217000   -0.355000 H         1 <1>         0.111300 
     34 C          -0.826000    3.002000   -0.155000 C.ar      1 <1>        -0.168900 
     35 H          -0.682000    4.076000   -0.260000 H         1 <1>         0.120200 
@<TRIPOS>BOND
     1    1    2 ar   
     2    2    3 1    
     3    3    4 am   
     4    4    5 1    
     5    5    6 1    
     6    5    7 1    
     7    7    8 ar   
     8    8    1 1    
     9    8    9 ar   
    10    9   10 1    
    11    9   11 ar   
    12   11   12 ar   
    13   12    7 ar   
    14   12   13 1    
    15   13   14 2    
    16   13   15 am   
    17   15   16 1    
    18   15   17 1    
    19    5   18 1    
    20   18   19 1    
    21   18   20 1    
    22   18   21 1    
    23   21   22 1    
    24   21   23 1    
    25   21   24 1    
    26   24   25 1    
    27   24   26 1    
    28   24    4 1    
    29    3   27 2    
    30    2   28 ar   
    31   28   29 1    
    32   28   30 ar   
    33   30   31 1    
    34   30   32 ar   
    35   32   33 1    
    36   32   34 ar   
    37   34   35 1    
    38   34    1 ar   
@<TRIPOS>SUBSTRUCTURE
     1 ****        1 TEMP              0 ****  ****    0 ROOT 
@<TRIPOS>SET
UNITY_3DHIT     STATIC     ATOMS    <user>   **** Atoms matching 3D or FLEX Search
0
