#	Name:			Ro14-5975
#	Creating user name:	jeff
#	Creation time:		Tue Nov  4 15:20:00 2003

#	Modifying user name:	jeff
#	Modification time:	Tue Nov  4 15:20:00 2003

@<TRIPOS>MOLECULE
Ro14-5975
   40    43     1     0     1
SMALL
USER_CHARGES
****
From 3DB ct
@<TRIPOS>ATOM
      1 C           0.268000    2.122000    0.056000 C.ar      1 <1>         0.207300 
      2 C           0.004000    0.759000    0.239000 C.ar      1 <1>        -0.171300 
      3 C           1.032000   -0.308000    0.291000 C.2       1 <1>         0.431700 
      4 N           2.224000   -0.083000    0.937000 N.am      1 <1>        -0.259600 
      5 C           2.567000    1.060000    1.779000 C.3       1 <1>         0.168400 
      6 H           1.786000    1.164000    2.543000 H         1 <1>         0.062000 
      7 C           2.631000    2.286000    0.932000 C.ar      1 <1>        -0.201700 
      8 N           1.576000    2.667000    0.110000 N.pl3     1 <1>        -0.068700 
      9 C           1.991000    3.782000   -0.577000 C.ar      1 <1>         0.086500 
     10 H           1.404000    4.240000   -1.363000 H         1 <1>         0.178600 
     11 N           3.156000    4.213000   -0.172000 N.ar      1 <1>        -0.355900 
     12 C           3.543000    3.344000    0.832000 C.ar      1 <1>         0.057000 
     13 C           4.726000    3.634000    1.650000 C.2       1 <1>         0.642600 
     14 O           5.426000    4.629000    1.504000 O.2       1 <1>        -0.442500 
     15 O           4.970000    2.653000    2.568000 O.3       1 <1>        -0.403100 
     16 C           6.129000    2.833000    3.389000 C.3       1 <1>         0.243400 
     17 H           6.427000    1.840000    3.743000 H         1 <1>        -0.004900 
     18 H           6.969000    3.233000    2.811000 H         1 <1>         0.031000 
     19 C           5.800000    3.717000    4.578000 C.3       1 <1>        -0.207200 
     20 H           6.658000    3.800000    5.250000 H         1 <1>         0.054100 
     21 H           5.512000    4.722000    4.254000 H         1 <1>         0.063200 
     22 H           4.952000    3.308000    5.137000 H         1 <1>         0.061700 
     23 C           3.888000    0.624000    2.430000 C.3       1 <1>        -0.103600 
     24 H           4.013000    1.038000    3.434000 H         1 <1>         0.068900 
     25 H           4.758000    0.896000    1.821000 H         1 <1>         0.082900 
     26 C           3.797000   -0.893000    2.468000 C.3       1 <1>        -0.127100 
     27 H           4.769000   -1.379000    2.583000 H         1 <1>         0.066700 
     28 H           3.149000   -1.208000    3.295000 H         1 <1>         0.054900 
     29 C           3.142000   -1.195000    1.137000 C.3       1 <1>         0.023300 
     30 H           3.870000   -1.173000    0.319000 H         1 <1>         0.045200 
     31 H           2.635000   -2.164000    1.137000 H         1 <1>         0.071700 
     32 O           0.767000   -1.384000   -0.243000 O.2       1 <1>        -0.415500 
     33 C          -1.331000    0.308000    0.214000 C.ar      1 <1>         0.197300 
     34 H          -1.546000   -0.754000    0.329000 H         1 <1>         0.093600 
     35 C          -2.381000    1.200000    0.015000 C.ar      1 <1>        -0.488200 
     36 C          -2.123000    2.549000   -0.183000 C.ar      1 <1>         0.261900 
     37 H          -2.940000    3.249000   -0.341000 H         1 <1>         0.050500 
     38 C          -0.805000    3.010000   -0.171000 C.ar      1 <1>        -0.307800 
     39 H          -0.648000    4.080000   -0.296000 H         1 <1>         0.147400 
     40 Cl         -4.002000    0.630000    0.001000 Cl        1 <1>         0.105100 
@<TRIPOS>BOND
     1    1    2 ar   
     2    2    3 1    
     3    3    4 am   
     4    4    5 1    
     5    5    6 1    
     6    5    7 1    
     7    7    8 ar   
     8    8    1 1    
     9    8    9 ar   
    10    9   10 1    
    11    9   11 ar   
    12   11   12 ar   
    13   12    7 ar   
    14   12   13 1    
    15   13   14 2    
    16   13   15 1    
    17   15   16 1    
    18   16   17 1    
    19   16   18 1    
    20   16   19 1    
    21   19   20 1    
    22   19   21 1    
    23   19   22 1    
    24    5   23 1    
    25   23   24 1    
    26   23   25 1    
    27   23   26 1    
    28   26   27 1    
    29   26   28 1    
    30   26   29 1    
    31   29   30 1    
    32   29   31 1    
    33   29    4 1    
    34    3   32 2    
    35    2   33 ar   
    36   33   34 1    
    37   33   35 ar   
    38   35   36 ar   
    39   36   37 1    
    40   36   38 ar   
    41   38   39 1    
    42   38    1 ar   
    43   35   40 1    
@<TRIPOS>SUBSTRUCTURE
     1 ****        1 TEMP              0 ****  ****    0 ROOT 
@<TRIPOS>SET
UNITY_3DHIT     STATIC     ATOMS    <user>   **** Atoms matching 3D or FLEX Search
0
