#	Name:			Ro14-5921
#	Creating user name:	jeff
#	Creation time:		Tue Nov  4 15:19:58 2003

#	Modifying user name:	jeff
#	Modification time:	Tue Nov  4 15:19:58 2003

@<TRIPOS>MOLECULE
Ro14-5921
   33    36     1     0     1
SMALL
USER_CHARGES
****
From 3DB ct
@<TRIPOS>ATOM
      1 C           0.234000    2.210000    0.142000 C.ar      1 <1>        -0.043300 
      2 C           0.061000    0.804000    0.169000 C.ar      1 <1>         0.231800 
      3 C           1.144000   -0.232000    0.147000 C.2       1 <1>        -0.346800 
      4 C           2.285000   -0.098000    0.849000 C.2       1 <1>         0.151700 
      5 H           3.049000   -0.875000    0.812000 H         1 <1>         0.072000 
      6 C           2.650000    1.082000    1.686000 C.3       1 <1>        -0.312300 
      7 H           3.664000    0.928000    2.077000 H         1 <1>         0.117900 
      8 H           1.996000    1.136000    2.565000 H         1 <1>         0.108000 
      9 C           2.623000    2.363000    0.942000 C.ar      1 <1>         0.282700 
     10 N           1.504000    2.833000    0.285000 N.pl3     1 <1>        -0.045000 
     11 C           1.880000    4.086000   -0.143000 C.ar      1 <1>        -0.006400 
     12 H           1.232000    4.747000   -0.702000 H         1 <1>         0.192000 
     13 N           3.129000    4.337000    0.183000 N.ar      1 <1>        -0.219700 
     14 N           3.599000    3.251000    0.867000 N.ar      1 <1>        -0.234400 
     15 C           1.057000   -1.478000   -0.664000 C.ar      1 <1>        -0.076900 
     16 C           1.513000   -2.687000   -0.118000 C.ar      1 <1>        -0.004200 
     17 H           1.915000   -2.720000    0.893000 H         1 <1>         0.103500 
     18 C           1.452000   -3.867000   -0.866000 C.ar      1 <1>        -0.205200 
     19 H           1.806000   -4.801000   -0.433000 H         1 <1>         0.130100 
     20 C           0.940000   -3.851000   -2.164000 C.ar      1 <1>        -0.004900 
     21 H           0.895000   -4.771000   -2.743000 H         1 <1>         0.109600 
     22 C           0.489000   -2.654000   -2.718000 C.ar      1 <1>        -0.293100 
     23 H           0.093000   -2.630000   -3.729000 H         1 <1>         0.164100 
     24 C           0.551000   -1.481000   -1.971000 C.ar      1 <1>         0.362300 
     25 F           0.124000   -0.339000   -2.534000 F         1 <1>        -0.234200 
     26 C          -1.260000    0.305000    0.095000 C.ar      1 <1>         0.097200 
     27 H          -1.445000   -0.768000    0.127000 H         1 <1>         0.078800 
     28 C          -2.359000    1.154000   -0.035000 C.ar      1 <1>        -0.453500 
     29 C          -2.177000    2.525000   -0.101000 C.ar      1 <1>         0.192300 
     30 H          -3.027000    3.196000   -0.205000 H         1 <1>         0.058300 
     31 C          -0.888000    3.053000   -0.015000 C.ar      1 <1>        -0.200000 
     32 H          -0.796000    4.137000   -0.031000 H         1 <1>         0.132100 
     33 Cl         -3.947000    0.494000   -0.127000 Cl        1 <1>         0.095300 
@<TRIPOS>BOND
     1    1    2 ar   
     2    2    3 1    
     3    3    4 2    
     4    4    5 1    
     5    4    6 1    
     6    6    7 1    
     7    6    8 1    
     8    6    9 1    
     9    9   10 ar   
    10   10    1 1    
    11   10   11 ar   
    12   11   12 1    
    13   11   13 ar   
    14   13   14 ar   
    15   14    9 ar   
    16    3   15 1    
    17   15   16 ar   
    18   16   17 1    
    19   16   18 ar   
    20   18   19 1    
    21   18   20 ar   
    22   20   21 1    
    23   20   22 ar   
    24   22   23 1    
    25   22   24 ar   
    26   24   15 ar   
    27   24   25 1    
    28    2   26 ar   
    29   26   27 1    
    30   26   28 ar   
    31   28   29 ar   
    32   29   30 1    
    33   29   31 ar   
    34   31   32 1    
    35   31    1 ar   
    36   28   33 1    
@<TRIPOS>SUBSTRUCTURE
     1 ****        1 TEMP              0 ****  ****    0 ROOT 
@<TRIPOS>SET
UNITY_3DHIT     STATIC     ATOMS    <user>   **** Atoms matching 3D or FLEX Search
0
@<TRIPOS>UNITY_BOND_ATTR
3 1
S N
