#	Name:			Ro14-2312
#	Creating user name:	jeff
#	Creation time:		Tue Nov  4 15:19:53 2003

#	Modifying user name:	jeff
#	Modification time:	Tue Nov  4 15:19:53 2003

@<TRIPOS>MOLECULE
Ro14-2312
   35    37     1     0     1
SMALL
USER_CHARGES
****
From 3DB ct
@<TRIPOS>ATOM
      1 C          -2.114000    2.492000   -0.233000 C.ar      1 <1>        -0.380400 
      2 C          -2.383000    1.174000    0.112000 C.ar      1 <1>        -0.014200 
      3 H          -3.415000    0.832000    0.157000 H         1 <1>         0.078800 
      4 C          -1.342000    0.290000    0.414000 C.ar      1 <1>         0.276400 
      5 C          -0.005000    0.747000    0.281000 C.ar      1 <1>        -0.049300 
      6 C           0.279000    2.109000    0.012000 C.ar      1 <1>        -0.029100 
      7 C          -0.803000    2.961000   -0.272000 C.ar      1 <1>         0.092100 
      8 H          -0.648000    4.014000   -0.493000 H         1 <1>         0.059500 
      9 N           1.607000    2.663000    0.030000 N.am      1 <1>        -0.257600 
     10 C           2.626000    2.215000    0.878000 C.2       1 <1>         0.470800 
     11 C           2.280000    1.088000    1.845000 C.3       1 <1>         0.024400 
     12 H           3.108000    0.977000    2.554000 H         1 <1>         0.073200 
     13 H           1.389000    1.319000    2.439000 H         1 <1>         0.024100 
     14 N           2.165000   -0.146000    1.066000 N.2       1 <1>        -0.405300 
     15 C           1.110000   -0.255000    0.323000 C.2       1 <1>         0.399600 
     16 C           1.035000   -1.429000   -0.598000 C.ar      1 <1>        -0.274500 
     17 C           1.454000   -2.694000   -0.163000 C.ar      1 <1>        -0.031800 
     18 H           1.850000   -2.841000    0.840000 H         1 <1>         0.119500 
     19 C           1.352000   -3.795000   -1.018000 C.ar      1 <1>        -0.138900 
     20 H           1.679000   -4.777000   -0.679000 H         1 <1>         0.114300 
     21 C           0.830000   -3.640000   -2.303000 C.ar      1 <1>        -0.038700 
     22 H           0.753000   -4.500000   -2.966000 H         1 <1>         0.111600 
     23 C           0.407000   -2.384000   -2.736000 C.ar      1 <1>        -0.254400 
     24 H           0.003000   -2.255000   -3.737000 H         1 <1>         0.149400 
     25 C           0.507000   -1.286000   -1.883000 C.ar      1 <1>         0.393600 
     26 F           0.115000   -0.088000   -2.342000 F         1 <1>        -0.246600 
     27 O           3.759000    2.716000    0.885000 O.2       1 <1>        -0.406500 
     28 C           1.889000    3.834000   -0.797000 C.3       1 <1>        -0.074300 
     29 H           2.962000    3.933000   -0.986000 H         1 <1>         0.088900 
     30 H           1.553000    4.732000   -0.270000 H         1 <1>         0.055900 
     31 H           1.389000    3.744000   -1.767000 H         1 <1>         0.075200 
     32 N          -1.677000   -1.021000    0.738000 N.pl3     1 <1>        -0.845300 
     33 H          -1.012000   -1.625000    1.211000 H         1 <1>         0.365600 
     34 H          -2.652000   -1.268000    0.896000 H         1 <1>         0.378700 
     35 Cl         -3.416000    3.565000   -0.586000 Cl        1 <1>         0.095500 
@<TRIPOS>BOND
     1    1    2 ar   
     2    2    3 1    
     3    2    4 ar   
     4    4    5 ar   
     5    5    6 ar   
     6    6    7 ar   
     7    7    8 1    
     8    7    1 ar   
     9    6    9 1    
    10    9   10 am   
    11   10   11 1    
    12   11   12 1    
    13   11   13 1    
    14   11   14 1    
    15   14   15 2    
    16   15    5 1    
    17   15   16 1    
    18   16   17 ar   
    19   17   18 1    
    20   17   19 ar   
    21   19   20 1    
    22   19   21 ar   
    23   21   22 1    
    24   21   23 ar   
    25   23   24 1    
    26   23   25 ar   
    27   25   16 ar   
    28   25   26 1    
    29   10   27 2    
    30    9   28 1    
    31   28   29 1    
    32   28   30 1    
    33   28   31 1    
    34    4   32 1    
    35   32   33 1    
    36   32   34 1    
    37    1   35 1    
@<TRIPOS>SUBSTRUCTURE
     1 ****        1 TEMP              0 ****  ****    0 ROOT 
@<TRIPOS>SET
UNITY_3DHIT     STATIC     ATOMS    <user>   **** Atoms matching 3D or FLEX Search
0
@<TRIPOS>UNITY_BOND_ATTR
15 1
S I
