#	Name:			Ro14-3074
#	Creating user name:	jeff
#	Creation time:		Tue Nov  4 15:19:50 2003

#	Modifying user name:	jeff
#	Modification time:	Tue Nov  4 15:19:50 2003

@<TRIPOS>MOLECULE
Ro14-3074
   32    34     1     0     1
SMALL
USER_CHARGES
****
From 3DB ct
@<TRIPOS>ATOM
      1 C          -2.085000    2.521000   -0.190000 C.ar      1 <1>        -0.108800 
      2 H          -2.905000    3.218000   -0.355000 H         1 <1>         0.138500 
      3 C          -2.366000    1.165000   -0.002000 C.ar      1 <1>         0.217100 
      4 C          -1.286000    0.291000    0.188000 C.ar      1 <1>        -0.190600 
      5 H          -1.460000   -0.774000    0.313000 H         1 <1>         0.155700 
      6 C           0.043000    0.764000    0.197000 C.ar      1 <1>        -0.155000 
      7 C           0.296000    2.138000    0.085000 C.ar      1 <1>         0.268200 
      8 C          -0.774000    3.005000   -0.154000 C.ar      1 <1>        -0.231300 
      9 H          -0.610000    4.073000   -0.277000 H         1 <1>         0.142700 
     10 N           1.564000    2.726000    0.193000 N.am      1 <1>        -0.562200 
     11 H           1.704000    3.667000   -0.152000 H         1 <1>         0.319500 
     12 C           2.629000    2.265000    0.921000 C.2       1 <1>         0.494200 
     13 C           2.428000    1.017000    1.764000 C.3       1 <1>         0.044000 
     14 H           3.337000    0.859000    2.355000 H         1 <1>         0.068800 
     15 H           1.611000    1.164000    2.479000 H         1 <1>         0.040900 
     16 N           2.223000   -0.150000    0.916000 N.2       1 <1>        -0.425200 
     17 C           1.148000   -0.243000    0.209000 C.2       1 <1>         0.485900 
     18 C           1.028000   -1.457000   -0.657000 C.ar      1 <1>        -0.333400 
     19 C           1.473000   -2.690000   -0.162000 C.ar      1 <1>        -0.002300 
     20 H           1.892000   -2.759000    0.840000 H         1 <1>         0.117700 
     21 C           1.387000   -3.838000   -0.954000 C.ar      1 <1>        -0.135200 
     22 H           1.735000   -4.792000   -0.565000 H         1 <1>         0.112000 
     23 C           0.866000   -3.759000   -2.247000 C.ar      1 <1>        -0.028900 
     24 H           0.806000   -4.652000   -2.864000 H         1 <1>         0.110100 
     25 C           0.439000   -2.530000   -2.751000 C.ar      1 <1>        -0.277500 
     26 H           0.046000   -2.454000   -3.761000 H         1 <1>         0.158100 
     27 C           0.526000   -1.387000   -1.959000 C.ar      1 <1>         0.434100 
     28 F           0.131000   -0.220000   -2.487000 F         1 <1>        -0.272000 
     29 O           3.670000    2.923000    0.948000 O.2       1 <1>        -0.413700 
     30 N          -3.724000    0.793000   -0.035000 N.2       1 <1>        -0.420200 
     31 N          -3.977000   -0.415000    0.107000 N.1       1 <1>         0.348000 
     32 N          -4.220000   -1.522000    0.238000 N.2       1 <1>        -0.099300 
@<TRIPOS>BOND
     1    2    1 1    
     2    1    3 ar   
     3    3    4 ar   
     4    4    5 1    
     5    4    6 ar   
     6    6    7 ar   
     7    7    8 ar   
     8    8    9 1    
     9    8    1 ar   
    10    7   10 1    
    11   10   11 1    
    12   10   12 am   
    13   12   13 1    
    14   13   14 1    
    15   13   15 1    
    16   13   16 1    
    17   16   17 2    
    18   17    6 1    
    19   17   18 1    
    20   18   19 ar   
    21   19   20 1    
    22   19   21 ar   
    23   21   22 1    
    24   21   23 ar   
    25   23   24 1    
    26   23   25 ar   
    27   25   26 1    
    28   25   27 ar   
    29   27   18 ar   
    30   27   28 1    
    31   12   29 2    
    32    3   30 1    
    33   30   31 2    
    34   31   32 2    
@<TRIPOS>SUBSTRUCTURE
     1 ****        2 TEMP              0 ****  ****    0 ROOT 
@<TRIPOS>SET
UNITY_3DHIT     STATIC     ATOMS    <user>   **** Atoms matching 3D or FLEX Search
0
@<TRIPOS>UNITY_ATOM_ATTR
31 1
AtomExpr +1
32 1
AtomExpr -1
@<TRIPOS>UNITY_BOND_ATTR
17 1
S I
