#	Name:			Ro14-5974
#	Creating user name:	jeff
#	Creation time:		Tue Nov  4 15:19:59 2003

#	Modifying user name:	jeff
#	Modification time:	Tue Nov  4 15:19:59 2003

@<TRIPOS>MOLECULE
Ro14-5974
   40    43     1     0     1
SMALL
USER_CHARGES
****
From 3DB ct
@<TRIPOS>ATOM
      1 C           0.269000    2.121000    0.057000 C.ar      1 <1>         0.100700 
      2 C           0.004000    0.759000    0.240000 C.ar      1 <1>        -0.081800 
      3 C           1.030000   -0.310000    0.295000 C.2       1 <1>         0.446700 
      4 N           2.225000   -0.083000    0.936000 N.am      1 <1>        -0.269000 
      5 C           2.569000    1.060000    1.778000 C.3       1 <1>         0.198500 
      6 H           1.790000    1.166000    2.543000 H         1 <1>         0.058400 
      7 C           2.633000    2.286000    0.931000 C.ar      1 <1>        -0.221700 
      8 N           1.576000    2.667000    0.112000 N.pl3     1 <1>        -0.038200 
      9 C           1.991000    3.784000   -0.574000 C.ar      1 <1>         0.082900 
     10 H           1.403000    4.243000   -1.359000 H         1 <1>         0.177300 
     11 N           3.156000    4.214000   -0.171000 N.ar      1 <1>        -0.357900 
     12 C           3.544000    3.344000    0.832000 C.ar      1 <1>         0.048600 
     13 C           4.727000    3.632000    1.650000 C.2       1 <1>         0.655400 
     14 O           5.428000    4.627000    1.506000 O.2       1 <1>        -0.447300 
     15 O           4.973000    2.650000    2.566000 O.3       1 <1>        -0.406800 
     16 C           6.137000    2.827000    3.383000 C.3       1 <1>         0.246800 
     17 H           6.439000    1.833000    3.729000 H         1 <1>        -0.010500 
     18 H           6.972000    3.232000    2.800000 H         1 <1>         0.027400 
     19 C           5.813000    3.703000    4.578000 C.3       1 <1>        -0.180100 
     20 H           6.675000    3.780000    5.247000 H         1 <1>         0.046600 
     21 H           5.529000    4.713000    4.262000 H         1 <1>         0.055500 
     22 H           4.965000    3.295000    5.136000 H         1 <1>         0.053500 
     23 C           3.890000    0.623000    2.428000 C.3       1 <1>        -0.141000 
     24 H           4.017000    1.036000    3.433000 H         1 <1>         0.079200 
     25 H           4.761000    0.896000    1.819000 H         1 <1>         0.094900 
     26 C           3.800000   -0.894000    2.464000 C.3       1 <1>        -0.128300 
     27 H           4.773000   -1.380000    2.577000 H         1 <1>         0.067800 
     28 H           3.154000   -1.211000    3.291000 H         1 <1>         0.055900 
     29 C           3.144000   -1.194000    1.134000 C.3       1 <1>         0.019500 
     30 H           3.871000   -1.171000    0.315000 H         1 <1>         0.044600 
     31 H           2.637000   -2.164000    1.134000 H         1 <1>         0.072700 
     32 O           0.766000   -1.390000   -0.233000 O.2       1 <1>        -0.428100 
     33 C          -1.333000    0.313000    0.212000 C.ar      1 <1>        -0.077500 
     34 H          -1.554000   -0.748000    0.326000 H         1 <1>         0.147400 
     35 C          -2.389000    1.200000    0.010000 C.ar      1 <1>        -0.128400 
     36 H          -3.412000    0.833000   -0.010000 H         1 <1>         0.118100 
     37 C          -2.124000    2.549000   -0.188000 C.ar      1 <1>        -0.034100 
     38 H          -2.942000    3.246000   -0.349000 H         1 <1>         0.109800 
     39 C          -0.806000    3.008000   -0.171000 C.ar      1 <1>        -0.183200 
     40 H          -0.648000    4.078000   -0.295000 H         1 <1>         0.125600 
@<TRIPOS>BOND
     1    1    2 ar   
     2    2    3 1    
     3    3    4 am   
     4    4    5 1    
     5    5    6 1    
     6    5    7 1    
     7    7    8 ar   
     8    8    1 1    
     9    8    9 ar   
    10    9   10 1    
    11    9   11 ar   
    12   11   12 ar   
    13   12    7 ar   
    14   12   13 1    
    15   13   14 2    
    16   13   15 1    
    17   15   16 1    
    18   16   17 1    
    19   16   18 1    
    20   16   19 1    
    21   19   20 1    
    22   19   21 1    
    23   19   22 1    
    24    5   23 1    
    25   23   24 1    
    26   23   25 1    
    27   23   26 1    
    28   26   27 1    
    29   26   28 1    
    30   26   29 1    
    31   29   30 1    
    32   29   31 1    
    33   29    4 1    
    34    3   32 2    
    35    2   33 ar   
    36   33   34 1    
    37   33   35 ar   
    38   35   36 1    
    39   35   37 ar   
    40   37   38 1    
    41   37   39 ar   
    42   39   40 1    
    43   39    1 ar   
@<TRIPOS>SUBSTRUCTURE
     1 ****        1 TEMP              0 ****  ****    0 ROOT 
@<TRIPOS>SET
UNITY_3DHIT     STATIC     ATOMS    <user>   **** Atoms matching 3D or FLEX Search
0
