#	Name:			Ro14-2652
#	Creating user name:	jeff
#	Creation time:		Tue Nov  4 15:19:58 2003

#	Modifying user name:	jeff
#	Modification time:	Tue Nov  4 15:19:58 2003

@<TRIPOS>MOLECULE
Ro14-2652
   38    41     1     0     1
SMALL
USER_CHARGES
****
From 3DB ct
@<TRIPOS>ATOM
      1 C           0.245000    2.202000    0.085000 C.ar      1 <1>         0.194800 
      2 C           0.050000    0.799000    0.137000 C.ar      1 <1>         0.069500 
      3 C           1.123000   -0.244000    0.149000 C.2       1 <1>        -0.252800 
      4 C           2.223000   -0.107000    0.916000 C.2       1 <1>         0.120100 
      5 H           2.991000   -0.879000    0.925000 H         1 <1>         0.071500 
      6 C           2.531000    1.093000    1.754000 C.3       1 <1>        -0.287100 
      7 H           3.504000    0.938000    2.236000 H         1 <1>         0.114700 
      8 H           1.803000    1.187000    2.569000 H         1 <1>         0.099900 
      9 C           2.590000    2.343000    0.956000 C.ar      1 <1>         0.359700 
     10 N           1.539000    2.793000    0.177000 N.pl3     1 <1>        -0.322000 
     11 C           2.032000    3.953000   -0.418000 C.ar      1 <1>         0.222200 
     12 N           3.241000    4.205000    0.059000 N.ar      1 <1>        -0.214300 
     13 N           3.592000    3.198000    0.909000 N.ar      1 <1>        -0.278000 
     14 C           1.336000    4.723000   -1.498000 C.3       1 <1>         0.065700 
     15 H           0.406000    5.143000   -1.102000 H         1 <1>         0.079300 
     16 H           1.094000    4.074000   -2.345000 H         1 <1>         0.077400 
     17 N           2.155000    5.836000   -2.003000 N.3       1 <1>        -0.597100 
     18 H           1.655000    6.246000   -2.799000 H         1 <1>         0.242000 
     19 H           2.995000    5.432000   -2.429000 H         1 <1>         0.224300 
     20 C           1.061000   -1.487000   -0.665000 C.ar      1 <1>        -0.103000 
     21 C           1.473000   -2.702000   -0.099000 C.ar      1 <1>         0.014800 
     22 H           1.822000   -2.740000    0.932000 H         1 <1>         0.095300 
     23 C           1.437000   -3.881000   -0.849000 C.ar      1 <1>        -0.208000 
     24 H           1.757000   -4.819000   -0.398000 H         1 <1>         0.131100 
     25 C           0.994000   -3.859000   -2.171000 C.ar      1 <1>        -0.009100 
     26 H           0.968000   -4.779000   -2.753000 H         1 <1>         0.111000 
     27 C           0.588000   -2.657000   -2.748000 C.ar      1 <1>        -0.284400 
     28 H           0.246000   -2.628000   -3.779000 H         1 <1>         0.163500 
     29 C           0.625000   -1.484000   -1.997000 C.ar      1 <1>         0.357200 
     30 F           0.243000   -0.338000   -2.583000 F         1 <1>        -0.236500 
     31 C          -1.276000    0.314000    0.090000 C.ar      1 <1>         0.164300 
     32 H          -1.471000   -0.756000    0.129000 H         1 <1>         0.063800 
     33 C          -2.366000    1.179000   -0.004000 C.ar      1 <1>        -0.469100 
     34 C          -2.167000    2.550000   -0.050000 C.ar      1 <1>         0.210200 
     35 H          -3.011000    3.232000   -0.106000 H         1 <1>         0.062800 
     36 C          -0.869000    3.060000   -0.001000 C.ar      1 <1>        -0.277700 
     37 H          -0.765000    4.142000    0.028000 H         1 <1>         0.129700 
     38 Cl         -3.964000    0.542000   -0.055000 Cl        1 <1>         0.094200 
@<TRIPOS>BOND
     1    1    2 ar   
     2    2    3 1    
     3    3    4 2    
     4    4    5 1    
     5    4    6 1    
     6    6    7 1    
     7    6    8 1    
     8    6    9 1    
     9    9   10 ar   
    10   10    1 1    
    11   10   11 ar   
    12   11   12 ar   
    13   12   13 ar   
    14   13    9 ar   
    15   11   14 1    
    16   14   15 1    
    17   14   16 1    
    18   14   17 1    
    19   17   18 1    
    20   17   19 1    
    21    3   20 1    
    22   20   21 ar   
    23   21   22 1    
    24   21   23 ar   
    25   23   24 1    
    26   23   25 ar   
    27   25   26 1    
    28   25   27 ar   
    29   27   28 1    
    30   27   29 ar   
    31   29   20 ar   
    32   29   30 1    
    33    2   31 ar   
    34   31   32 1    
    35   31   33 ar   
    36   33   34 ar   
    37   34   35 1    
    38   34   36 ar   
    39   36   37 1    
    40   36    1 ar   
    41   33   38 1    
@<TRIPOS>SUBSTRUCTURE
     1 ****        1 TEMP              0 ****  ****    0 ROOT 
@<TRIPOS>SET
UNITY_3DHIT     STATIC     ATOMS    <user>   **** Atoms matching 3D or FLEX Search
0
@<TRIPOS>UNITY_BOND_ATTR
3 1
S N
