#	Name:			Ro14-5568
#	Creating user name:	jeff
#	Creation time:		Tue Nov  4 15:19:59 2003

#	Modifying user name:	jeff
#	Modification time:	Tue Nov  4 15:19:59 2003

@<TRIPOS>MOLECULE
Ro14-5568
   34    37     1     0     1
SMALL
USER_CHARGES
****
From 3DB ct
@<TRIPOS>ATOM
      1 C           0.236000    2.208000    0.133000 C.ar      1 <1>         0.099800 
      2 C           0.059000    0.803000    0.170000 C.ar      1 <1>         0.155400 
      3 C           1.142000   -0.233000    0.150000 C.2       1 <1>        -0.273900 
      4 C           2.278000   -0.096000    0.860000 C.2       1 <1>         0.128600 
      5 H           3.045000   -0.871000    0.827000 H         1 <1>         0.069700 
      6 C           2.628000    1.083000    1.701000 C.3       1 <1>        -0.277300 
      7 H           3.630000    0.923000    2.120000 H         1 <1>         0.106200 
      8 H           1.952000    1.144000    2.563000 H         1 <1>         0.103600 
      9 C           2.618000    2.356000    0.944000 C.ar      1 <1>        -0.029200 
     10 N           1.512000    2.828000    0.265000 N.pl3     1 <1>        -0.052600 
     11 C           1.884000    4.072000   -0.212000 C.ar      1 <1>         0.040000 
     12 H           1.214000    4.692000   -0.794000 H         1 <1>         0.178900 
     13 N           3.130000    4.384000    0.081000 N.ar      1 <1>        -0.357900 
     14 C           3.595000    3.318000    0.799000 C.ar      1 <1>        -0.013100 
     15 H           4.603000    3.296000    1.199000 H         1 <1>         0.146500 
     16 C           1.059000   -1.478000   -0.663000 C.ar      1 <1>        -0.110500 
     17 C           1.512000   -2.688000   -0.117000 C.ar      1 <1>         0.004600 
     18 H           1.907000   -2.723000    0.896000 H         1 <1>         0.097900 
     19 C           1.457000   -3.866000   -0.868000 C.ar      1 <1>        -0.203500 
     20 H           1.809000   -4.801000   -0.434000 H         1 <1>         0.128400 
     21 C           0.954000   -3.848000   -2.169000 C.ar      1 <1>        -0.009300 
     22 H           0.914000   -4.767000   -2.750000 H         1 <1>         0.109800 
     23 C           0.506000   -2.651000   -2.724000 C.ar      1 <1>        -0.302700 
     24 H           0.117000   -2.625000   -3.738000 H         1 <1>         0.166000 
     25 C           0.562000   -1.478000   -1.973000 C.ar      1 <1>         0.388300 
     26 F           0.138000   -0.337000   -2.538000 F         1 <1>        -0.245900 
     27 C          -1.262000    0.305000    0.101000 C.ar      1 <1>         0.112100 
     28 H          -1.447000   -0.767000    0.139000 H         1 <1>         0.074800 
     29 C          -2.360000    1.156000   -0.029000 C.ar      1 <1>        -0.467300 
     30 C          -2.175000    2.527000   -0.100000 C.ar      1 <1>         0.212200 
     31 H          -3.024000    3.199000   -0.203000 H         1 <1>         0.055400 
     32 C          -0.885000    3.052000   -0.022000 C.ar      1 <1>        -0.270900 
     33 H          -0.790000    4.136000   -0.040000 H         1 <1>         0.144300 
     34 Cl         -3.948000    0.499000   -0.114000 Cl        1 <1>         0.091700 
@<TRIPOS>BOND
     1    1    2 ar   
     2    2    3 1    
     3    3    4 2    
     4    4    5 1    
     5    4    6 1    
     6    6    7 1    
     7    6    8 1    
     8    6    9 1    
     9    9   10 ar   
    10   10    1 1    
    11   10   11 ar   
    12   11   12 1    
    13   11   13 ar   
    14   13   14 ar   
    15   14   15 1    
    16   14    9 ar   
    17    3   16 1    
    18   16   17 ar   
    19   17   18 1    
    20   17   19 ar   
    21   19   20 1    
    22   19   21 ar   
    23   21   22 1    
    24   21   23 ar   
    25   23   24 1    
    26   23   25 ar   
    27   25   16 ar   
    28   25   26 1    
    29    2   27 ar   
    30   27   28 1    
    31   27   29 ar   
    32   29   30 ar   
    33   30   31 1    
    34   30   32 ar   
    35   32   33 1    
    36   32    1 ar   
    37   29   34 1    
@<TRIPOS>SUBSTRUCTURE
     1 ****        1 TEMP              0 ****  ****    0 ROOT 
@<TRIPOS>SET
UNITY_3DHIT     STATIC     ATOMS    <user>   **** Atoms matching 3D or FLEX Search
0
@<TRIPOS>UNITY_BOND_ATTR
3 1
S N
