#	Name:			Ro14-0609
#	Creating user name:	jeff
#	Creation time:		Tue Nov  4 15:19:58 2003

#	Modifying user name:	jeff
#	Modification time:	Tue Nov  4 15:19:58 2003

@<TRIPOS>MOLECULE
Ro14-0609
   38    41     1     0     1
SMALL
USER_CHARGES
****
From 3DB ct
@<TRIPOS>ATOM
      1 C           0.262000    2.052000   -0.016000 C.ar      1 <1>         0.163700 
      2 C          -0.015000    0.706000    0.315000 C.ar      1 <1>         0.036200 
      3 C           0.979000   -0.425000    0.617000 C.3       1 <1>        -0.161500 
      4 H           0.572000   -0.887000    1.531000 H         1 <1>         0.085600 
      5 C           2.439000   -0.115000    0.986000 C.3       1 <1>         0.025700 
      6 H           3.076000   -0.055000    0.093000 H         1 <1>         0.053200 
      7 H           2.832000   -0.962000    1.566000 H         1 <1>         0.032600 
      8 C           2.579000    1.152000    1.805000 C.3       1 <1>        -0.115200 
      9 H           3.532000    1.123000    2.349000 H         1 <1>         0.067400 
     10 H           1.789000    1.253000    2.557000 H         1 <1>         0.064500 
     11 C           2.599000    2.305000    0.877000 C.ar      1 <1>         0.204900 
     12 N           1.567000    2.623000    0.014000 N.pl3     1 <1>        -0.257800 
     13 C           2.091000    3.664000   -0.749000 C.ar      1 <1>         0.349300 
     14 N           3.276000    4.008000   -0.280000 N.ar      1 <1>        -0.260400 
     15 N           3.595000    3.156000    0.734000 N.ar      1 <1>        -0.229700 
     16 C           1.486000    4.235000   -1.981000 C.3       1 <1>        -0.320200 
     17 H           2.278000    4.580000   -2.655000 H         1 <1>         0.109500 
     18 H           0.860000    5.099000   -1.742000 H         1 <1>         0.100000 
     19 H           0.897000    3.496000   -2.530000 H         1 <1>         0.109600 
     20 C           0.973000   -1.495000   -0.476000 C.ar      1 <1>        -0.164000 
     21 C           1.450000   -2.788000   -0.205000 C.ar      1 <1>        -0.009800 
     22 H           1.828000   -3.043000    0.785000 H         1 <1>         0.114400 
     23 C           1.446000   -3.770000   -1.200000 C.ar      1 <1>        -0.213000 
     24 H           1.816000   -4.769000   -0.976000 H         1 <1>         0.130300 
     25 C           0.969000   -3.474000   -2.476000 C.ar      1 <1>         0.012300 
     26 H           0.967000   -4.241000   -3.249000 H         1 <1>         0.104700 
     27 C           0.498000   -2.195000   -2.761000 C.ar      1 <1>        -0.296600 
     28 H           0.128000   -1.952000   -3.754000 H         1 <1>         0.160800 
     29 C           0.504000   -1.220000   -1.768000 C.ar      1 <1>         0.373600 
     30 F           0.056000    0.007000   -2.072000 F         1 <1>        -0.232900 
     31 C          -1.379000    0.298000    0.322000 C.ar      1 <1>         0.123600 
     32 H          -1.630000   -0.733000    0.572000 H         1 <1>         0.057000 
     33 C          -2.417000    1.170000    0.005000 C.ar      1 <1>        -0.440200 
     34 C          -2.136000    2.484000   -0.318000 C.ar      1 <1>         0.181900 
     35 H          -2.935000    3.184000   -0.550000 H         1 <1>         0.064000 
     36 C          -0.810000    2.921000   -0.321000 C.ar      1 <1>        -0.245800 
     37 H          -0.652000    3.981000   -0.509000 H         1 <1>         0.131800 
     38 Cl         -4.045000    0.615000    0.024000 Cl        1 <1>         0.090200 
@<TRIPOS>BOND
     1    1    2 ar   
     2    2    3 1    
     3    3    4 1    
     4    3    5 1    
     5    5    6 1    
     6    5    7 1    
     7    5    8 1    
     8    8    9 1    
     9    8   10 1    
    10    8   11 1    
    11   11   12 ar   
    12   12    1 1    
    13   12   13 ar   
    14   13   14 ar   
    15   14   15 ar   
    16   15   11 ar   
    17   13   16 1    
    18   16   17 1    
    19   16   18 1    
    20   16   19 1    
    21    3   20 1    
    22   20   21 ar   
    23   21   22 1    
    24   21   23 ar   
    25   23   24 1    
    26   23   25 ar   
    27   25   26 1    
    28   25   27 ar   
    29   27   28 1    
    30   27   29 ar   
    31   29   20 ar   
    32   29   30 1    
    33    2   31 ar   
    34   31   32 1    
    35   31   33 ar   
    36   33   34 ar   
    37   34   35 1    
    38   34   36 ar   
    39   36   37 1    
    40   36    1 ar   
    41   33   38 1    
@<TRIPOS>SUBSTRUCTURE
     1 ****        1 TEMP              0 ****  ****    0 ROOT 
@<TRIPOS>SET
UNITY_3DHIT     STATIC     ATOMS    <user>   **** Atoms matching 3D or FLEX Search
0
