#	Name:			Ro14-1359
#	Creating user name:	jeff
#	Creation time:		Tue Nov  4 15:19:58 2003

#	Modifying user name:	jeff
#	Modification time:	Tue Nov  4 15:19:58 2003

@<TRIPOS>MOLECULE
Ro14-1359
   31    33     1     0     1
SMALL
USER_CHARGES
****
From 3DB ct
@<TRIPOS>ATOM
      1 C           0.264000    2.161000    0.182000 C.ar      1 <1>         0.376600 
      2 C           0.047000    0.764000    0.197000 C.ar      1 <1>        -0.072900 
      3 C           1.126000   -0.268000    0.161000 C.2       1 <1>        -0.133200 
      4 C           2.266000   -0.106000    0.857000 C.2       1 <1>         0.041600 
      5 H           3.055000   -0.856000    0.809000 H         1 <1>         0.077900 
      6 C           2.559000    1.063000    1.733000 C.3       1 <1>        -0.265800 
      7 H           3.518000    0.908000    2.240000 H         1 <1>         0.097300 
      8 H           1.802000    1.185000    2.515000 H         1 <1>         0.094200 
      9 C           2.658000    2.324000    0.900000 C.2       1 <1>         0.630100 
     10 N           1.518000    2.792000    0.305000 N.am      1 <1>        -0.635000 
     11 H           1.591000    3.748000   -0.034000 H         1 <1>         0.328000 
     12 O           3.712000    2.966000    0.820000 O.2       1 <1>        -0.455500 
     13 C           1.051000   -1.504000   -0.663000 C.ar      1 <1>        -0.156000 
     14 C           1.533000   -2.712000   -0.141000 C.ar      1 <1>         0.020500 
     15 H           1.948000   -2.753000    0.865000 H         1 <1>         0.094000 
     16 C           1.483000   -3.883000   -0.904000 C.ar      1 <1>        -0.208100 
     17 H           1.859000   -4.817000   -0.488000 H         1 <1>         0.129000 
     18 C           0.956000   -3.857000   -2.195000 C.ar      1 <1>        -0.002800 
     19 H           0.919000   -4.770000   -2.787000 H         1 <1>         0.108300 
     20 C           0.478000   -2.661000   -2.727000 C.ar      1 <1>        -0.300600 
     21 H           0.069000   -2.630000   -3.733000 H         1 <1>         0.163900 
     22 C           0.529000   -1.497000   -1.964000 C.ar      1 <1>         0.393900 
     23 F           0.076000   -0.356000   -2.506000 F         1 <1>        -0.243000 
     24 C          -1.282000    0.297000    0.109000 C.ar      1 <1>         0.191500 
     25 H          -1.490000   -0.771000    0.130000 H         1 <1>         0.066500 
     26 C          -2.353000    1.180000   -0.028000 C.ar      1 <1>        -0.515900 
     27 C          -2.128000    2.547000   -0.097000 C.ar      1 <1>         0.260700 
     28 H          -2.954000    3.243000   -0.218000 H         1 <1>         0.050100 
     29 C          -0.824000    3.032000    0.000000 C.ar      1 <1>        -0.384300 
     30 H          -0.670000    4.110000   -0.040000 H         1 <1>         0.161500 
     31 Cl         -3.958000    0.569000   -0.139000 Cl        1 <1>         0.087700 
@<TRIPOS>BOND
     1    1    2 ar   
     2    2    3 1    
     3    3    4 2    
     4    4    5 1    
     5    4    6 1    
     6    6    7 1    
     7    6    8 1    
     8    6    9 1    
     9    9   10 am   
    10   10   11 1    
    11   10    1 1    
    12    9   12 2    
    13    3   13 1    
    14   13   14 ar   
    15   14   15 1    
    16   14   16 ar   
    17   16   17 1    
    18   16   18 ar   
    19   18   19 1    
    20   18   20 ar   
    21   20   21 1    
    22   20   22 ar   
    23   22   13 ar   
    24   22   23 1    
    25    2   24 ar   
    26   24   25 1    
    27   24   26 ar   
    28   26   27 ar   
    29   27   28 1    
    30   27   29 ar   
    31   29   30 1    
    32   29    1 ar   
    33   26   31 1    
@<TRIPOS>SUBSTRUCTURE
     1 ****        1 TEMP              0 ****  ****    0 ROOT 
@<TRIPOS>SET
UNITY_3DHIT     STATIC     ATOMS    <user>   **** Atoms matching 3D or FLEX Search
0
@<TRIPOS>UNITY_BOND_ATTR
3 1
S N
