#	Name:			Ro14-7437
#	Creating user name:	jeff
#	Creation time:		Tue Nov  4 15:20:02 2003

#	Modifying user name:	jeff
#	Modification time:	Tue Nov  4 15:20:02 2003

@<TRIPOS>MOLECULE
Ro14-7437
   36    38     1     0     1
SMALL
USER_CHARGES
****
From 3DB ct
@<TRIPOS>ATOM
      1 C           0.191000    2.175000    0.070000 C.ar      1 <1>         0.180500 
      2 C           0.020000    0.786000    0.239000 C.ar      1 <1>        -0.150200 
      3 C           1.116000   -0.223000    0.402000 C.2       1 <1>         0.514800 
      4 N           2.249000    0.089000    1.136000 N.am      1 <1>        -0.266900 
      5 C           2.344000    1.269000    1.960000 C.3       1 <1>        -0.142000 
      6 H           1.435000    1.357000    2.568000 H         1 <1>         0.108100 
      7 H           3.179000    1.171000    2.657000 H         1 <1>         0.148200 
      8 C           2.481000    2.418000    1.049000 C.ar      1 <1>        -0.014500 
      9 N           1.451000    2.809000    0.221000 N.pl3     1 <1>        -0.119500 
     10 C           1.869000    3.974000   -0.379000 C.ar      1 <1>         0.085200 
     11 H           1.262000    4.526000   -1.085000 H         1 <1>         0.177800 
     12 N           3.094000    4.303000   -0.041000 N.ar      1 <1>        -0.354600 
     13 C           3.512000    3.326000    0.845000 C.ar      1 <1>        -0.000700 
     14 C           4.841000    3.314000    1.465000 C.2       1 <1>         0.616600 
     15 O           5.696000    4.168000    1.252000 O.2       1 <1>        -0.428300 
     16 O           5.015000    2.250000    2.304000 O.3       1 <1>        -0.355800 
     17 C           6.293000    2.200000    2.945000 C.3       1 <1>         0.172800 
     18 H           7.082000    2.117000    2.190000 H         1 <1>         0.029500 
     19 H           6.446000    3.106000    3.541000 H         1 <1>         0.024100 
     20 C           6.321000    0.983000    3.850000 C.3       1 <1>        -0.131200 
     21 H           7.285000    0.898000    4.360000 H         1 <1>         0.039400 
     22 H           5.527000    1.043000    4.602000 H         1 <1>         0.042900 
     23 H           6.145000    0.069000    3.272000 H         1 <1>         0.040800 
     24 C           3.336000   -0.871000    1.232000 C.3       1 <1>        -0.051000 
     25 H           4.283000   -0.355000    1.050000 H         1 <1>         0.058200 
     26 H           3.338000   -1.298000    2.239000 H         1 <1>         0.043400 
     27 H           3.232000   -1.680000    0.504000 H         1 <1>         0.084600 
     28 O           0.965000   -1.320000   -0.136000 O.2       1 <1>        -0.428200 
     29 C          -1.272000    0.242000    0.092000 C.ar      1 <1>        -0.050700 
     30 H          -1.424000   -0.833000    0.189000 H         1 <1>         0.137100 
     31 C          -2.370000    1.049000   -0.207000 C.ar      1 <1>        -0.133400 
     32 H          -3.356000    0.605000   -0.317000 H         1 <1>         0.118900 
     33 C          -2.192000    2.414000   -0.389000 C.ar      1 <1>        -0.027700 
     34 H          -3.045000    3.045000   -0.630000 H         1 <1>         0.109900 
     35 C          -0.921000    2.977000   -0.259000 C.ar      1 <1>        -0.213400 
     36 H          -0.836000    4.054000   -0.384000 H         1 <1>         0.135300 
@<TRIPOS>BOND
     1    1    2 ar   
     2    2    3 1    
     3    3    4 am   
     4    4    5 1    
     5    5    6 1    
     6    5    7 1    
     7    5    8 1    
     8    8    9 ar   
     9    9    1 1    
    10    9   10 ar   
    11   10   11 1    
    12   10   12 ar   
    13   12   13 ar   
    14   13    8 ar   
    15   13   14 1    
    16   14   15 2    
    17   14   16 1    
    18   16   17 1    
    19   17   18 1    
    20   17   19 1    
    21   17   20 1    
    22   20   21 1    
    23   20   22 1    
    24   20   23 1    
    25    4   24 1    
    26   24   25 1    
    27   24   26 1    
    28   24   27 1    
    29    3   28 2    
    30    2   29 ar   
    31   29   30 1    
    32   29   31 ar   
    33   31   32 1    
    34   31   33 ar   
    35   33   34 1    
    36   33   35 ar   
    37   35   36 1    
    38   35    1 ar   
@<TRIPOS>SUBSTRUCTURE
     1 ****        1 TEMP              0 ****  ****    0 ROOT 
@<TRIPOS>SET
UNITY_3DHIT     STATIC     ATOMS    <user>   **** Atoms matching 3D or FLEX Search
0
