#	Name:			Ro14-0304
#	Creating user name:	jeff
#	Creation time:		Tue Nov  4 15:19:58 2003

#	Modifying user name:	jeff
#	Modification time:	Tue Nov  4 15:19:58 2003

@<TRIPOS>MOLECULE
Ro14-0304
   36    39     1     0     1
SMALL
USER_CHARGES
****
From 3DB ct
@<TRIPOS>ATOM
      1 C           0.244000    2.204000    0.092000 C.ar      1 <1>         0.156100 
      2 C           0.052000    0.801000    0.141000 C.ar      1 <1>         0.107500 
      3 C           1.126000   -0.242000    0.150000 C.2       1 <1>        -0.269800 
      4 C           2.230000   -0.106000    0.910000 C.2       1 <1>         0.122700 
      5 H           2.998000   -0.879000    0.914000 H         1 <1>         0.071500 
      6 C           2.545000    1.092000    1.747000 C.3       1 <1>        -0.272600 
      7 H           3.522000    0.936000    2.221000 H         1 <1>         0.110300 
      8 H           1.824000    1.183000    2.568000 H         1 <1>         0.096600 
      9 C           2.596000    2.343000    0.952000 C.ar      1 <1>         0.310300 
     10 N           1.535000    2.800000    0.190000 N.pl3     1 <1>        -0.285100 
     11 C           2.018000    3.972000   -0.383000 C.ar      1 <1>         0.331300 
     12 N           3.238000    4.213000    0.063000 N.ar      1 <1>        -0.252700 
     13 N           3.601000    3.195000    0.894000 N.ar      1 <1>        -0.250300 
     14 C           1.337000    4.777000   -1.428000 C.3       1 <1>        -0.300200 
     15 H           2.082000    5.295000   -2.042000 H         1 <1>         0.105300 
     16 H           0.699000    5.542000   -0.975000 H         1 <1>         0.096400 
     17 H           0.740000    4.155000   -2.101000 H         1 <1>         0.108400 
     18 C           1.061000   -1.485000   -0.665000 C.ar      1 <1>        -0.103400 
     19 C           1.477000   -2.700000   -0.100000 C.ar      1 <1>         0.019200 
     20 H           1.831000   -2.738000    0.929000 H         1 <1>         0.094500 
     21 C           1.439000   -3.879000   -0.850000 C.ar      1 <1>        -0.214900 
     22 H           1.762000   -4.817000   -0.402000 H         1 <1>         0.132200 
     23 C           0.989000   -3.857000   -2.171000 C.ar      1 <1>        -0.004100 
     24 H           0.961000   -4.777000   -2.753000 H         1 <1>         0.110000 
     25 C           0.578000   -2.655000   -2.745000 C.ar      1 <1>        -0.295800 
     26 H           0.231000   -2.627000   -3.774000 H         1 <1>         0.165200 
     27 C           0.618000   -1.482000   -1.994000 C.ar      1 <1>         0.371900 
     28 F           0.232000   -0.337000   -2.578000 F         1 <1>        -0.241900 
     29 C          -1.274000    0.313000    0.091000 C.ar      1 <1>         0.142800 
     30 H          -1.466000   -0.758000    0.130000 H         1 <1>         0.066100 
     31 C          -2.365000    1.175000   -0.008000 C.ar      1 <1>        -0.456300 
     32 C          -2.169000    2.546000   -0.057000 C.ar      1 <1>         0.198100 
     33 H          -3.014000    3.227000   -0.120000 H         1 <1>         0.061200 
     34 C          -0.872000    3.059000   -0.003000 C.ar      1 <1>        -0.262600 
     35 H          -0.771000    4.141000    0.020000 H         1 <1>         0.141700 
     36 Cl         -3.961000    0.534000   -0.065000 Cl        1 <1>         0.090600 
@<TRIPOS>BOND
     1    1    2 ar   
     2    2    3 1    
     3    3    4 2    
     4    4    5 1    
     5    4    6 1    
     6    6    7 1    
     7    6    8 1    
     8    6    9 1    
     9    9   10 ar   
    10   10    1 1    
    11   10   11 ar   
    12   11   12 ar   
    13   12   13 ar   
    14   13    9 ar   
    15   11   14 1    
    16   14   15 1    
    17   14   16 1    
    18   14   17 1    
    19    3   18 1    
    20   18   19 ar   
    21   19   20 1    
    22   19   21 ar   
    23   21   22 1    
    24   21   23 ar   
    25   23   24 1    
    26   23   25 ar   
    27   25   26 1    
    28   25   27 ar   
    29   27   18 ar   
    30   27   28 1    
    31    2   29 ar   
    32   29   30 1    
    33   29   31 ar   
    34   31   32 ar   
    35   32   33 1    
    36   32   34 ar   
    37   34   35 1    
    38   34    1 ar   
    39   31   36 1    
@<TRIPOS>SUBSTRUCTURE
     1 ****        1 TEMP              0 ****  ****    0 ROOT 
@<TRIPOS>SET
UNITY_3DHIT     STATIC     ATOMS    <user>   **** Atoms matching 3D or FLEX Search
0
@<TRIPOS>UNITY_BOND_ATTR
3 1
S N
