#	Name:			Ro14-7187
#	Creating user name:	jeff
#	Creation time:		Tue Nov  4 15:19:58 2003

#	Modifying user name:	jeff
#	Modification time:	Tue Nov  4 15:19:58 2003

@<TRIPOS>MOLECULE
Ro14-7187
   36    39     1     0     1
SMALL
USER_CHARGES
****
From 3DB ct
@<TRIPOS>ATOM
      1 C           0.246000    2.206000    0.087000 C.ar      1 <1>        -0.013800 
      2 C           0.050000    0.804000    0.125000 C.ar      1 <1>         0.305200 
      3 C           1.119000   -0.245000    0.143000 C.2       1 <1>        -0.392900 
      4 C           2.212000   -0.116000    0.921000 C.2       1 <1>         0.142700 
      5 H           2.978000   -0.890000    0.931000 H         1 <1>         0.070600 
      6 C           2.519000    1.079000    1.766000 C.3       1 <1>        -0.293000 
      7 H           3.490000    0.918000    2.253000 H         1 <1>         0.109800 
      8 H           1.788000    1.170000    2.578000 H         1 <1>         0.106100 
      9 C           2.587000    2.333000    0.977000 C.ar      1 <1>         0.296800 
     10 N           1.538000    2.796000    0.203000 N.pl3     1 <1>        -0.225800 
     11 C           2.031000    3.970000   -0.358000 C.ar      1 <1>         0.311500 
     12 N           3.247000    4.205000    0.104000 N.ar      1 <1>        -0.255800 
     13 N           3.595000    3.182000    0.935000 N.ar      1 <1>        -0.248200 
     14 C           1.365000    4.783000   -1.407000 C.3       1 <1>        -0.290900 
     15 H           2.119000    5.300000   -2.010000 H         1 <1>         0.101500 
     16 H           0.726000    5.548000   -0.957000 H         1 <1>         0.094900 
     17 H           0.773000    4.167000   -2.090000 H         1 <1>         0.103400 
     18 C           1.059000   -1.488000   -0.674000 C.ar      1 <1>         0.122500 
     19 C           0.544000   -1.437000   -1.977000 C.ar      1 <1>        -0.140200 
     20 H           0.201000   -0.493000   -2.399000 H         1 <1>         0.123800 
     21 C           0.468000   -2.595000   -2.755000 C.ar      1 <1>        -0.116600 
     22 H           0.069000   -2.545000   -3.766000 H         1 <1>         0.109900 
     23 C           0.901000   -3.814000   -2.236000 C.ar      1 <1>        -0.081600 
     24 H           0.840000   -4.716000   -2.842000 H         1 <1>         0.102100 
     25 C           1.410000   -3.878000   -0.940000 C.ar      1 <1>        -0.130800 
     26 H           1.745000   -4.830000   -0.533000 H         1 <1>         0.112600 
     27 C           1.488000   -2.721000   -0.161000 C.ar      1 <1>        -0.105700 
     28 H           1.879000   -2.791000    0.853000 H         1 <1>         0.104000 
     29 C          -1.278000    0.325000    0.057000 C.ar      1 <1>        -0.195400 
     30 H          -1.482000   -0.746000    0.084000 H         1 <1>         0.145900 
     31 C          -2.370000    1.188000   -0.048000 C.ar      1 <1>        -0.106600 
     32 H          -3.380000    0.784000   -0.097000 H         1 <1>         0.116100 
     33 C          -2.163000    2.558000   -0.086000 C.ar      1 <1>        -0.089700 
     34 H          -3.011000    3.236000   -0.154000 H         1 <1>         0.115500 
     35 C          -0.866000    3.065000   -0.015000 C.ar      1 <1>        -0.125600 
     36 H          -0.761000    4.147000    0.015000 H         1 <1>         0.117800 
@<TRIPOS>BOND
     1    1    2 ar   
     2    2    3 1    
     3    3    4 2    
     4    4    5 1    
     5    4    6 1    
     6    6    7 1    
     7    6    8 1    
     8    6    9 1    
     9    9   10 ar   
    10   10    1 1    
    11   10   11 ar   
    12   11   12 ar   
    13   12   13 ar   
    14   13    9 ar   
    15   11   14 1    
    16   14   15 1    
    17   14   16 1    
    18   14   17 1    
    19    3   18 1    
    20   18   19 ar   
    21   19   20 1    
    22   19   21 ar   
    23   21   22 1    
    24   21   23 ar   
    25   23   24 1    
    26   23   25 ar   
    27   25   26 1    
    28   25   27 ar   
    29   27   28 1    
    30   27   18 ar   
    31    2   29 ar   
    32   29   30 1    
    33   29   31 ar   
    34   31   32 1    
    35   31   33 ar   
    36   33   34 1    
    37   33   35 ar   
    38   35   36 1    
    39   35    1 ar   
@<TRIPOS>SUBSTRUCTURE
     1 ****        1 TEMP              0 ****  ****    0 ROOT 
@<TRIPOS>SET
UNITY_3DHIT     STATIC     ATOMS    <user>   **** Atoms matching 3D or FLEX Search
0
@<TRIPOS>UNITY_BOND_ATTR
3 1
S N
