#	Name:			Ro15-2427
#	Creating user name:	jeff
#	Creation time:		Tue Nov  4 15:20:02 2003

#	Modifying user name:	jeff
#	Modification time:	Tue Nov  4 15:20:02 2003

@<TRIPOS>MOLECULE
Ro15-2427
   31    33     1     0     1
SMALL
USER_CHARGES
****
From 3DB ct
@<TRIPOS>ATOM
      1 C           0.189000    2.174000    0.066000 C.ar      1 <1>         0.169200 
      2 C           0.021000    0.785000    0.240000 C.ar      1 <1>        -0.132700 
      3 C           1.119000   -0.222000    0.396000 C.2       1 <1>         0.493100 
      4 N           2.253000    0.091000    1.128000 N.am      1 <1>        -0.245400 
      5 C           2.354000    1.272000    1.950000 C.3       1 <1>        -0.115600 
      6 H           1.452000    1.359000    2.567000 H         1 <1>         0.108500 
      7 H           3.199000    1.178000    2.638000 H         1 <1>         0.124700 
      8 C           2.479000    2.422000    1.039000 C.ar      1 <1>        -0.051300 
      9 N           1.449000    2.809000    0.210000 N.pl3     1 <1>        -0.129000 
     10 C           1.865000    3.973000   -0.397000 C.ar      1 <1>         0.092600 
     11 H           1.254000    4.514000   -1.107000 H         1 <1>         0.176400 
     12 N           3.087000    4.312000   -0.056000 N.ar      1 <1>        -0.353000 
     13 C           3.497000    3.339000    0.840000 C.ar      1 <1>         0.003500 
     14 C           4.819000    3.361000    1.466000 C.2       1 <1>         0.663800 
     15 O           5.671000    4.218000    1.266000 O.2       1 <1>        -0.447300 
     16 N           5.030000    2.315000    2.317000 N.am      1 <1>        -0.802700 
     17 H           4.284000    1.647000    2.469000 H         1 <1>         0.339300 
     18 H           5.898000    2.249000    2.825000 H         1 <1>         0.330200 
     19 C           3.339000   -0.871000    1.223000 C.3       1 <1>        -0.069100 
     20 H           4.287000   -0.357000    1.037000 H         1 <1>         0.044900 
     21 H           3.342000   -1.296000    2.231000 H         1 <1>         0.051100 
     22 H           3.231000   -1.681000    0.497000 H         1 <1>         0.092200 
     23 O           0.969000   -1.317000   -0.147000 O.2       1 <1>        -0.424800 
     24 C          -1.271000    0.240000    0.103000 C.ar      1 <1>        -0.056200 
     25 H          -1.421000   -0.835000    0.206000 H         1 <1>         0.139300 
     26 C          -2.371000    1.045000   -0.192000 C.ar      1 <1>        -0.133900 
     27 H          -3.358000    0.600000   -0.295000 H         1 <1>         0.119600 
     28 C          -2.196000    2.411000   -0.377000 C.ar      1 <1>        -0.030600 
     29 H          -3.052000    3.040000   -0.613000 H         1 <1>         0.111000 
     30 C          -0.925000    2.974000   -0.257000 C.ar      1 <1>        -0.201300 
     31 H          -0.843000    4.052000   -0.381000 H         1 <1>         0.133500 
@<TRIPOS>BOND
     1    1    2 ar   
     2    2    3 1    
     3    3    4 am   
     4    4    5 1    
     5    5    6 1    
     6    5    7 1    
     7    5    8 1    
     8    8    9 ar   
     9    9    1 1    
    10    9   10 ar   
    11   10   11 1    
    12   10   12 ar   
    13   12   13 ar   
    14   13    8 ar   
    15   13   14 1    
    16   14   15 2    
    17   14   16 am   
    18   16   17 1    
    19   16   18 1    
    20    4   19 1    
    21   19   20 1    
    22   19   21 1    
    23   19   22 1    
    24    3   23 2    
    25    2   24 ar   
    26   24   25 1    
    27   24   26 ar   
    28   26   27 1    
    29   26   28 ar   
    30   28   29 1    
    31   28   30 ar   
    32   30   31 1    
    33   30    1 ar   
@<TRIPOS>SUBSTRUCTURE
     1 ****        1 TEMP              0 ****  ****    0 ROOT 
@<TRIPOS>SET
UNITY_3DHIT     STATIC     ATOMS    <user>   **** Atoms matching 3D or FLEX Search
0
