#	Name:			Ro15-2201
#	Creating user name:	jeff
#	Creation time:		Tue Nov  4 15:19:58 2003

#	Modifying user name:	jeff
#	Modification time:	Tue Nov  4 15:19:58 2003

@<TRIPOS>MOLECULE
Ro15-2201
   40    43     1     0     1
SMALL
USER_CHARGES
****
From 3DB ct
@<TRIPOS>ATOM
      1 C           0.239000    2.204000    0.120000 C.ar      1 <1>        -0.043300 
      2 C           0.050000    0.801000    0.150000 C.ar      1 <1>         0.289100 
      3 C           1.125000   -0.243000    0.147000 C.2       1 <1>        -0.349400 
      4 C           2.241000   -0.107000    0.889000 C.2       1 <1>         0.109600 
      5 H           3.013000   -0.876000    0.872000 H         1 <1>         0.077400 
      6 C           2.556000    1.075000    1.741000 C.3       1 <1>        -0.275900 
      7 H           3.505000    0.889000    2.253000 H         1 <1>         0.113600 
      8 H           1.813000    1.165000    2.544000 H         1 <1>         0.114000 
      9 C           2.616000    2.337000    0.959000 C.ar      1 <1>         0.007000 
     10 N           1.520000    2.813000    0.259000 N.pl3     1 <1>        -0.010400 
     11 C           1.904000    4.040000   -0.238000 C.ar      1 <1>         0.064200 
     12 H           1.243000    4.659000   -0.832000 H         1 <1>         0.176500 
     13 N           3.153000    4.336000    0.043000 N.ar      1 <1>        -0.359900 
     14 C           3.628000    3.277000    0.797000 C.ar      1 <1>        -0.050500 
     15 C           5.009000    3.190000    1.308000 C.2       1 <1>         0.638900 
     16 O           5.852000    4.064000    1.099000 O.2       1 <1>        -0.421300 
     17 O           5.351000    2.121000    2.100000 O.3       1 <1>        -0.295900 
     18 C           6.682000    1.989000    2.624000 C.3       1 <1>        -0.072700 
     19 H           6.607000    1.463000    3.580000 H         1 <1>         0.082300 
     20 H           7.145000    2.962000    2.814000 H         1 <1>         0.068800 
     21 H           7.285000    1.378000    1.948000 H         1 <1>         0.070400 
     22 C           1.058000   -1.484000   -0.672000 C.ar      1 <1>         0.124500 
     23 C           0.541000   -1.430000   -1.974000 C.ar      1 <1>        -0.133700 
     24 H           0.200000   -0.484000   -2.393000 H         1 <1>         0.118400 
     25 C           0.458000   -2.587000   -2.752000 C.ar      1 <1>        -0.118400 
     26 H           0.057000   -2.535000   -3.763000 H         1 <1>         0.110400 
     27 C           0.889000   -3.808000   -2.235000 C.ar      1 <1>        -0.084700 
     28 H           0.824000   -4.710000   -2.842000 H         1 <1>         0.102300 
     29 C           1.401000   -3.875000   -0.941000 C.ar      1 <1>        -0.126600 
     30 H           1.734000   -4.829000   -0.535000 H         1 <1>         0.111900 
     31 C           1.484000   -2.719000   -0.161000 C.ar      1 <1>        -0.115600 
     32 H           1.878000   -2.791000    0.852000 H         1 <1>         0.105700 
     33 C          -1.275000    0.317000    0.066000 C.ar      1 <1>        -0.193600 
     34 H          -1.475000   -0.754000    0.094000 H         1 <1>         0.143600 
     35 C          -2.369000    1.174000   -0.069000 C.ar      1 <1>        -0.108300 
     36 H          -3.376000    0.765000   -0.134000 H         1 <1>         0.117300 
     37 C          -2.167000    2.544000   -0.132000 C.ar      1 <1>        -0.077100 
     38 H          -3.015000    3.217000   -0.240000 H         1 <1>         0.112900 
     39 C          -0.874000    3.058000   -0.041000 C.ar      1 <1>        -0.144400 
     40 H          -0.769000    4.141000   -0.054000 H         1 <1>         0.122600 
@<TRIPOS>BOND
     1    1    2 ar   
     2    2    3 1    
     3    3    4 2    
     4    4    5 1    
     5    4    6 1    
     6    6    7 1    
     7    6    8 1    
     8    6    9 1    
     9    9   10 ar   
    10   10    1 1    
    11   10   11 ar   
    12   11   12 1    
    13   11   13 ar   
    14   13   14 ar   
    15   14    9 ar   
    16   14   15 1    
    17   15   16 2    
    18   15   17 1    
    19   17   18 1    
    20   18   19 1    
    21   18   20 1    
    22   18   21 1    
    23    3   22 1    
    24   22   23 ar   
    25   23   24 1    
    26   23   25 ar   
    27   25   26 1    
    28   25   27 ar   
    29   27   28 1    
    30   27   29 ar   
    31   29   30 1    
    32   29   31 ar   
    33   31   32 1    
    34   31   22 ar   
    35    2   33 ar   
    36   33   34 1    
    37   33   35 ar   
    38   35   36 1    
    39   35   37 ar   
    40   37   38 1    
    41   37   39 ar   
    42   39   40 1    
    43   39    1 ar   
@<TRIPOS>SUBSTRUCTURE
     1 ****        1 TEMP              0 ****  ****    0 ROOT 
@<TRIPOS>SET
UNITY_3DHIT     STATIC     ATOMS    <user>   **** Atoms matching 3D or FLEX Search
0
@<TRIPOS>UNITY_BOND_ATTR
3 1
S N
