#	Name:			Ro15-1310
#	Creating user name:	jeff
#	Creation time:		Tue Nov  4 15:20:02 2003

#	Modifying user name:	jeff
#	Modification time:	Tue Nov  4 15:20:02 2003

@<TRIPOS>MOLECULE
Ro15-1310
   36    38     1     0     1
SMALL
USER_CHARGES
****
From 3DB ct
@<TRIPOS>ATOM
      1 C           0.191000    2.176000    0.067000 C.ar      1 <1>         0.292400 
      2 C           0.020000    0.787000    0.242000 C.ar      1 <1>        -0.253800 
      3 C           1.117000   -0.220000    0.402000 C.2       1 <1>         0.511900 
      4 N           2.245000    0.092000    1.140000 N.am      1 <1>        -0.266300 
      5 C           2.341000    1.272000    1.963000 C.3       1 <1>        -0.139900 
      6 H           1.432000    1.362000    2.571000 H         1 <1>         0.106700 
      7 H           3.176000    1.175000    2.661000 H         1 <1>         0.149300 
      8 C           2.478000    2.420000    1.050000 C.ar      1 <1>        -0.006700 
      9 N           1.451000    2.811000    0.219000 N.pl3     1 <1>        -0.154500 
     10 C           1.871000    3.974000   -0.383000 C.ar      1 <1>         0.095100 
     11 H           1.266000    4.525000   -1.091000 H         1 <1>         0.177300 
     12 N           3.095000    4.301000   -0.042000 N.ar      1 <1>        -0.351400 
     13 C           3.509000    3.326000    0.847000 C.ar      1 <1>         0.002900 
     14 C           4.835000    3.313000    1.472000 C.2       1 <1>         0.605900 
     15 O           5.691000    4.165000    1.261000 O.2       1 <1>        -0.422600 
     16 O           5.003000    2.249000    2.310000 O.3       1 <1>        -0.348400 
     17 C           6.279000    2.198000    2.953000 C.3       1 <1>         0.166700 
     18 H           7.071000    2.117000    2.201000 H         1 <1>         0.033400 
     19 H           6.431000    3.104000    3.551000 H         1 <1>         0.026300 
     20 C           6.304000    0.981000    3.856000 C.3       1 <1>        -0.143000 
     21 H           7.265000    0.894000    4.369000 H         1 <1>         0.044100 
     22 H           5.507000    1.042000    4.605000 H         1 <1>         0.045900 
     23 H           6.127000    0.069000    3.277000 H         1 <1>         0.043800 
     24 C           3.336000   -0.866000    1.231000 C.3       1 <1>        -0.042200 
     25 H           4.280000   -0.347000    1.041000 H         1 <1>         0.055700 
     26 H           3.346000   -1.289000    2.239000 H         1 <1>         0.043500 
     27 H           3.228000   -1.676000    0.506000 H         1 <1>         0.082000 
     28 O           0.967000   -1.312000   -0.145000 O.2       1 <1>        -0.417200 
     29 C          -1.270000    0.237000    0.103000 C.ar      1 <1>         0.231300 
     30 H          -1.416000   -0.837000    0.211000 H         1 <1>         0.081400 
     31 C          -2.360000    1.046000   -0.202000 C.ar      1 <1>        -0.494200 
     32 C          -2.190000    2.412000   -0.391000 C.ar      1 <1>         0.270200 
     33 H          -3.042000    3.043000   -0.632000 H         1 <1>         0.050000 
     34 C          -0.919000    2.977000   -0.265000 C.ar      1 <1>        -0.338600 
     35 H          -0.836000    4.055000   -0.393000 H         1 <1>         0.157000 
     36 Cl         -3.925000    0.352000   -0.359000 Cl        1 <1>         0.105800 
@<TRIPOS>BOND
     1    1    2 ar   
     2    2    3 1    
     3    3    4 am   
     4    4    5 1    
     5    5    6 1    
     6    5    7 1    
     7    5    8 1    
     8    8    9 ar   
     9    9    1 1    
    10    9   10 ar   
    11   10   11 1    
    12   10   12 ar   
    13   12   13 ar   
    14   13    8 ar   
    15   13   14 1    
    16   14   15 2    
    17   14   16 1    
    18   16   17 1    
    19   17   18 1    
    20   17   19 1    
    21   17   20 1    
    22   20   21 1    
    23   20   22 1    
    24   20   23 1    
    25    4   24 1    
    26   24   25 1    
    27   24   26 1    
    28   24   27 1    
    29    3   28 2    
    30    2   29 ar   
    31   29   30 1    
    32   29   31 ar   
    33   31   32 ar   
    34   32   33 1    
    35   32   34 ar   
    36   34   35 1    
    37   34    1 ar   
    38   31   36 1    
@<TRIPOS>SUBSTRUCTURE
     1 ****        1 TEMP              0 ****  ****    0 ROOT 
@<TRIPOS>SET
UNITY_3DHIT     STATIC     ATOMS    <user>   **** Atoms matching 3D or FLEX Search
0
