#	Name:			Ro15-1746
#	Creating user name:	jeff
#	Creation time:		Tue Nov  4 15:20:02 2003

#	Modifying user name:	jeff
#	Modification time:	Tue Nov  4 15:20:02 2003

@<TRIPOS>MOLECULE
Ro15-1746
   36    38     1     0     1
SMALL
USER_CHARGES
****
From 3DB ct
@<TRIPOS>ATOM
      1 C           0.191000    2.176000    0.069000 C.ar      1 <1>         0.102000 
      2 C           0.020000    0.787000    0.242000 C.ar      1 <1>        -0.055500 
      3 C           1.116000   -0.223000    0.403000 C.2       1 <1>         0.491600 
      4 N           2.250000    0.090000    1.135000 N.am      1 <1>        -0.258000 
      5 C           2.345000    1.269000    1.960000 C.3       1 <1>        -0.155100 
      6 H           1.437000    1.356000    2.569000 H         1 <1>         0.107800 
      7 H           3.181000    1.171000    2.657000 H         1 <1>         0.152000 
      8 C           2.480000    2.419000    1.050000 C.ar      1 <1>         0.027100 
      9 N           1.451000    2.811000    0.221000 N.pl3     1 <1>        -0.162900 
     10 C           1.869000    3.976000   -0.379000 C.ar      1 <1>         0.110000 
     11 H           1.263000    4.529000   -1.085000 H         1 <1>         0.176000 
     12 N           3.094000    4.302000   -0.040000 N.ar      1 <1>        -0.352000 
     13 C           3.511000    3.325000    0.846000 C.ar      1 <1>        -0.018300 
     14 C           4.841000    3.312000    1.465000 C.2       1 <1>         0.616900 
     15 O           5.695000    4.165000    1.250000 O.2       1 <1>        -0.423200 
     16 O           5.016000    2.249000    2.305000 O.3       1 <1>        -0.360100 
     17 C           6.295000    2.199000    2.943000 C.3       1 <1>         0.186400 
     18 H           7.082000    2.116000    2.187000 H         1 <1>         0.027700 
     19 H           6.448000    3.107000    3.539000 H         1 <1>         0.021100 
     20 C           6.324000    0.983000    3.849000 C.3       1 <1>        -0.144000 
     21 H           7.288000    0.899000    4.358000 H         1 <1>         0.042900 
     22 H           5.531000    1.044000    4.601000 H         1 <1>         0.045600 
     23 H           6.148000    0.069000    3.273000 H         1 <1>         0.043300 
     24 C           3.337000   -0.870000    1.229000 C.3       1 <1>        -0.055700 
     25 H           4.285000   -0.354000    1.046000 H         1 <1>         0.059100 
     26 H           3.339000   -1.298000    2.236000 H         1 <1>         0.046200 
     27 H           3.232000   -1.677000    0.500000 H         1 <1>         0.086500 
     28 O           0.964000   -1.318000   -0.136000 O.2       1 <1>        -0.421100 
     29 C          -1.272000    0.241000    0.097000 C.ar      1 <1>        -0.169700 
     30 H          -1.424000   -0.834000    0.199000 H         1 <1>         0.158600 
     31 C          -2.371000    1.047000   -0.209000 C.ar      1 <1>         0.164700 
     32 H          -3.355000    0.598000   -0.320000 H         1 <1>         0.057900 
     33 C          -2.188000    2.411000   -0.391000 C.ar      1 <1>        -0.392300 
     34 C          -0.921000    2.979000   -0.262000 C.ar      1 <1>         0.060000 
     35 H          -0.831000    4.056000   -0.384000 H         1 <1>         0.081400 
     36 Cl         -3.537000    3.410000   -0.771000 Cl        1 <1>         0.103200 
@<TRIPOS>BOND
     1    1    2 ar   
     2    2    3 1    
     3    3    4 am   
     4    4    5 1    
     5    5    6 1    
     6    5    7 1    
     7    5    8 1    
     8    8    9 ar   
     9    9    1 1    
    10    9   10 ar   
    11   10   11 1    
    12   10   12 ar   
    13   12   13 ar   
    14   13    8 ar   
    15   13   14 1    
    16   14   15 2    
    17   14   16 1    
    18   16   17 1    
    19   17   18 1    
    20   17   19 1    
    21   17   20 1    
    22   20   21 1    
    23   20   22 1    
    24   20   23 1    
    25    4   24 1    
    26   24   25 1    
    27   24   26 1    
    28   24   27 1    
    29    3   28 2    
    30    2   29 ar   
    31   29   30 1    
    32   29   31 ar   
    33   31   32 1    
    34   31   33 ar   
    35   33   34 ar   
    36   34   35 1    
    37   34    1 ar   
    38   33   36 1    
@<TRIPOS>SUBSTRUCTURE
     1 ****        1 TEMP              0 ****  ****    0 ROOT 
@<TRIPOS>SET
UNITY_3DHIT     STATIC     ATOMS    <user>   **** Atoms matching 3D or FLEX Search
0
