#	Name:			Ro15-3505
#	Creating user name:	jeff
#	Creation time:		Tue Nov  4 15:20:02 2003

#	Modifying user name:	jeff
#	Modification time:	Tue Nov  4 15:20:02 2003

@<TRIPOS>MOLECULE
Ro15-3505
   36    38     1     0     1
SMALL
USER_CHARGES
****
From 3DB ct
@<TRIPOS>ATOM
      1 C           0.183000    2.155000    0.037000 C.ar      1 <1>         0.001200 
      2 C           0.000000    0.775000    0.287000 C.ar      1 <1>         0.279600 
      3 C           1.150000   -0.172000    0.369000 C.2       1 <1>         0.315500 
      4 N           2.182000    0.083000    1.264000 N.am      1 <1>        -0.233400 
      5 C           2.257000    1.305000    2.028000 C.3       1 <1>        -0.256800 
      6 H           1.320000    1.437000    2.583000 H         1 <1>         0.113100 
      7 H           3.053000    1.234000    2.773000 H         1 <1>         0.189000 
      8 C           2.448000    2.407000    1.062000 C.ar      1 <1>         0.061700 
      9 N           1.452000    2.775000    0.179000 N.pl3     1 <1>        -0.090100 
     10 C           1.906000    3.902000   -0.462000 C.ar      1 <1>         0.064700 
     11 H           1.326000    4.436000   -1.202000 H         1 <1>         0.187900 
     12 N           3.132000    4.216000   -0.110000 N.ar      1 <1>        -0.347500 
     13 C           3.506000    3.275000    0.833000 C.ar      1 <1>        -0.023300 
     14 C           4.822000    3.253000    1.480000 C.2       1 <1>         0.619800 
     15 O           5.707000    4.069000    1.240000 O.2       1 <1>        -0.424900 
     16 O           4.948000    2.231000    2.376000 O.3       1 <1>        -0.369000 
     17 C           6.205000    2.186000    3.054000 C.3       1 <1>         0.179800 
     18 H           7.016000    2.059000    2.327000 H         1 <1>         0.031400 
     19 H           6.357000    3.114000    3.616000 H         1 <1>         0.022700 
     20 C           6.187000    1.008000    4.009000 C.3       1 <1>        -0.135300 
     21 H           7.132000    0.936000    4.557000 H         1 <1>         0.041100 
     22 H           5.368000    1.106000    4.729000 H         1 <1>         0.042800 
     23 H           6.023000    0.073000    3.465000 H         1 <1>         0.040900 
     24 C           3.376000   -0.747000    1.224000 C.3       1 <1>         0.051800 
     25 H           4.162000   -0.208000    0.686000 H         1 <1>         0.032400 
     26 H           3.703000   -0.951000    2.248000 H         1 <1>         0.020000 
     27 H           3.190000   -1.698000    0.719000 H         1 <1>         0.062200 
     28 O           1.165000   -1.121000   -0.412000 O.2       1 <1>        -0.374800 
     29 C          -1.303000    0.245000    0.250000 C.ar      1 <1>        -0.452800 
     30 C          -2.392000    1.062000   -0.077000 C.ar      1 <1>         0.143700 
     31 H          -3.398000    0.650000   -0.106000 H         1 <1>         0.064300 
     32 C          -2.196000    2.408000   -0.379000 C.ar      1 <1>        -0.139700 
     33 H          -3.048000    3.034000   -0.640000 H         1 <1>         0.131000 
     34 C          -0.916000    2.956000   -0.321000 C.ar      1 <1>        -0.103000 
     35 H          -0.815000    4.023000   -0.514000 H         1 <1>         0.122300 
     36 Cl         -1.668000   -1.398000    0.657000 Cl        1 <1>         0.131900 
@<TRIPOS>BOND
     1    1    2 ar   
     2    2    3 1    
     3    3    4 am   
     4    4    5 1    
     5    5    6 1    
     6    5    7 1    
     7    5    8 1    
     8    8    9 ar   
     9    9    1 1    
    10    9   10 ar   
    11   10   11 1    
    12   10   12 ar   
    13   12   13 ar   
    14   13    8 ar   
    15   13   14 1    
    16   14   15 2    
    17   14   16 1    
    18   16   17 1    
    19   17   18 1    
    20   17   19 1    
    21   17   20 1    
    22   20   21 1    
    23   20   22 1    
    24   20   23 1    
    25    4   24 1    
    26   24   25 1    
    27   24   26 1    
    28   24   27 1    
    29    3   28 2    
    30    2   29 ar   
    31   29   30 ar   
    32   30   31 1    
    33   30   32 ar   
    34   32   33 1    
    35   32   34 ar   
    36   34   35 1    
    37   34    1 ar   
    38   29   36 1    
@<TRIPOS>SUBSTRUCTURE
     1 ****        1 TEMP              0 ****  ****    0 ROOT 
@<TRIPOS>SET
UNITY_3DHIT     STATIC     ATOMS    <user>   **** Atoms matching 3D or FLEX Search
0
