#	Name:			Ro15-9270
#	Creating user name:	jeff
#	Creation time:		Tue Nov  4 15:19:58 2003

#	Modifying user name:	jeff
#	Modification time:	Tue Nov  4 15:19:58 2003

@<TRIPOS>MOLECULE
Ro15-9270
   38    41     1     0     1
SMALL
USER_CHARGES
****
From 3DB ct
@<TRIPOS>ATOM
      1 C           0.245000    2.198000    0.077000 C.ar      1 <1>        -0.048900 
      2 C           0.043000    0.795000    0.138000 C.ar      1 <1>         0.423500 
      3 C           1.114000   -0.251000    0.173000 C.2       1 <1>        -0.576400 
      4 C           2.217000   -0.109000    0.934000 C.2       1 <1>         0.149400 
      5 H           2.982000   -0.884000    0.948000 H         1 <1>         0.075800 
      6 C           2.528000    1.094000    1.764000 C.3       1 <1>        -0.222700 
      7 H           3.500000    0.939000    2.249000 H         1 <1>         0.098000 
      8 H           1.800000    1.195000    2.578000 H         1 <1>         0.102000 
      9 C           2.591000    2.337000    0.958000 C.ar      1 <1>         0.244300 
     10 N           1.539000    2.787000    0.180000 N.pl3     1 <1>        -0.189500 
     11 C           2.034000    3.949000   -0.405000 C.ar      1 <1>         0.328100 
     12 N           3.249000    4.193000    0.052000 N.ar      1 <1>        -0.253700 
     13 N           3.599000    3.186000    0.900000 N.ar      1 <1>        -0.225800 
     14 C           1.369000    4.740000   -1.472000 C.3       1 <1>        -0.310600 
     15 H           2.123000    5.240000   -2.088000 H         1 <1>         0.113400 
     16 H           0.733000    5.517000   -1.039000 H         1 <1>         0.090400 
     17 H           0.774000    4.110000   -2.139000 H         1 <1>         0.124600 
     18 C           1.062000   -1.505000   -0.630000 C.ar      1 <1>         0.543100 
     19 C           1.492000   -2.690000   -0.009000 C.ar      1 <1>        -0.309400 
     20 H           1.845000   -2.676000    1.021000 H         1 <1>         0.148900 
     21 C           1.470000   -3.905000   -0.699000 C.ar      1 <1>        -0.002900 
     22 H           1.805000   -4.816000   -0.205000 H         1 <1>         0.107100 
     23 C           1.021000   -3.951000   -2.016000 C.ar      1 <1>        -0.206900 
     24 H           1.004000   -4.898000   -2.553000 H         1 <1>         0.129700 
     25 C           0.595000   -2.783000   -2.648000 C.ar      1 <1>         0.172400 
     26 H           0.251000   -2.831000   -3.679000 H         1 <1>         0.063000 
     27 C           0.614000   -1.564000   -1.962000 C.ar      1 <1>        -0.519800 
     28 Cl          0.098000   -0.153000   -2.822000 Cl        1 <1>         0.083600 
     29 C          -1.285000    0.313000    0.072000 C.ar      1 <1>        -0.261600 
     30 H          -1.473000   -0.758000    0.115000 H         1 <1>         0.209400 
     31 C          -2.374000    1.187000   -0.050000 C.ar      1 <1>         0.015900 
     32 C          -2.166000    2.563000   -0.106000 C.ar      1 <1>        -0.133900 
     33 H          -2.995000    3.262000   -0.185000 H         1 <1>         0.175500 
     34 C          -0.863000    3.062000   -0.039000 C.ar      1 <1>        -0.103800 
     35 H          -0.751000    4.143000   -0.024000 H         1 <1>         0.135700 
     36 N          -3.740000    0.652000   -0.114000 N.2       1 <1>         0.592100 
     37 O          -3.902000   -0.576000    0.019000 O.2       1 <1>        -0.381400 
     38 O          -4.679000    1.449000   -0.299000 O.3       1 <1>        -0.378300 
@<TRIPOS>BOND
     1    1    2 ar   
     2    2    3 1    
     3    3    4 2    
     4    4    5 1    
     5    4    6 1    
     6    6    7 1    
     7    6    8 1    
     8    6    9 1    
     9    9   10 ar   
    10   10    1 1    
    11   10   11 ar   
    12   11   12 ar   
    13   12   13 ar   
    14   13    9 ar   
    15   11   14 1    
    16   14   15 1    
    17   14   16 1    
    18   14   17 1    
    19    3   18 1    
    20   18   19 ar   
    21   19   20 1    
    22   19   21 ar   
    23   21   22 1    
    24   21   23 ar   
    25   23   24 1    
    26   23   25 ar   
    27   25   26 1    
    28   25   27 ar   
    29   27   18 ar   
    30   27   28 1    
    31    2   29 ar   
    32   29   30 1    
    33   29   31 ar   
    34   31   32 ar   
    35   32   33 1    
    36   32   34 ar   
    37   34   35 1    
    38   34    1 ar   
    39   31   36 1    
    40   36   37 2    
    41   36   38 1    
@<TRIPOS>SUBSTRUCTURE
     1 ****        1 TEMP              0 ****  ****    0 ROOT 
@<TRIPOS>SET
UNITY_3DHIT     STATIC     ATOMS    <user>   **** Atoms matching 3D or FLEX Search
0
@<TRIPOS>UNITY_ATOM_ATTR
36 1
AtomExpr +1
38 1
AtomExpr -1
@<TRIPOS>UNITY_BOND_ATTR
3 1
S N
