#	Name:			Ro15-0791
#	Creating user name:	jeff
#	Creation time:		Tue Nov  4 15:19:58 2003

#	Modifying user name:	jeff
#	Modification time:	Tue Nov  4 15:19:58 2003

@<TRIPOS>MOLECULE
Ro15-0791
   43    46     1     0     1
SMALL
USER_CHARGES
****
From 3DB ct
@<TRIPOS>ATOM
      1 C           0.238000    2.204000    0.120000 C.ar      1 <1>        -0.028000 
      2 C           0.049000    0.801000    0.150000 C.ar      1 <1>         0.274700 
      3 C           1.124000   -0.243000    0.147000 C.2       1 <1>        -0.326300 
      4 C           2.240000   -0.108000    0.890000 C.2       1 <1>         0.085400 
      5 H           3.012000   -0.877000    0.873000 H         1 <1>         0.083000 
      6 C           2.554000    1.075000    1.741000 C.3       1 <1>        -0.242300 
      7 H           3.502000    0.888000    2.256000 H         1 <1>         0.113500 
      8 H           1.809000    1.166000    2.543000 H         1 <1>         0.104600 
      9 C           2.617000    2.335000    0.956000 C.ar      1 <1>        -0.005700 
     10 N           1.521000    2.812000    0.258000 N.pl3     1 <1>        -0.014700 
     11 C           1.906000    4.038000   -0.240000 C.ar      1 <1>         0.043200 
     12 H           1.244000    4.659000   -0.833000 H         1 <1>         0.182400 
     13 N           3.157000    4.330000    0.036000 N.ar      1 <1>        -0.352300 
     14 C           3.632000    3.272000    0.790000 C.ar      1 <1>        -0.016000 
     15 C           5.014000    3.176000    1.295000 C.2       1 <1>         0.623000 
     16 O           5.861000    4.045000    1.079000 O.2       1 <1>        -0.437500 
     17 O           5.363000    2.104000    2.078000 O.3       1 <1>        -0.378200 
     18 C           6.698000    1.954000    2.601000 C.3       1 <1>         0.227400 
     19 H           7.133000    2.927000    2.847000 H         1 <1>         0.015800 
     20 H           7.312000    1.427000    1.865000 H         1 <1>         0.013300 
     21 C           6.606000    1.113000    3.862000 C.3       1 <1>        -0.164100 
     22 H           7.596000    0.954000    4.298000 H         1 <1>         0.040700 
     23 H           6.155000    0.139000    3.645000 H         1 <1>         0.052500 
     24 H           5.967000    1.602000    4.605000 H         1 <1>         0.047600 
     25 C           1.057000   -1.485000   -0.672000 C.ar      1 <1>         0.110000 
     26 C           0.540000   -1.431000   -1.974000 C.ar      1 <1>        -0.128500 
     27 H           0.199000   -0.485000   -2.393000 H         1 <1>         0.117300 
     28 C           0.460000   -2.588000   -2.752000 C.ar      1 <1>        -0.121000 
     29 H           0.060000   -2.535000   -3.763000 H         1 <1>         0.111300 
     30 C           0.891000   -3.808000   -2.236000 C.ar      1 <1>        -0.084100 
     31 H           0.828000   -4.710000   -2.843000 H         1 <1>         0.102700 
     32 C           1.402000   -3.875000   -0.941000 C.ar      1 <1>        -0.126900 
     33 H           1.736000   -4.829000   -0.535000 H         1 <1>         0.111700 
     34 C           1.484000   -2.720000   -0.160000 C.ar      1 <1>        -0.111000 
     35 H           1.878000   -2.791000    0.852000 H         1 <1>         0.103900 
     36 C          -1.276000    0.318000    0.066000 C.ar      1 <1>        -0.191100 
     37 H          -1.477000   -0.753000    0.093000 H         1 <1>         0.144100 
     38 C          -2.370000    1.176000   -0.068000 C.ar      1 <1>        -0.109200 
     39 H          -3.376000    0.767000   -0.133000 H         1 <1>         0.117100 
     40 C          -2.167000    2.545000   -0.131000 C.ar      1 <1>        -0.076400 
     41 H          -3.015000    3.220000   -0.238000 H         1 <1>         0.112900 
     42 C          -0.874000    3.059000   -0.040000 C.ar      1 <1>        -0.149700 
     43 H          -0.768000    4.142000   -0.053000 H         1 <1>         0.124600 
@<TRIPOS>BOND
     1    1    2 ar   
     2    2    3 1    
     3    3    4 2    
     4    4    5 1    
     5    4    6 1    
     6    6    7 1    
     7    6    8 1    
     8    6    9 1    
     9    9   10 ar   
    10   10    1 1    
    11   10   11 ar   
    12   11   12 1    
    13   11   13 ar   
    14   13   14 ar   
    15   14    9 ar   
    16   14   15 1    
    17   15   16 2    
    18   15   17 1    
    19   17   18 1    
    20   18   19 1    
    21   18   20 1    
    22   18   21 1    
    23   21   22 1    
    24   21   23 1    
    25   21   24 1    
    26    3   25 1    
    27   25   26 ar   
    28   26   27 1    
    29   26   28 ar   
    30   28   29 1    
    31   28   30 ar   
    32   30   31 1    
    33   30   32 ar   
    34   32   33 1    
    35   32   34 ar   
    36   34   35 1    
    37   34   25 ar   
    38    2   36 ar   
    39   36   37 1    
    40   36   38 ar   
    41   38   39 1    
    42   38   40 ar   
    43   40   41 1    
    44   40   42 ar   
    45   42   43 1    
    46   42    1 ar   
@<TRIPOS>SUBSTRUCTURE
     1 ****        1 TEMP              0 ****  ****    0 ROOT 
@<TRIPOS>SET
UNITY_3DHIT     STATIC     ATOMS    <user>   **** Atoms matching 3D or FLEX Search
0
@<TRIPOS>UNITY_BOND_ATTR
3 1
S N
