#	Name:			Ro15-3929
#	Creating user name:	jeff
#	Creation time:		Tue Nov  4 15:19:58 2003

#	Modifying user name:	jeff
#	Modification time:	Tue Nov  4 15:19:58 2003

@<TRIPOS>MOLECULE
Ro15-3929
   43    46     1     0     1
SMALL
USER_CHARGES
****
From 3DB ct
@<TRIPOS>ATOM
      1 C           0.239000    2.201000    0.124000 C.ar      1 <1>         0.107200 
      2 C           0.053000    0.798000    0.169000 C.ar      1 <1>         0.114800 
      3 C           1.132000   -0.239000    0.154000 C.2       1 <1>        -0.236600 
      4 C           2.261000   -0.096000    0.874000 C.2       1 <1>         0.100200 
      5 H           3.033000   -0.865000    0.847000 H         1 <1>         0.078200 
      6 C           2.590000    1.089000    1.718000 C.3       1 <1>        -0.276100 
      7 H           3.558000    0.899000    2.192000 H         1 <1>         0.128100 
      8 H           1.874000    1.172000    2.546000 H         1 <1>         0.106100 
      9 C           2.626000    2.352000    0.938000 C.ar      1 <1>         0.019000 
     10 N           1.521000    2.815000    0.242000 N.pl3     1 <1>        -0.046300 
     11 C           1.893000    4.038000   -0.273000 C.ar      1 <1>         0.048200 
     12 H           1.224000    4.644000   -0.873000 H         1 <1>         0.185700 
     13 N           3.138000    4.352000    0.006000 N.ar      1 <1>        -0.344000 
     14 C           3.627000    3.303000    0.763000 C.ar      1 <1>        -0.030700 
     15 C           4.985000    3.277000    1.338000 C.2       1 <1>         0.628500 
     16 O           5.789000    4.197000    1.184000 O.2       1 <1>        -0.434700 
     17 O           5.386000    2.162000    2.031000 O.3       1 <1>        -0.372700 
     18 C           6.701000    2.075000    2.617000 C.3       1 <1>         0.209600 
     19 H           6.671000    2.501000    3.624000 H         1 <1>         0.016300 
     20 H           7.440000    2.595000    1.998000 H         1 <1>         0.022100 
     21 C           7.069000    0.606000    2.708000 C.3       1 <1>        -0.162200 
     22 H           8.058000    0.479000    3.161000 H         1 <1>         0.042200 
     23 H           7.074000    0.147000    1.714000 H         1 <1>         0.051200 
     24 H           6.334000    0.059000    3.308000 H         1 <1>         0.048700 
     25 C           1.057000   -1.480000   -0.662000 C.ar      1 <1>        -0.106500 
     26 C           1.508000   -2.691000   -0.117000 C.ar      1 <1>        -0.000200 
     27 H           1.899000   -2.727000    0.899000 H         1 <1>         0.099000 
     28 C           1.459000   -3.868000   -0.870000 C.ar      1 <1>        -0.199700 
     29 H           1.809000   -4.804000   -0.437000 H         1 <1>         0.128200 
     30 C           0.962000   -3.847000   -2.173000 C.ar      1 <1>        -0.011700 
     31 H           0.925000   -4.765000   -2.757000 H         1 <1>         0.110900 
     32 C           0.514000   -2.649000   -2.728000 C.ar      1 <1>        -0.297500 
     33 H           0.130000   -2.622000   -3.743000 H         1 <1>         0.166400 
     34 C           0.565000   -1.479000   -1.974000 C.ar      1 <1>         0.381400 
     35 F           0.142000   -0.336000   -2.538000 F         1 <1>        -0.247000 
     36 C          -1.271000    0.307000    0.109000 C.ar      1 <1>         0.128000 
     37 H          -1.460000   -0.765000    0.153000 H         1 <1>         0.069200 
     38 C          -2.364000    1.163000   -0.018000 C.ar      1 <1>        -0.455900 
     39 C          -2.171000    2.533000   -0.098000 C.ar      1 <1>         0.210900 
     40 H          -3.017000    3.209000   -0.200000 H         1 <1>         0.056900 
     41 C          -0.878000    3.051000   -0.030000 C.ar      1 <1>        -0.273500 
     42 H          -0.777000    4.135000   -0.054000 H         1 <1>         0.145800 
     43 Cl         -3.957000    0.515000   -0.090000 Cl        1 <1>         0.092500 
@<TRIPOS>BOND
     1    1    2 ar   
     2    2    3 1    
     3    3    4 2    
     4    4    5 1    
     5    4    6 1    
     6    6    7 1    
     7    6    8 1    
     8    6    9 1    
     9    9   10 ar   
    10   10    1 1    
    11   10   11 ar   
    12   11   12 1    
    13   11   13 ar   
    14   13   14 ar   
    15   14    9 ar   
    16   14   15 1    
    17   15   16 2    
    18   15   17 1    
    19   17   18 1    
    20   18   19 1    
    21   18   20 1    
    22   18   21 1    
    23   21   22 1    
    24   21   23 1    
    25   21   24 1    
    26    3   25 1    
    27   25   26 ar   
    28   26   27 1    
    29   26   28 ar   
    30   28   29 1    
    31   28   30 ar   
    32   30   31 1    
    33   30   32 ar   
    34   32   33 1    
    35   32   34 ar   
    36   34   25 ar   
    37   34   35 1    
    38    2   36 ar   
    39   36   37 1    
    40   36   38 ar   
    41   38   39 ar   
    42   39   40 1    
    43   39   41 ar   
    44   41   42 1    
    45   41    1 ar   
    46   38   43 1    
@<TRIPOS>SUBSTRUCTURE
     1 ****        1 TEMP              0 ****  ****    0 ROOT 
@<TRIPOS>SET
UNITY_3DHIT     STATIC     ATOMS    <user>   **** Atoms matching 3D or FLEX Search
0
@<TRIPOS>UNITY_BOND_ATTR
3 1
S N
