#	Name:			Ro15-4941
#	Creating user name:	jeff
#	Creation time:		Tue Nov  4 15:19:59 2003

#	Modifying user name:	jeff
#	Modification time:	Tue Nov  4 15:20:00 2003

@<TRIPOS>MOLECULE
Ro15-4941
   40    43     1     0     1
SMALL
USER_CHARGES
****
From 3DB ct
@<TRIPOS>ATOM
      1 C           0.265000    2.102000    0.026000 C.ar      1 <1>        -0.013700 
      2 C          -0.003000    0.743000    0.264000 C.ar      1 <1>         0.274100 
      3 C           1.067000   -0.279000    0.227000 C.2       1 <1>         0.324600 
      4 N           2.204000   -0.081000    0.971000 N.am      1 <1>        -0.297600 
      5 C           2.531000    1.067000    1.810000 C.3       1 <1>         0.107200 
      6 H           1.735000    1.184000    2.555000 H         1 <1>         0.055700 
      7 C           2.616000    2.278000    0.936000 C.ar      1 <1>        -0.092900 
      8 N           1.577000    2.643000    0.083000 N.pl3     1 <1>        -0.079100 
      9 C           2.006000    3.747000   -0.613000 C.ar      1 <1>         0.107600 
     10 H           1.430000    4.199000   -1.410000 H         1 <1>         0.174200 
     11 N           3.168000    4.178000   -0.200000 N.ar      1 <1>        -0.362000 
     12 C           3.541000    3.323000    0.822000 C.ar      1 <1>        -0.004200 
     13 C           4.726000    3.614000    1.639000 C.2       1 <1>         0.690500 
     14 O           5.440000    4.598000    1.478000 O.2       1 <1>        -0.450500 
     15 O           4.955000    2.647000    2.575000 O.3       1 <1>        -0.446700 
     16 C           6.115000    2.823000    3.397000 C.3       1 <1>         0.302600 
     17 H           6.412000    1.829000    3.747000 H         1 <1>        -0.017300 
     18 H           6.956000    3.223000    2.819000 H         1 <1>         0.013600 
     19 C           5.788000    3.704000    4.587000 C.3       1 <1>        -0.218400 
     20 H           6.649000    3.789000    5.256000 H         1 <1>         0.052200 
     21 H           5.497000    4.710000    4.264000 H         1 <1>         0.064900 
     22 H           4.943000    3.294000    5.150000 H         1 <1>         0.062000 
     23 C           3.838000    0.631000    2.487000 C.3       1 <1>        -0.004700 
     24 H           3.944000    1.044000    3.493000 H         1 <1>         0.054900 
     25 H           4.720000    0.906000    1.897000 H         1 <1>         0.053300 
     26 C           3.757000   -0.888000    2.513000 C.3       1 <1>        -0.220800 
     27 H           4.731000   -1.367000    2.642000 H         1 <1>         0.080700 
     28 H           3.096000   -1.213000    3.325000 H         1 <1>         0.077300 
     29 C           3.131000   -1.183000    1.167000 C.3       1 <1>         0.100400 
     30 H           3.872000   -1.144000    0.360000 H         1 <1>         0.038700 
     31 H           2.627000   -2.154000    1.143000 H         1 <1>         0.058600 
     32 O           0.915000   -1.268000   -0.486000 O.2       1 <1>        -0.388300 
     33 C          -1.343000    0.315000    0.347000 C.ar      1 <1>        -0.445200 
     34 C          -2.393000    1.216000    0.136000 C.ar      1 <1>         0.135400 
     35 H          -3.426000    0.881000    0.202000 H         1 <1>         0.063700 
     36 C          -2.123000    2.546000   -0.165000 C.ar      1 <1>        -0.133300 
     37 H          -2.942000    3.242000   -0.333000 H         1 <1>         0.129200 
     38 C          -0.803000    2.990000   -0.215000 C.ar      1 <1>        -0.099900 
     39 H          -0.639000    4.052000   -0.392000 H         1 <1>         0.120300 
     40 Cl         -1.798000   -1.299000    0.781000 Cl        1 <1>         0.133000 
@<TRIPOS>BOND
     1    1    2 ar   
     2    2    3 1    
     3    3    4 am   
     4    4    5 1    
     5    5    6 1    
     6    5    7 1    
     7    7    8 ar   
     8    8    1 1    
     9    8    9 ar   
    10    9   10 1    
    11    9   11 ar   
    12   11   12 ar   
    13   12    7 ar   
    14   12   13 1    
    15   13   14 2    
    16   13   15 1    
    17   15   16 1    
    18   16   17 1    
    19   16   18 1    
    20   16   19 1    
    21   19   20 1    
    22   19   21 1    
    23   19   22 1    
    24    5   23 1    
    25   23   24 1    
    26   23   25 1    
    27   23   26 1    
    28   26   27 1    
    29   26   28 1    
    30   26   29 1    
    31   29   30 1    
    32   29   31 1    
    33   29    4 1    
    34    3   32 2    
    35    2   33 ar   
    36   33   34 ar   
    37   34   35 1    
    38   34   36 ar   
    39   36   37 1    
    40   36   38 ar   
    41   38   39 1    
    42   38    1 ar   
    43   33   40 1    
@<TRIPOS>SUBSTRUCTURE
     1 ****        1 TEMP              0 ****  ****    0 ROOT 
@<TRIPOS>SET
UNITY_3DHIT     STATIC     ATOMS    <user>   **** Atoms matching 3D or FLEX Search
0
