#	Name:			Ro15-8670
#	Creating user name:	jeff
#	Creation time:		Tue Nov  4 15:19:57 2003

#	Modifying user name:	jeff
#	Modification time:	Tue Nov  4 15:19:57 2003

@<TRIPOS>MOLECULE
Ro15-8670
   42    45     1     0     1
SMALL
USER_CHARGES
****
From 3DB ct
@<TRIPOS>ATOM
      1 C           0.255000    2.168000    0.068000 C.ar      1 <1>         0.082700 
      2 C           0.049000    0.780000    0.198000 C.ar      1 <1>         0.010300 
      3 C           1.170000   -0.221000    0.224000 C.2       1 <1>         0.189000 
      4 N           2.254000   -0.118000    0.922000 N.2       1 <1>        -0.363300 
      5 C           2.435000    1.042000    1.780000 C.3       1 <1>         0.121800 
      6 H           3.318000    0.869000    2.402000 H         1 <1>         0.072500 
      7 H           1.601000    1.152000    2.485000 H         1 <1>         0.040200 
      8 C           2.596000    2.249000    0.940000 C.ar      1 <1>        -0.174800 
      9 N           1.546000    2.743000    0.191000 N.pl3     1 <1>        -0.033100 
     10 C           1.984000    3.934000   -0.343000 C.ar      1 <1>         0.064300 
     11 H           1.358000    4.556000   -0.970000 H         1 <1>         0.184100 
     12 N           3.239000    4.189000   -0.042000 N.ar      1 <1>        -0.370100 
     13 C           3.650000    3.137000    0.764000 C.ar      1 <1>         0.102600 
     14 C           4.997000    3.057000    1.343000 C.2       1 <1>         0.574100 
     15 O           5.876000    3.897000    1.174000 O.2       1 <1>        -0.426500 
     16 O           5.163000    1.924000    2.094000 O.3       1 <1>        -0.347900 
     17 C           6.466000    1.771000    2.675000 C.3       1 <1>         0.182300 
     18 H           6.670000    2.610000    3.348000 H         1 <1>         0.019300 
     19 H           7.222000    1.739000    1.882000 H         1 <1>         0.030900 
     20 C           6.484000    0.470000    3.453000 C.3       1 <1>        -0.140100 
     21 H           7.463000    0.300000    3.909000 H         1 <1>         0.036800 
     22 H           6.246000   -0.375000    2.797000 H         1 <1>         0.046300 
     23 H           5.725000    0.484000    4.242000 H         1 <1>         0.049800 
     24 C           1.046000   -1.437000   -0.644000 C.ar      1 <1>         0.060300 
     25 C           1.480000   -2.674000   -0.151000 C.ar      1 <1>        -0.155000 
     26 H           1.890000   -2.753000    0.854000 H         1 <1>         0.132300 
     27 C           1.377000   -3.817000   -0.944000 C.ar      1 <1>        -0.060300 
     28 H           1.708000   -4.780000   -0.558000 H         1 <1>         0.099200 
     29 C           0.851000   -3.727000   -2.233000 C.ar      1 <1>        -0.116100 
     30 H           0.774000   -4.619000   -2.853000 H         1 <1>         0.109500 
     31 C           0.430000   -2.494000   -2.733000 C.ar      1 <1>        -0.084100 
     32 H           0.028000   -2.425000   -3.742000 H         1 <1>         0.105000 
     33 C           0.530000   -1.346000   -1.943000 C.ar      1 <1>        -0.153700 
     34 H           0.214000   -0.392000   -2.357000 H         1 <1>         0.106900 
     35 C          -1.265000    0.277000    0.191000 C.ar      1 <1>         0.100700 
     36 H          -1.449000   -0.788000    0.317000 H         1 <1>         0.079100 
     37 C          -2.347000    1.133000    0.001000 C.ar      1 <1>        -0.424400 
     38 C          -2.142000    2.495000   -0.186000 C.ar      1 <1>         0.195800 
     39 H          -2.983000    3.166000   -0.341000 H         1 <1>         0.059700 
     40 C          -0.845000    3.015000   -0.155000 C.ar      1 <1>        -0.240300 
     41 H          -0.732000    4.093000   -0.258000 H         1 <1>         0.139700 
     42 Cl         -3.947000    0.498000   -0.019000 Cl        1 <1>         0.094900 
@<TRIPOS>BOND
     1    1    2 ar   
     2    2    3 1    
     3    3    4 2    
     4    4    5 1    
     5    5    6 1    
     6    5    7 1    
     7    5    8 1    
     8    8    9 ar   
     9    9    1 1    
    10    9   10 ar   
    11   10   11 1    
    12   10   12 ar   
    13   12   13 ar   
    14   13    8 ar   
    15   13   14 1    
    16   14   15 2    
    17   14   16 1    
    18   16   17 1    
    19   17   18 1    
    20   17   19 1    
    21   17   20 1    
    22   20   21 1    
    23   20   22 1    
    24   20   23 1    
    25    3   24 1    
    26   24   25 ar   
    27   25   26 1    
    28   25   27 ar   
    29   27   28 1    
    30   27   29 ar   
    31   29   30 1    
    32   29   31 ar   
    33   31   32 1    
    34   31   33 ar   
    35   33   34 1    
    36   33   24 ar   
    37    2   35 ar   
    38   35   36 1    
    39   35   37 ar   
    40   37   38 ar   
    41   38   39 1    
    42   38   40 ar   
    43   40   41 1    
    44   40    1 ar   
    45   37   42 1    
@<TRIPOS>SUBSTRUCTURE
     1 ****        1 TEMP              0 ****  ****    0 ROOT 
@<TRIPOS>SET
UNITY_3DHIT     STATIC     ATOMS    <user>   **** Atoms matching 3D or FLEX Search
0
@<TRIPOS>UNITY_BOND_ATTR
3 1
S I
