#	Name:			Ro15-8867
#	Creating user name:	jeff
#	Creation time:		Tue Nov  4 15:19:58 2003

#	Modifying user name:	jeff
#	Modification time:	Tue Nov  4 15:19:58 2003

@<TRIPOS>MOLECULE
Ro15-8867
   33    35     1     0     1
SMALL
USER_CHARGES
****
From 3DB ct
@<TRIPOS>ATOM
      1 C           0.267000    2.160000    0.161000 C.ar      1 <1>         0.216500 
      2 C           0.038000    0.764000    0.184000 C.ar      1 <1>         0.214800 
      3 C           1.114000   -0.273000    0.178000 C.2       1 <1>        -0.427500 
      4 C           2.248000   -0.110000    0.884000 C.2       1 <1>         0.051700 
      5 H           3.032000   -0.866000    0.852000 H         1 <1>         0.079000 
      6 C           2.535000    1.062000    1.756000 C.3       1 <1>        -0.200700 
      7 H           3.486000    0.906000    2.277000 H         1 <1>         0.087100 
      8 H           1.767000    1.194000    2.526000 H         1 <1>         0.089700 
      9 C           2.652000    2.316000    0.915000 C.2       1 <1>         0.556700 
     10 N           1.523000    2.785000    0.299000 N.am      1 <1>        -0.542900 
     11 H           1.607000    3.737000   -0.047000 H         1 <1>         0.316000 
     12 O           3.709000    2.954000    0.846000 O.2       1 <1>        -0.428100 
     13 C           1.051000   -1.521000   -0.632000 C.ar      1 <1>         0.556500 
     14 C           1.540000   -2.703000   -0.050000 C.ar      1 <1>        -0.322200 
     15 H           1.944000   -2.692000    0.961000 H         1 <1>         0.147800 
     16 C           1.511000   -3.909000   -0.754000 C.ar      1 <1>         0.004300 
     17 H           1.892000   -4.817000   -0.290000 H         1 <1>         0.105600 
     18 C           0.996000   -3.950000   -2.047000 C.ar      1 <1>        -0.216800 
     19 H           0.974000   -4.890000   -2.596000 H         1 <1>         0.129600 
     20 C           0.510000   -2.785000   -2.641000 C.ar      1 <1>         0.207200 
     21 H           0.115000   -2.828000   -3.654000 H         1 <1>         0.053300 
     22 C           0.537000   -1.574000   -1.941000 C.ar      1 <1>        -0.578200 
     23 Cl         -0.057000   -0.165000   -2.752000 Cl        1 <1>         0.107100 
     24 C          -1.292000    0.304000    0.069000 C.ar      1 <1>        -0.210700 
     25 H          -1.497000   -0.765000    0.094000 H         1 <1>         0.204000 
     26 C          -2.358000    1.200000   -0.097000 C.ar      1 <1>        -0.030700 
     27 C          -2.118000    2.571000   -0.171000 C.ar      1 <1>        -0.095700 
     28 H          -2.925000    3.285000   -0.313000 H         1 <1>         0.172100 
     29 C          -0.809000    3.041000   -0.051000 C.ar      1 <1>        -0.220300 
     30 H          -0.642000    4.117000   -0.095000 H         1 <1>         0.148000 
     31 N          -3.731000    0.692000   -0.216000 N.2       1 <1>         0.603400 
     32 O          -3.922000   -0.531000   -0.078000 O.2       1 <1>        -0.390100 
     33 O          -4.644000    1.505000   -0.448000 O.3       1 <1>        -0.386500 
@<TRIPOS>BOND
     1    1    2 ar   
     2    2    3 1    
     3    3    4 2    
     4    4    5 1    
     5    4    6 1    
     6    6    7 1    
     7    6    8 1    
     8    6    9 1    
     9    9   10 am   
    10   10   11 1    
    11   10    1 1    
    12    9   12 2    
    13    3   13 1    
    14   13   14 ar   
    15   14   15 1    
    16   14   16 ar   
    17   16   17 1    
    18   16   18 ar   
    19   18   19 1    
    20   18   20 ar   
    21   20   21 1    
    22   20   22 ar   
    23   22   13 ar   
    24   22   23 1    
    25    2   24 ar   
    26   24   25 1    
    27   24   26 ar   
    28   26   27 ar   
    29   27   28 1    
    30   27   29 ar   
    31   29   30 1    
    32   29    1 ar   
    33   26   31 1    
    34   31   32 2    
    35   31   33 1    
@<TRIPOS>SUBSTRUCTURE
     1 ****        1 TEMP              0 ****  ****    0 ROOT 
@<TRIPOS>SET
UNITY_3DHIT     STATIC     ATOMS    <user>   **** Atoms matching 3D or FLEX Search
0
@<TRIPOS>UNITY_ATOM_ATTR
31 1
AtomExpr +1
33 1
AtomExpr -1
@<TRIPOS>UNITY_BOND_ATTR
3 1
S N
