#	Name:			Ro15-8852
#	Creating user name:	jeff
#	Creation time:		Tue Nov  4 15:19:55 2003

#	Modifying user name:	jeff
#	Modification time:	Tue Nov  4 15:19:55 2003

@<TRIPOS>MOLECULE
Ro15-8852
   37    39     1     0     1
SMALL
USER_CHARGES
****
From 3DB ct
@<TRIPOS>ATOM
      1 C          -2.071000    2.509000   -0.364000 C.ar      1 <1>        -0.079100 
      2 H          -2.864000    3.210000   -0.611000 H         1 <1>         0.169300 
      3 C          -2.349000    1.165000   -0.204000 C.ar      1 <1>         0.000500 
      4 C          -1.313000    0.283000    0.100000 C.ar      1 <1>        -0.162200 
      5 H          -1.568000   -0.772000    0.198000 H         1 <1>         0.146800 
      6 C           0.037000    0.707000    0.250000 C.ar      1 <1>         0.128000 
      7 C           0.289000    2.086000    0.160000 C.ar      1 <1>         0.192500 
      8 C          -0.766000    2.961000   -0.182000 C.ar      1 <1>        -0.262000 
      9 H          -0.584000    4.029000   -0.285000 H         1 <1>         0.150500 
     10 N           1.504000    2.749000    0.399000 N.am      1 <1>        -0.345800 
     11 H           1.625000    3.712000    0.099000 H         1 <1>         0.278500 
     12 C           2.656000    2.347000    0.999000 C.2       1 <1>         0.350400 
     13 C           2.801000    0.935000    1.514000 C.3       1 <1>         0.082600 
     14 H           3.857000    0.800000    1.777000 H         1 <1>         0.064800 
     15 H           2.223000    0.803000    2.435000 H         1 <1>         0.053300 
     16 N           2.473000   -0.016000    0.462000 N.3       1 <1>        -0.208200 
     17 C           1.062000   -0.401000    0.501000 C.3       1 <1>        -0.448900 
     18 H           0.844000   -0.781000    1.510000 H         1 <1>         0.150000 
     19 C           0.912000   -1.584000   -0.469000 C.ar      1 <1>         0.681300 
     20 C           0.395000   -1.394000   -1.763000 C.ar      1 <1>        -0.612600 
     21 C           0.283000   -2.466000   -2.650000 C.ar      1 <1>         0.201400 
     22 H          -0.116000   -2.304000   -3.647000 H         1 <1>         0.053000 
     23 C           0.691000   -3.739000   -2.257000 C.ar      1 <1>        -0.213700 
     24 H           0.609000   -4.572000   -2.951000 H         1 <1>         0.131500 
     25 C           1.211000   -3.943000   -0.980000 C.ar      1 <1>        -0.035000 
     26 H           1.532000   -4.937000   -0.678000 H         1 <1>         0.116600 
     27 C           1.325000   -2.873000   -0.091000 C.ar      1 <1>        -0.304300 
     28 H           1.738000   -3.052000    0.899000 H         1 <1>         0.126200 
     29 Cl         -0.093000    0.176000   -2.268000 Cl        1 <1>         0.120100 
     30 C           3.267000   -1.226000    0.657000 C.3       1 <1>        -0.242700 
     31 H           4.337000   -0.971000    0.633000 H         1 <1>         0.116900 
     32 H           3.019000   -1.675000    1.630000 H         1 <1>         0.080700 
     33 H           3.044000   -1.944000   -0.146000 H         1 <1>         0.103300 
     34 O           3.548000    3.184000    1.173000 O.2       1 <1>        -0.392400 
     35 N          -3.728000    0.676000   -0.355000 N.2       1 <1>         0.560100 
     36 O          -3.941000   -0.547000   -0.216000 O.2       1 <1>        -0.373900 
     37 O          -4.601000    1.533000   -0.614000 O.3       1 <1>        -0.377700 
@<TRIPOS>BOND
     1    2    1 1    
     2    1    3 ar   
     3    3    4 ar   
     4    4    5 1    
     5    4    6 ar   
     6    6    7 ar   
     7    7    8 ar   
     8    8    9 1    
     9    8    1 ar   
    10    7   10 1    
    11   10   11 1    
    12   10   12 am   
    13   12   13 1    
    14   13   14 1    
    15   13   15 1    
    16   13   16 1    
    17   16   17 1    
    18   17   18 1    
    19   17    6 1    
    20   17   19 1    
    21   19   20 ar   
    22   20   21 ar   
    23   21   22 1    
    24   21   23 ar   
    25   23   24 1    
    26   23   25 ar   
    27   25   26 1    
    28   25   27 ar   
    29   27   28 1    
    30   27   19 ar   
    31   20   29 1    
    32   16   30 1    
    33   30   31 1    
    34   30   32 1    
    35   30   33 1    
    36   12   34 2    
    37    3   35 1    
    38   35   36 2    
    39   35   37 1    
@<TRIPOS>SUBSTRUCTURE
     1 ****        2 TEMP              0 ****  ****    0 ROOT 
@<TRIPOS>SET
UNITY_3DHIT     STATIC     ATOMS    <user>   **** Atoms matching 3D or FLEX Search
0
@<TRIPOS>UNITY_ATOM_ATTR
35 1
AtomExpr +1
37 1
AtomExpr -1
