#	Name:			Ro15-3237
#	Creating user name:	jeff
#	Creation time:		Tue Nov  4 15:20:02 2003

#	Modifying user name:	jeff
#	Modification time:	Tue Nov  4 15:20:02 2003

@<TRIPOS>MOLECULE
Ro15-3237
   36    38     1     0     1
SMALL
USER_CHARGES
****
From 3DB ct
@<TRIPOS>ATOM
      1 C           0.164000    2.217000    0.096000 C.ar      1 <1>         0.641300 
      2 C           0.027000    0.813000    0.210000 C.ar      1 <1>        -0.349200 
      3 C           1.151000   -0.166000    0.354000 C.2       1 <1>         0.547100 
      4 N           2.203000    0.115000    1.211000 N.am      1 <1>        -0.236100 
      5 C           2.269000    1.317000    2.010000 C.3       1 <1>        -0.193700 
      6 H           1.333000    1.427000    2.570000 H         1 <1>         0.113200 
      7 H           3.071000    1.234000    2.748000 H         1 <1>         0.167500 
      8 C           2.455000    2.431000    1.063000 C.ar      1 <1>         0.031000 
      9 N           1.445000    2.820000    0.207000 N.pl3     1 <1>        -0.417200 
     10 C           1.950000    3.875000   -0.515000 C.ar      1 <1>         0.229000 
     11 H           1.406000    4.361000   -1.314000 H         1 <1>         0.150600 
     12 N           3.176000    4.186000   -0.162000 N.ar      1 <1>        -0.404500 
     13 C           3.524000    3.281000    0.823000 C.ar      1 <1>         0.072800 
     14 C           4.836000    3.262000    1.479000 C.2       1 <1>         0.586100 
     15 O           5.737000    4.049000    1.209000 O.2       1 <1>        -0.417100 
     16 O           4.939000    2.273000    2.415000 O.3       1 <1>        -0.394200 
     17 C           6.203000    2.215000    3.082000 C.3       1 <1>         0.245500 
     18 H           7.002000    2.051000    2.349000 H         1 <1>         0.017700 
     19 H           6.382000    3.153000    3.618000 H         1 <1>         0.012300 
     20 C           6.170000    1.061000    4.065000 C.3       1 <1>        -0.185900 
     21 H           7.122000    0.973000    4.596000 H         1 <1>         0.047200 
     22 H           5.368000    1.202000    4.797000 H         1 <1>         0.056100 
     23 H           5.966000    0.118000    3.546000 H         1 <1>         0.054000 
     24 C           3.342000   -0.788000    1.281000 C.3       1 <1>        -0.075500 
     25 H           4.235000   -0.254000    0.943000 H         1 <1>         0.066100 
     26 H           3.476000   -1.104000    2.320000 H         1 <1>         0.049700 
     27 H           3.204000   -1.674000    0.657000 H         1 <1>         0.086600 
     28 O           1.081000   -1.208000   -0.296000 O.2       1 <1>        -0.427500 
     29 C          -1.244000    0.224000    0.056000 C.ar      1 <1>         0.062200 
     30 H          -1.350000   -0.860000    0.105000 H         1 <1>         0.123500 
     31 C          -2.372000    1.000000   -0.184000 C.ar      1 <1>        -0.227700 
     32 H          -3.345000    0.529000   -0.301000 H         1 <1>         0.139400 
     33 C          -2.245000    2.381000   -0.272000 C.ar      1 <1>         0.185700 
     34 H          -3.136000    2.983000   -0.437000 H         1 <1>         0.066100 
     35 C          -0.992000    2.994000   -0.130000 C.ar      1 <1>        -0.529900 
     36 Cl         -1.024000    4.726000   -0.102000 Cl        1 <1>         0.107900 
@<TRIPOS>BOND
     1    1    2 ar   
     2    2    3 1    
     3    3    4 am   
     4    4    5 1    
     5    5    6 1    
     6    5    7 1    
     7    5    8 1    
     8    8    9 ar   
     9    9    1 1    
    10    9   10 ar   
    11   10   11 1    
    12   10   12 ar   
    13   12   13 ar   
    14   13    8 ar   
    15   13   14 1    
    16   14   15 2    
    17   14   16 1    
    18   16   17 1    
    19   17   18 1    
    20   17   19 1    
    21   17   20 1    
    22   20   21 1    
    23   20   22 1    
    24   20   23 1    
    25    4   24 1    
    26   24   25 1    
    27   24   26 1    
    28   24   27 1    
    29    3   28 2    
    30    2   29 ar   
    31   29   30 1    
    32   29   31 ar   
    33   31   32 1    
    34   31   33 ar   
    35   33   34 1    
    36   33   35 ar   
    37   35    1 ar   
    38   35   36 1    
@<TRIPOS>SUBSTRUCTURE
     1 ****        1 TEMP              0 ****  ****    0 ROOT 
@<TRIPOS>SET
UNITY_3DHIT     STATIC     ATOMS    <user>   **** Atoms matching 3D or FLEX Search
0
