#	Name:			Ro15-2200
#	Creating user name:	jeff
#	Creation time:		Tue Nov  4 15:19:58 2003

#	Modifying user name:	jeff
#	Modification time:	Tue Nov  4 15:19:58 2003

@<TRIPOS>MOLECULE
Ro15-2200
   43    46     1     0     1
SMALL
USER_CHARGES
****
From 3DB ct
@<TRIPOS>ATOM
      1 C           0.238000    2.203000    0.119000 C.ar      1 <1>         0.013700 
      2 C           0.049000    0.800000    0.154000 C.ar      1 <1>         0.214400 
      3 C           1.123000   -0.244000    0.154000 C.2       1 <1>        -0.217700 
      4 C           2.242000   -0.107000    0.892000 C.2       1 <1>         0.078500 
      5 H           3.012000   -0.878000    0.878000 H         1 <1>         0.086100 
      6 C           2.558000    1.077000    1.741000 C.3       1 <1>        -0.258600 
      7 H           3.507000    0.892000    2.253000 H         1 <1>         0.120600 
      8 H           1.816000    1.170000    2.544000 H         1 <1>         0.102400 
      9 C           2.618000    2.336000    0.954000 C.ar      1 <1>         0.021600 
     10 N           1.521000    2.812000    0.255000 N.pl3     1 <1>        -0.044300 
     11 C           1.904000    4.037000   -0.246000 C.ar      1 <1>         0.056900 
     12 H           1.243000    4.654000   -0.841000 H         1 <1>         0.182200 
     13 N           3.155000    4.331000    0.030000 N.ar      1 <1>        -0.353000 
     14 C           3.631000    3.275000    0.787000 C.ar      1 <1>        -0.032500 
     15 C           5.013000    3.184000    1.294000 C.2       1 <1>         0.637800 
     16 O           5.856000    4.055000    1.077000 O.2       1 <1>        -0.439800 
     17 O           5.364000    2.113000    2.078000 O.3       1 <1>        -0.390200 
     18 C           6.699000    1.967000    2.604000 C.3       1 <1>         0.242400 
     19 H           7.128000    2.943000    2.852000 H         1 <1>         0.013400 
     20 H           7.317000    1.445000    1.868000 H         1 <1>         0.009100 
     21 C           6.607000    1.125000    3.864000 C.3       1 <1>        -0.173100 
     22 H           7.598000    0.970000    4.301000 H         1 <1>         0.042900 
     23 H           6.161000    0.149000    3.644000 H         1 <1>         0.052600 
     24 H           5.965000    1.610000    4.606000 H         1 <1>         0.048700 
     25 C           1.056000   -1.485000   -0.663000 C.ar      1 <1>        -0.125800 
     26 C           1.494000   -2.698000   -0.111000 C.ar      1 <1>        -0.024200 
     27 H           1.870000   -2.735000    0.910000 H         1 <1>         0.104400 
     28 C           1.447000   -3.875000   -0.864000 C.ar      1 <1>        -0.183700 
     29 H           1.787000   -4.812000   -0.425000 H         1 <1>         0.124900 
     30 C           0.968000   -3.853000   -2.174000 C.ar      1 <1>        -0.021000 
     31 H           0.933000   -4.771000   -2.757000 H         1 <1>         0.110200 
     32 C           0.535000   -2.652000   -2.735000 C.ar      1 <1>        -0.292100 
     33 H           0.164000   -2.623000   -3.756000 H         1 <1>         0.162500 
     34 C           0.583000   -1.481000   -1.982000 C.ar      1 <1>         0.395500 
     35 F           0.173000   -0.337000   -2.552000 F         1 <1>        -0.250100 
     36 C          -1.276000    0.317000    0.069000 C.ar      1 <1>        -0.164700 
     37 H          -1.480000   -0.754000    0.102000 H         1 <1>         0.135100 
     38 C          -2.369000    1.174000   -0.070000 C.ar      1 <1>        -0.114000 
     39 H          -3.377000    0.766000   -0.134000 H         1 <1>         0.115500 
     40 C          -2.166000    2.543000   -0.137000 C.ar      1 <1>        -0.068700 
     41 H          -3.014000    3.217000   -0.247000 H         1 <1>         0.111400 
     42 C          -0.873000    3.057000   -0.046000 C.ar      1 <1>        -0.153500 
     43 H          -0.768000    4.140000   -0.062000 H         1 <1>         0.124000 
@<TRIPOS>BOND
     1    1    2 ar   
     2    2    3 1    
     3    3    4 2    
     4    4    5 1    
     5    4    6 1    
     6    6    7 1    
     7    6    8 1    
     8    6    9 1    
     9    9   10 ar   
    10   10    1 1    
    11   10   11 ar   
    12   11   12 1    
    13   11   13 ar   
    14   13   14 ar   
    15   14    9 ar   
    16   14   15 1    
    17   15   16 2    
    18   15   17 1    
    19   17   18 1    
    20   18   19 1    
    21   18   20 1    
    22   18   21 1    
    23   21   22 1    
    24   21   23 1    
    25   21   24 1    
    26    3   25 1    
    27   25   26 ar   
    28   26   27 1    
    29   26   28 ar   
    30   28   29 1    
    31   28   30 ar   
    32   30   31 1    
    33   30   32 ar   
    34   32   33 1    
    35   32   34 ar   
    36   34   25 ar   
    37   34   35 1    
    38    2   36 ar   
    39   36   37 1    
    40   36   38 ar   
    41   38   39 1    
    42   38   40 ar   
    43   40   41 1    
    44   40   42 ar   
    45   42   43 1    
    46   42    1 ar   
@<TRIPOS>SUBSTRUCTURE
     1 ****        1 TEMP              0 ****  ****    0 ROOT 
@<TRIPOS>SET
UNITY_3DHIT     STATIC     ATOMS    <user>   **** Atoms matching 3D or FLEX Search
0
@<TRIPOS>UNITY_BOND_ATTR
3 1
S N
