#	Name:			Ro16-6654
#	Creating user name:	jeff
#	Creation time:		Tue Nov  4 15:20:01 2003

#	Modifying user name:	jeff
#	Modification time:	Tue Nov  4 15:20:02 2003

@<TRIPOS>MOLECULE
Ro16-6654
   50    54     1     0     1
SMALL
USER_CHARGES
****
From 3DB ct
@<TRIPOS>ATOM
      1 C           0.259000    2.100000    0.015000 C.ar      1 <1>         0.006100 
      2 C          -0.002000    0.743000    0.264000 C.ar      1 <1>         0.235100 
      3 C           1.076000   -0.271000    0.237000 C.2       1 <1>         0.369900 
      4 N           2.207000   -0.060000    0.986000 N.am      1 <1>        -0.355900 
      5 C           2.511000    1.091000    1.831000 C.3       1 <1>         0.206300 
      6 H           1.705000    1.199000    2.566000 H         1 <1>         0.039800 
      7 C           2.594000    2.303000    0.957000 C.ar      1 <1>        -0.132700 
      8 N           1.566000    2.650000    0.082000 N.pl3     1 <1>        -0.083700 
      9 C           1.998000    3.750000   -0.619000 C.ar      1 <1>         0.101800 
     10 H           1.437000    4.182000   -1.437000 H         1 <1>         0.176600 
     11 N           3.143000    4.203000   -0.180000 N.ar      1 <1>        -0.372200 
     12 C           3.503000    3.363000    0.859000 C.ar      1 <1>         0.064000 
     13 C           4.661000    3.679000    1.704000 C.2       1 <1>         0.642200 
     14 O           5.362000    4.673000    1.552000 O.2       1 <1>        -0.437500 
     15 O           4.886000    2.722000    2.650000 O.3       1 <1>        -0.534200 
     16 C           6.024000    2.919000    3.505000 C.3       1 <1>         0.458000 
     17 H           6.860000    3.338000    2.930000 H         1 <1>         0.018100 
     18 C           6.445000    1.545000    4.035000 C.3       1 <1>        -0.247200 
     19 H           6.746000    0.904000    3.198000 H         1 <1>         0.066600 
     20 H           5.583000    1.045000    4.495000 H         1 <1>         0.077900 
     21 C           7.581000    1.653000    5.046000 C.3       1 <1>        -0.047300 
     22 H           8.485000    2.015000    4.541000 H         1 <1>         0.036200 
     23 H           7.814000    0.661000    5.446000 H         1 <1>         0.033000 
     24 C           7.227000    2.599000    6.191000 C.3       1 <1>        -0.050200 
     25 H           6.423000    2.158000    6.792000 H         1 <1>         0.035000 
     26 H           8.092000    2.716000    6.853000 H         1 <1>         0.016800 
     27 C           6.783000    3.967000    5.678000 C.3       1 <1>        -0.053300 
     28 H           6.460000    4.588000    6.522000 H         1 <1>         0.029100 
     29 H           7.637000    4.477000    5.216000 H         1 <1>         0.034000 
     30 C           5.652000    3.852000    4.662000 C.3       1 <1>        -0.181200 
     31 H           5.396000    4.846000    4.278000 H         1 <1>         0.041200 
     32 H           4.742000    3.483000    5.155000 H         1 <1>         0.076900 
     33 C           3.816000    0.669000    2.522000 C.3       1 <1>        -0.061700 
     34 H           3.901000    1.076000    3.534000 H         1 <1>         0.064100 
     35 H           4.702000    0.961000    1.947000 H         1 <1>         0.064800 
     36 C           3.755000   -0.851000    2.537000 C.3       1 <1>        -0.205800 
     37 H           4.734000   -1.319000    2.678000 H         1 <1>         0.078500 
     38 H           3.088000   -1.191000    3.338000 H         1 <1>         0.076300 
     39 C           3.150000   -1.147000    1.182000 C.3       1 <1>         0.100200 
     40 H           3.898000   -1.089000    0.384000 H         1 <1>         0.042900 
     41 H           2.662000   -2.126000    1.146000 H         1 <1>         0.059100 
     42 O           0.937000   -1.262000   -0.475000 O.2       1 <1>        -0.396500 
     43 C          -1.339000    0.307000    0.342000 C.ar      1 <1>        -0.426700 
     44 C          -2.393000    1.198000    0.112000 C.ar      1 <1>         0.125400 
     45 H          -3.424000    0.857000    0.173000 H         1 <1>         0.065000 
     46 C          -2.129000    2.527000   -0.200000 C.ar      1 <1>        -0.125200 
     47 H          -2.951000    3.216000   -0.382000 H         1 <1>         0.127800 
     48 C          -0.812000    2.980000   -0.243000 C.ar      1 <1>        -0.109400 
     49 H          -0.652000    4.041000   -0.429000 H         1 <1>         0.121800 
     50 Cl         -1.785000   -1.306000    0.790000 Cl        1 <1>         0.130200 
@<TRIPOS>BOND
     1    1    2 ar   
     2    2    3 1    
     3    3    4 am   
     4    4    5 1    
     5    5    6 1    
     6    5    7 1    
     7    7    8 ar   
     8    8    1 1    
     9    8    9 ar   
    10    9   10 1    
    11    9   11 ar   
    12   11   12 ar   
    13   12    7 ar   
    14   12   13 1    
    15   13   14 2    
    16   13   15 1    
    17   15   16 1    
    18   16   17 1    
    19   16   18 1    
    20   18   19 1    
    21   18   20 1    
    22   18   21 1    
    23   21   22 1    
    24   21   23 1    
    25   21   24 1    
    26   24   25 1    
    27   24   26 1    
    28   24   27 1    
    29   27   28 1    
    30   27   29 1    
    31   27   30 1    
    32   30   31 1    
    33   30   32 1    
    34   30   16 1    
    35    5   33 1    
    36   33   34 1    
    37   33   35 1    
    38   33   36 1    
    39   36   37 1    
    40   36   38 1    
    41   36   39 1    
    42   39   40 1    
    43   39   41 1    
    44   39    4 1    
    45    3   42 2    
    46    2   43 ar   
    47   43   44 ar   
    48   44   45 1    
    49   44   46 ar   
    50   46   47 1    
    51   46   48 ar   
    52   48   49 1    
    53   48    1 ar   
    54   43   50 1    
@<TRIPOS>SUBSTRUCTURE
     1 ****        1 TEMP              0 ****  ****    0 ROOT 
@<TRIPOS>SET
UNITY_3DHIT     STATIC     ATOMS    <user>   **** Atoms matching 3D or FLEX Search
0
