#	Name:			Ro16-9918
#	Creating user name:	jeff
#	Creation time:		Tue Nov  4 15:20:01 2003

#	Modifying user name:	jeff
#	Modification time:	Tue Nov  4 15:20:01 2003

@<TRIPOS>MOLECULE
Ro16-9918
   44    48     1     0     1
SMALL
USER_CHARGES
****
From 3DB ct
@<TRIPOS>ATOM
      1 C           0.248000    2.108000    0.030000 C.ar      1 <1>        -0.012500 
      2 C           0.006000    0.740000    0.238000 C.ar      1 <1>         0.255100 
      3 C           1.100000   -0.257000    0.212000 C.2       1 <1>         0.340800 
      4 N           2.207000   -0.049000    0.997000 N.am      1 <1>        -0.328300 
      5 C           2.493000    1.105000    1.843000 C.3       1 <1>         0.090100 
      6 H           1.673000    1.212000    2.563000 H         1 <1>         0.058300 
      7 C           2.584000    2.313000    0.967000 C.ar      1 <1>        -0.071400 
      8 N           1.549000    2.671000    0.106000 N.pl3     1 <1>        -0.094000 
      9 C           1.970000    3.782000   -0.583000 C.ar      1 <1>         0.133000 
     10 H           1.391000    4.235000   -1.377000 H         1 <1>         0.166200 
     11 N           3.133000    4.212000   -0.173000 N.ar      1 <1>        -0.368500 
     12 C           3.511000    3.354000    0.845000 C.ar      1 <1>        -0.035100 
     13 C           4.707000    3.635000    1.646000 C.2       1 <1>         0.718300 
     14 O           5.428000    4.612000    1.476000 O.2       1 <1>        -0.448600 
     15 O           4.936000    2.671000    2.583000 O.3       1 <1>        -0.391600 
     16 C           6.101000    2.896000    3.376000 C.3       1 <1>        -0.033500 
     17 H           6.986000    2.938000    2.730000 H         1 <1>         0.107500 
     18 H           6.003000    3.842000    3.921000 H         1 <1>         0.083400 
     19 C           6.211000    1.777000    4.364000 C.3       1 <1>        -0.061300 
     20 H           5.337000    1.715000    5.001000 H         1 <1>         0.115400 
     21 C           6.894000    0.486000    3.990000 C.3       1 <1>        -0.122600 
     22 H           7.327000    0.396000    3.000000 H         1 <1>         0.085700 
     23 H           6.469000   -0.437000    4.370000 H         1 <1>         0.080500 
     24 C           7.545000    1.424000    4.969000 C.3       1 <1>        -0.309400 
     25 H           8.425000    1.967000    4.643000 H         1 <1>         0.131800 
     26 H           7.561000    1.137000    6.014000 H         1 <1>         0.124800 
     27 C           3.783000    0.686000    2.561000 C.3       1 <1>         0.091100 
     28 H           3.859000    1.113000    3.565000 H         1 <1>         0.007500 
     29 H           4.678000    0.957000    1.991000 H         1 <1>         0.040200 
     30 C           3.708000   -0.833000    2.599000 C.3       1 <1>        -0.279500 
     31 H           4.678000   -1.307000    2.770000 H         1 <1>         0.081800 
     32 H           3.017000   -1.153000    3.388000 H         1 <1>         0.091300 
     33 C           3.134000   -1.142000    1.232000 C.3       1 <1>         0.153400 
     34 H           3.903000   -1.102000    0.453000 H         1 <1>         0.027100 
     35 H           2.636000   -2.116000    1.197000 H         1 <1>         0.049000 
     36 O           0.995000   -1.235000   -0.522000 O.2       1 <1>        -0.393800 
     37 C          -1.325000    0.281000    0.289000 C.ar      1 <1>        -0.423600 
     38 C          -2.389000    1.167000    0.087000 C.ar      1 <1>         0.140300 
     39 H          -3.417000    0.811000    0.133000 H         1 <1>         0.059900 
     40 C          -2.144000    2.510000   -0.177000 C.ar      1 <1>        -0.146400 
     41 H          -2.975000    3.193000   -0.336000 H         1 <1>         0.132700 
     42 C          -0.833000    2.981000   -0.204000 C.ar      1 <1>        -0.090400 
     43 H          -0.687000    4.050000   -0.357000 H         1 <1>         0.118200 
     44 Cl         -1.755000   -1.354000    0.670000 Cl        1 <1>         0.126800 
@<TRIPOS>BOND
     1    1    2 ar   
     2    2    3 1    
     3    3    4 am   
     4    4    5 1    
     5    5    6 1    
     6    5    7 1    
     7    7    8 ar   
     8    8    1 1    
     9    8    9 ar   
    10    9   10 1    
    11    9   11 ar   
    12   11   12 ar   
    13   12    7 ar   
    14   12   13 1    
    15   13   14 2    
    16   13   15 1    
    17   15   16 1    
    18   16   17 1    
    19   16   18 1    
    20   16   19 1    
    21   19   20 1    
    22   19   21 1    
    23   21   22 1    
    24   21   23 1    
    25   21   24 1    
    26   24   25 1    
    27   24   26 1    
    28   24   19 1    
    29    5   27 1    
    30   27   28 1    
    31   27   29 1    
    32   27   30 1    
    33   30   31 1    
    34   30   32 1    
    35   30   33 1    
    36   33   34 1    
    37   33   35 1    
    38   33    4 1    
    39    3   36 2    
    40    2   37 ar   
    41   37   38 ar   
    42   38   39 1    
    43   38   40 ar   
    44   40   41 1    
    45   40   42 ar   
    46   42   43 1    
    47   42    1 ar   
    48   37   44 1    
@<TRIPOS>SUBSTRUCTURE
     1 ****        1 TEMP              0 ****  ****    0 ROOT 
@<TRIPOS>SET
UNITY_3DHIT     STATIC     ATOMS    <user>   **** Atoms matching 3D or FLEX Search
0
