#	Name:			Ro16-3607
#	Creating user name:	jeff
#	Creation time:		Tue Nov  4 15:20:00 2003

#	Modifying user name:	jeff
#	Modification time:	Tue Nov  4 15:20:00 2003

@<TRIPOS>MOLECULE
Ro16-3607
   50    53     1     0     1
SMALL
USER_CHARGES
****
From 3DB ct
@<TRIPOS>ATOM
      1 C           0.276000    2.099000    0.020000 C.ar      1 <1>         0.147200 
      2 C          -0.002000    0.747000    0.264000 C.ar      1 <1>        -0.177500 
      3 C           1.052000   -0.296000    0.248000 C.2       1 <1>         0.515300 
      4 N           2.210000   -0.088000    0.960000 N.am      1 <1>        -0.380600 
      5 C           2.544000    1.060000    1.798000 C.3       1 <1>         0.263600 
      6 H           1.757000    1.176000    2.553000 H         1 <1>         0.034500 
      7 C           2.624000    2.273000    0.928000 C.ar      1 <1>        -0.143400 
      8 N           1.590000    2.630000    0.066000 N.pl3     1 <1>        -0.121900 
      9 C           2.026000    3.723000   -0.643000 C.ar      1 <1>         0.130400 
     10 H           1.460000    4.155000   -1.458000 H         1 <1>         0.166400 
     11 N           3.174000    4.172000   -0.211000 N.ar      1 <1>        -0.380500 
     12 C           3.532000    3.335000    0.832000 C.ar      1 <1>         0.049400 
     13 C           4.683000    3.658000    1.685000 C.2       1 <1>         0.672900 
     14 O           5.376000    4.656000    1.532000 O.2       1 <1>        -0.445600 
     15 O           4.904000    2.699000    2.626000 O.3       1 <1>        -0.555800 
     16 C           6.027000    2.782000    3.537000 C.3       1 <1>         0.634200 
     17 C           5.923000    4.014000    4.441000 C.3       1 <1>        -0.335300 
     18 H           6.683000    3.995000    5.230000 H         1 <1>         0.069700 
     19 H           6.058000    4.945000    3.881000 H         1 <1>         0.095700 
     20 H           4.935000    4.071000    4.910000 H         1 <1>         0.083300 
     21 C           5.913000    1.522000    4.410000 C.3       1 <1>        -0.342300 
     22 H           5.949000    0.616000    3.793000 H         1 <1>         0.087600 
     23 H           6.716000    1.466000    5.152000 H         1 <1>         0.081000 
     24 H           4.952000    1.499000    4.937000 H         1 <1>         0.080300 
     25 C           7.361000    2.736000    2.782000 C.3       1 <1>        -0.347100 
     26 H           7.374000    1.906000    2.068000 H         1 <1>         0.067000 
     27 H           7.535000    3.649000    2.206000 H         1 <1>         0.096800 
     28 H           8.205000    2.618000    3.470000 H         1 <1>         0.079400 
     29 C           3.861000    0.625000    2.458000 C.3       1 <1>        -0.002800 
     30 H           3.975000    1.029000    3.468000 H         1 <1>         0.024100 
     31 H           4.736000    0.911000    1.862000 H         1 <1>         0.047000 
     32 C           3.787000   -0.894000    2.477000 C.3       1 <1>        -0.165500 
     33 H           4.765000   -1.371000    2.589000 H         1 <1>         0.066000 
     34 H           3.141000   -1.228000    3.298000 H         1 <1>         0.060400 
     35 C           3.140000   -1.188000    1.142000 C.3       1 <1>         0.067400 
     36 H           3.867000   -1.149000    0.323000 H         1 <1>         0.033500 
     37 H           2.638000   -2.160000    1.129000 H         1 <1>         0.063600 
     38 O           0.876000   -1.310000   -0.426000 O.2       1 <1>        -0.416700 
     39 C          -1.347000    0.330000    0.328000 C.ar      1 <1>         0.246300 
     40 C          -2.393000    1.240000    0.148000 C.ar      1 <1>        -0.223700 
     41 H          -3.426000    0.914000    0.246000 H         1 <1>         0.146600 
     42 C          -2.112000    2.568000   -0.148000 C.ar      1 <1>        -0.020900 
     43 H          -2.924000    3.276000   -0.295000 H         1 <1>         0.114300 
     44 C          -0.787000    2.998000   -0.214000 C.ar      1 <1>        -0.199500 
     45 H          -0.612000    4.058000   -0.388000 H         1 <1>         0.129200 
     46 O          -1.659000   -0.959000    0.683000 O.3       1 <1>        -0.266600 
     47 C          -3.073000   -1.132000    0.806000 C.3       1 <1>        -0.005600 
     48 H          -3.280000   -2.207000    0.794000 H         1 <1>         0.082100 
     49 H          -3.426000   -0.730000    1.761000 H         1 <1>         0.037200 
     50 H          -3.618000   -0.670000   -0.024000 H         1 <1>         0.058900 
@<TRIPOS>BOND
     1    1    2 ar   
     2    2    3 1    
     3    3    4 am   
     4    4    5 1    
     5    5    6 1    
     6    5    7 1    
     7    7    8 ar   
     8    8    1 1    
     9    8    9 ar   
    10    9   10 1    
    11    9   11 ar   
    12   11   12 ar   
    13   12    7 ar   
    14   12   13 1    
    15   13   14 2    
    16   13   15 1    
    17   15   16 1    
    18   16   17 1    
    19   17   18 1    
    20   17   19 1    
    21   17   20 1    
    22   16   21 1    
    23   21   22 1    
    24   21   23 1    
    25   21   24 1    
    26   16   25 1    
    27   25   26 1    
    28   25   27 1    
    29   25   28 1    
    30    5   29 1    
    31   29   30 1    
    32   29   31 1    
    33   29   32 1    
    34   32   33 1    
    35   32   34 1    
    36   32   35 1    
    37   35   36 1    
    38   35   37 1    
    39   35    4 1    
    40    3   38 2    
    41    2   39 ar   
    42   39   40 ar   
    43   40   41 1    
    44   40   42 ar   
    45   42   43 1    
    46   42   44 ar   
    47   44   45 1    
    48   44    1 ar   
    49   39   46 1    
    50   46   47 1    
    51   47   48 1    
    52   47   49 1    
    53   47   50 1    
@<TRIPOS>SUBSTRUCTURE
     1 ****        1 TEMP              0 ****  ****    0 ROOT 
@<TRIPOS>SET
UNITY_3DHIT     STATIC     ATOMS    <user>   **** Atoms matching 3D or FLEX Search
0
