#	Name:			Ro16-4019
#	Creating user name:	jeff
#	Creation time:		Tue Nov  4 15:20:01 2003

#	Modifying user name:	jeff
#	Modification time:	Tue Nov  4 15:20:01 2003

@<TRIPOS>MOLECULE
Ro16-4019
   43    46     1     0     1
SMALL
USER_CHARGES
****
From 3DB ct
@<TRIPOS>ATOM
      1 C           0.259000    2.100000    0.017000 C.ar      1 <1>        -0.013100 
      2 C          -0.003000    0.742000    0.263000 C.ar      1 <1>         0.270600 
      3 C           1.074000   -0.272000    0.239000 C.2       1 <1>         0.330900 
      4 N           2.204000   -0.062000    0.988000 N.am      1 <1>        -0.286500 
      5 C           2.517000    1.090000    1.828000 C.3       1 <1>        -0.064500 
      6 H           1.716000    1.200000    2.570000 H         1 <1>         0.088600 
      7 C           2.597000    2.302000    0.955000 C.ar      1 <1>        -0.000600 
      8 N           1.567000    2.651000    0.085000 N.pl3     1 <1>        -0.101400 
      9 C           1.994000    3.754000   -0.613000 C.ar      1 <1>         0.120900 
     10 H           1.429000    4.189000   -1.427000 H         1 <1>         0.170300 
     11 N           3.139000    4.207000   -0.176000 N.ar      1 <1>        -0.361800 
     12 C           3.504000    3.366000    0.860000 C.ar      1 <1>        -0.060800 
     13 C           4.662000    3.685000    1.705000 C.2       1 <1>         0.727100 
     14 O           5.362000    4.681000    1.559000 O.2       1 <1>        -0.444000 
     15 O           4.896000    2.726000    2.650000 O.3       1 <1>        -0.427700 
     16 C           6.037000    2.969000    3.479000 C.3       1 <1>         0.021300 
     17 H           6.938000    3.013000    2.856000 H         1 <1>         0.057700 
     18 H           5.911000    3.922000    4.007000 H         1 <1>         0.065400 
     19 C           6.153000    1.827000    4.483000 C.3       1 <1>         0.154700 
     20 H           6.239000    0.875000    3.944000 H         1 <1>        -0.013000 
     21 H           5.222000    1.759000    5.062000 H         1 <1>         0.012500 
     22 C           7.345000    2.018000    5.417000 C.3       1 <1>        -0.273000 
     23 H           8.272000    2.053000    4.833000 H         1 <1>         0.070700 
     24 H           7.256000    2.976000    5.942000 H         1 <1>         0.064400 
     25 H           7.389000    1.196000    6.141000 H         1 <1>         0.062400 
     26 C           3.825000    0.665000    2.511000 C.3       1 <1>         0.195900 
     27 H           3.923000    1.079000    3.519000 H         1 <1>        -0.010200 
     28 H           4.706000    0.947000    1.923000 H         1 <1>         0.013200 
     29 C           3.755000   -0.854000    2.539000 C.3       1 <1>        -0.243200 
     30 H           4.732000   -1.326000    2.676000 H         1 <1>         0.074400 
     31 H           3.092000   -1.184000    3.348000 H         1 <1>         0.076400 
     32 C           3.140000   -1.156000    1.190000 C.3       1 <1>         0.117200 
     33 H           3.885000   -1.110000    0.388000 H         1 <1>         0.029800 
     34 H           2.645000   -2.132000    1.164000 H         1 <1>         0.057100 
     35 O           0.934000   -1.265000   -0.471000 O.2       1 <1>        -0.393200 
     36 C          -1.341000    0.305000    0.335000 C.ar      1 <1>        -0.431700 
     37 C          -2.394000    1.198000    0.106000 C.ar      1 <1>         0.144000 
     38 H          -3.426000    0.857000    0.165000 H         1 <1>         0.059900 
     39 C          -2.130000    2.527000   -0.204000 C.ar      1 <1>        -0.149400 
     40 H          -2.951000    3.216000   -0.388000 H         1 <1>         0.133700 
     41 C          -0.812000    2.979000   -0.243000 C.ar      1 <1>        -0.093000 
     42 H          -0.653000    4.041000   -0.428000 H         1 <1>         0.120200 
     43 Cl         -1.789000   -1.310000    0.774000 Cl        1 <1>         0.128100 
@<TRIPOS>BOND
     1    1    2 ar   
     2    2    3 1    
     3    3    4 am   
     4    4    5 1    
     5    5    6 1    
     6    5    7 1    
     7    7    8 ar   
     8    8    1 1    
     9    8    9 ar   
    10    9   10 1    
    11    9   11 ar   
    12   11   12 ar   
    13   12    7 ar   
    14   12   13 1    
    15   13   14 2    
    16   13   15 1    
    17   15   16 1    
    18   16   17 1    
    19   16   18 1    
    20   16   19 1    
    21   19   20 1    
    22   19   21 1    
    23   19   22 1    
    24   22   23 1    
    25   22   24 1    
    26   22   25 1    
    27    5   26 1    
    28   26   27 1    
    29   26   28 1    
    30   26   29 1    
    31   29   30 1    
    32   29   31 1    
    33   29   32 1    
    34   32   33 1    
    35   32   34 1    
    36   32    4 1    
    37    3   35 2    
    38    2   36 ar   
    39   36   37 ar   
    40   37   38 1    
    41   37   39 ar   
    42   39   40 1    
    43   39   41 ar   
    44   41   42 1    
    45   41    1 ar   
    46   36   43 1    
@<TRIPOS>SUBSTRUCTURE
     1 ****        1 TEMP              0 ****  ****    0 ROOT 
@<TRIPOS>SET
UNITY_3DHIT     STATIC     ATOMS    <user>   **** Atoms matching 3D or FLEX Search
0
