#	Name:			Ro16-4234
#	Creating user name:	jeff
#	Creation time:		Tue Nov  4 15:19:59 2003

#	Modifying user name:	jeff
#	Modification time:	Tue Nov  4 15:19:59 2003

@<TRIPOS>MOLECULE
Ro16-4234
   35    38     1     0     1
SMALL
USER_CHARGES
****
From 3DB ct
@<TRIPOS>ATOM
      1 C           0.264000    2.100000    0.025000 C.ar      1 <1>        -0.018600 
      2 C          -0.003000    0.742000    0.262000 C.ar      1 <1>         0.286800 
      3 C           1.068000   -0.278000    0.225000 C.2       1 <1>         0.289700 
      4 N           2.202000   -0.079000    0.974000 N.am      1 <1>        -0.262900 
      5 C           2.525000    1.070000    1.815000 C.3       1 <1>         0.154100 
      6 H           1.724000    1.186000    2.557000 H         1 <1>         0.044800 
      7 C           2.611000    2.279000    0.940000 C.ar      1 <1>        -0.137200 
      8 N           1.577000    2.639000    0.080000 N.pl3     1 <1>        -0.051600 
      9 C           2.009000    3.737000   -0.625000 C.ar      1 <1>         0.065200 
     10 H           1.437000    4.176000   -1.432000 H         1 <1>         0.180300 
     11 N           3.169000    4.175000   -0.209000 N.ar      1 <1>        -0.358200 
     12 C           3.527000    3.328000    0.829000 C.ar      1 <1>         0.053800 
     13 C           4.707000    3.646000    1.638000 C.2       1 <1>         0.581600 
     14 O           5.433000    4.619000    1.483000 O.2       1 <1>        -0.482700 
     15 N           4.986000    2.694000    2.578000 N.am      1 <1>        -0.743300 
     16 H           4.480000    1.817000    2.526000 H         1 <1>         0.329300 
     17 H           5.873000    2.739000    3.056000 H         1 <1>         0.333500 
     18 C           3.828000    0.633000    2.500000 C.3       1 <1>        -0.071500 
     19 H           3.927000    1.046000    3.507000 H         1 <1>         0.080500 
     20 H           4.713000    0.907000    1.914000 H         1 <1>         0.083700 
     21 C           3.745000   -0.886000    2.522000 C.3       1 <1>        -0.196600 
     22 H           4.715000   -1.369000    2.663000 H         1 <1>         0.076100 
     23 H           3.071000   -1.213000    3.323000 H         1 <1>         0.074500 
     24 C           3.136000   -1.175000    1.166000 C.3       1 <1>         0.069600 
     25 H           3.885000   -1.119000    0.368000 H         1 <1>         0.043900 
     26 H           2.641000   -2.151000    1.127000 H         1 <1>         0.059500 
     27 O           0.921000   -1.264000   -0.493000 O.2       1 <1>        -0.384100 
     28 C          -1.343000    0.313000    0.342000 C.ar      1 <1>        -0.448800 
     29 C          -2.392000    1.215000    0.135000 C.ar      1 <1>         0.135900 
     30 H          -3.425000    0.879000    0.198000 H         1 <1>         0.063800 
     31 C          -2.123000    2.546000   -0.161000 C.ar      1 <1>        -0.133200 
     32 H          -2.942000    3.243000   -0.326000 H         1 <1>         0.128800 
     33 C          -0.803000    2.991000   -0.211000 C.ar      1 <1>        -0.102000 
     34 H          -0.638000    4.053000   -0.383000 H         1 <1>         0.119000 
     35 Cl         -1.798000   -1.305000    0.764000 Cl        1 <1>         0.136300 
@<TRIPOS>BOND
     1    1    2 ar   
     2    2    3 1    
     3    3    4 am   
     4    4    5 1    
     5    5    6 1    
     6    5    7 1    
     7    7    8 ar   
     8    8    1 1    
     9    8    9 ar   
    10    9   10 1    
    11    9   11 ar   
    12   11   12 ar   
    13   12    7 ar   
    14   12   13 1    
    15   13   14 2    
    16   13   15 am   
    17   15   16 1    
    18   15   17 1    
    19    5   18 1    
    20   18   19 1    
    21   18   20 1    
    22   18   21 1    
    23   21   22 1    
    24   21   23 1    
    25   21   24 1    
    26   24   25 1    
    27   24   26 1    
    28   24    4 1    
    29    3   27 2    
    30    2   28 ar   
    31   28   29 ar   
    32   29   30 1    
    33   29   31 ar   
    34   31   32 1    
    35   31   33 ar   
    36   33   34 1    
    37   33    1 ar   
    38   28   35 1    
@<TRIPOS>SUBSTRUCTURE
     1 ****        1 TEMP              0 ****  ****    0 ROOT 
@<TRIPOS>SET
UNITY_3DHIT     STATIC     ATOMS    <user>   **** Atoms matching 3D or FLEX Search
0
