#	Name:			Ro16-4261
#	Creating user name:	jeff
#	Creation time:		Tue Nov  4 15:20:00 2003

#	Modifying user name:	jeff
#	Modification time:	Tue Nov  4 15:20:00 2003

@<TRIPOS>MOLECULE
Ro16-4261
   46    49     1     0     1
SMALL
USER_CHARGES
****
From 3DB ct
@<TRIPOS>ATOM
      1 C           0.247000    2.127000    0.052000 C.ar      1 <1>         0.051200 
      2 C           0.000000    0.758000    0.234000 C.ar      1 <1>        -0.049600 
      3 C           1.050000   -0.289000    0.281000 C.2       1 <1>         0.505400 
      4 N           2.204000   -0.062000    0.986000 N.am      1 <1>        -0.341800 
      5 C           2.515000    1.095000    1.826000 C.3       1 <1>         0.252100 
      6 H           1.713000    1.202000    2.567000 H         1 <1>         0.047900 
      7 C           2.595000    2.314000    0.967000 C.ar      1 <1>        -0.223300 
      8 N           1.548000    2.690000    0.130000 N.pl3     1 <1>        -0.033600 
      9 C           1.973000    3.806000   -0.554000 C.ar      1 <1>         0.075300 
     10 H           1.379000    4.267000   -1.335000 H         1 <1>         0.179800 
     11 N           3.151000    4.222000   -0.160000 N.ar      1 <1>        -0.364900 
     12 C           3.516000    3.363000    0.863000 C.ar      1 <1>         0.089400 
     13 C           4.705000    3.662000    1.670000 C.2       1 <1>         0.639200 
     14 O           5.404000    4.653000    1.480000 O.2       1 <1>        -0.439200 
     15 O           4.869000    2.772000    2.690000 O.3       1 <1>        -0.516100 
     16 C           5.908000    2.945000    3.692000 C.3       1 <1>         0.596600 
     17 C           5.701000    4.243000    4.482000 C.3       1 <1>        -0.326200 
     18 H           6.380000    4.302000    5.340000 H         1 <1>         0.070400 
     19 H           4.670000    4.315000    4.846000 H         1 <1>         0.080900 
     20 H           5.878000    5.128000    3.864000 H         1 <1>         0.095900 
     21 C           7.305000    2.866000    3.068000 C.3       1 <1>        -0.339100 
     22 H           8.086000    2.855000    3.835000 H         1 <1>         0.080200 
     23 H           7.505000    3.715000    2.407000 H         1 <1>         0.097800 
     24 H           7.407000    1.963000    2.456000 H         1 <1>         0.063900 
     25 C           5.734000    1.760000    4.655000 C.3       1 <1>        -0.320900 
     26 H           6.462000    1.789000    5.472000 H         1 <1>         0.078800 
     27 H           5.848000    0.806000    4.127000 H         1 <1>         0.080700 
     28 H           4.727000    1.753000    5.088000 H         1 <1>         0.076300 
     29 C           3.825000    0.683000    2.516000 C.3       1 <1>        -0.062400 
     30 H           3.900000    1.077000    3.532000 H         1 <1>         0.037300 
     31 H           4.709000    1.000000    1.950000 H         1 <1>         0.071300 
     32 C           3.792000   -0.836000    2.517000 C.3       1 <1>        -0.110300 
     33 H           4.780000   -1.285000    2.640000 H         1 <1>         0.059700 
     34 H           3.142000   -1.194000    3.324000 H         1 <1>         0.048200 
     35 C           3.175000   -1.132000    1.168000 C.3       1 <1>         0.013800 
     36 H           3.912000   -1.050000    0.361000 H         1 <1>         0.046600 
     37 H           2.712000   -2.122000    1.128000 H         1 <1>         0.075700 
     38 O           0.841000   -1.349000   -0.313000 O.2       1 <1>        -0.432900 
     39 C          -1.325000    0.284000    0.201000 C.ar      1 <1>        -0.252600 
     40 H          -1.544000   -0.774000    0.324000 H         1 <1>         0.199600 
     41 C          -2.379000    1.162000   -0.011000 C.ar      1 <1>         0.389700 
     42 C          -2.146000    2.512000   -0.217000 C.ar      1 <1>        -0.220400 
     43 H          -2.980000    3.187000   -0.387000 H         1 <1>         0.166000 
     44 C          -0.837000    2.996000   -0.195000 C.ar      1 <1>        -0.117700 
     45 H          -0.693000    4.068000   -0.328000 H         1 <1>         0.134900 
     46 F          -3.635000    0.696000   -0.035000 F         1 <1>        -0.253500 
@<TRIPOS>BOND
     1    1    2 ar   
     2    2    3 1    
     3    3    4 am   
     4    4    5 1    
     5    5    6 1    
     6    5    7 1    
     7    7    8 ar   
     8    8    1 1    
     9    8    9 ar   
    10    9   10 1    
    11    9   11 ar   
    12   11   12 ar   
    13   12    7 ar   
    14   12   13 1    
    15   13   14 2    
    16   13   15 1    
    17   15   16 1    
    18   16   17 1    
    19   17   18 1    
    20   17   19 1    
    21   17   20 1    
    22   16   21 1    
    23   21   22 1    
    24   21   23 1    
    25   21   24 1    
    26   16   25 1    
    27   25   26 1    
    28   25   27 1    
    29   25   28 1    
    30    5   29 1    
    31   29   30 1    
    32   29   31 1    
    33   29   32 1    
    34   32   33 1    
    35   32   34 1    
    36   32   35 1    
    37   35   36 1    
    38   35   37 1    
    39   35    4 1    
    40    3   38 2    
    41    2   39 ar   
    42   39   40 1    
    43   39   41 ar   
    44   41   42 ar   
    45   42   43 1    
    46   42   44 ar   
    47   44   45 1    
    48   44    1 ar   
    49   41   46 1    
@<TRIPOS>SUBSTRUCTURE
     1 ****        1 TEMP              0 ****  ****    0 ROOT 
@<TRIPOS>SET
UNITY_3DHIT     STATIC     ATOMS    <user>   **** Atoms matching 3D or FLEX Search
0
