#	Name:			Ro16-8912
#	Creating user name:	jeff
#	Creation time:		Tue Nov  4 15:20:00 2003

#	Modifying user name:	jeff
#	Modification time:	Tue Nov  4 15:20:00 2003

@<TRIPOS>MOLECULE
Ro16-8912
   46    49     1     0     1
SMALL
USER_CHARGES
****
From 3DB ct
@<TRIPOS>ATOM
      1 C           0.282000    2.103000    0.008000 C.ar      1 <1>         0.181300 
      2 C           0.001000    0.754000    0.245000 C.ar      1 <1>        -0.298900 
      3 C           1.032000   -0.301000    0.270000 C.2       1 <1>         0.565200 
      4 N           2.186000   -0.096000    0.992000 N.am      1 <1>        -0.389700 
      5 C           2.539000    1.068000    1.809000 C.3       1 <1>         0.292200 
      6 H           1.761000    1.210000    2.570000 H         1 <1>         0.035900 
      7 C           2.623000    2.274000    0.922000 C.ar      1 <1>        -0.171800 
      8 N           1.598000    2.625000    0.046000 N.pl3     1 <1>        -0.094400 
      9 C           2.045000    3.708000   -0.674000 C.ar      1 <1>         0.115100 
     10 H           1.482000    4.118000   -1.506000 H         1 <1>         0.171000 
     11 N           3.187000    4.170000   -0.226000 N.ar      1 <1>        -0.374700 
     12 C           3.499000    3.364000    0.856000 C.ar      1 <1>         0.060800 
     13 C           4.561000    3.773000    1.784000 C.2       1 <1>         0.669600 
     14 O           5.204000    4.808000    1.657000 O.2       1 <1>        -0.443600 
     15 O           4.628000    2.925000    2.844000 O.3       1 <1>        -0.558700 
     16 C           5.390000    3.235000    4.039000 C.3       1 <1>         0.613600 
     17 C           6.879000    3.427000    3.738000 C.3       1 <1>        -0.366900 
     18 H           7.468000    3.434000    4.660000 H         1 <1>         0.084400 
     19 H           7.064000    4.375000    3.225000 H         1 <1>         0.106800 
     20 H           7.255000    2.633000    3.085000 H         1 <1>         0.074500 
     21 C           5.214000    1.999000    4.931000 C.3       1 <1>        -0.311000 
     22 H           5.672000    2.135000    5.917000 H         1 <1>         0.075500 
     23 H           5.659000    1.110000    4.468000 H         1 <1>         0.075700 
     24 H           4.150000    1.768000    5.071000 H         1 <1>         0.075700 
     25 C           4.800000    4.452000    4.756000 C.3       1 <1>        -0.300600 
     26 H           5.288000    4.606000    5.724000 H         1 <1>         0.063100 
     27 H           3.724000    4.329000    4.923000 H         1 <1>         0.070700 
     28 H           4.923000    5.366000    4.166000 H         1 <1>         0.089100 
     29 C           3.863000    0.639000    2.475000 C.3       1 <1>        -0.061000 
     30 H           3.947000    0.997000    3.505000 H         1 <1>         0.040700 
     31 H           4.742000    0.983000    1.916000 H         1 <1>         0.070700 
     32 C           3.841000   -0.884000    2.445000 C.3       1 <1>        -0.156800 
     33 H           4.840000   -1.322000    2.502000 H         1 <1>         0.067700 
     34 H           3.247000   -1.271000    3.279000 H         1 <1>         0.060900 
     35 C           3.154000   -1.170000    1.134000 C.3       1 <1>         0.058400 
     36 H           3.851000   -1.093000    0.296000 H         1 <1>         0.036200 
     37 H           2.678000   -2.154000    1.109000 H         1 <1>         0.068500 
     38 O           0.836000   -1.334000   -0.372000 O.2       1 <1>        -0.422500 
     39 C          -1.337000    0.334000    0.290000 C.ar      1 <1>         0.429600 
     40 C          -2.386000    1.234000    0.131000 C.ar      1 <1>        -0.285200 
     41 H          -3.414000    0.889000    0.194000 H         1 <1>         0.163800 
     42 C          -2.104000    2.571000   -0.133000 C.ar      1 <1>         0.016000 
     43 H          -2.917000    3.282000   -0.262000 H         1 <1>         0.119000 
     44 C          -0.779000    3.004000   -0.212000 C.ar      1 <1>        -0.229000 
     45 H          -0.603000    4.063000   -0.398000 H         1 <1>         0.137300 
     46 F          -1.645000   -0.957000    0.495000 F         1 <1>        -0.224300 
@<TRIPOS>BOND
     1    1    2 ar   
     2    2    3 1    
     3    3    4 am   
     4    4    5 1    
     5    5    6 1    
     6    5    7 1    
     7    7    8 ar   
     8    8    1 1    
     9    8    9 ar   
    10    9   10 1    
    11    9   11 ar   
    12   11   12 ar   
    13   12    7 ar   
    14   12   13 1    
    15   13   14 2    
    16   13   15 1    
    17   15   16 1    
    18   16   17 1    
    19   17   18 1    
    20   17   19 1    
    21   17   20 1    
    22   16   21 1    
    23   21   22 1    
    24   21   23 1    
    25   21   24 1    
    26   16   25 1    
    27   25   26 1    
    28   25   27 1    
    29   25   28 1    
    30    5   29 1    
    31   29   30 1    
    32   29   31 1    
    33   29   32 1    
    34   32   33 1    
    35   32   34 1    
    36   32   35 1    
    37   35   36 1    
    38   35   37 1    
    39   35    4 1    
    40    3   38 2    
    41    2   39 ar   
    42   39   40 ar   
    43   40   41 1    
    44   40   42 ar   
    45   42   43 1    
    46   42   44 ar   
    47   44   45 1    
    48   44    1 ar   
    49   39   46 1    
@<TRIPOS>SUBSTRUCTURE
     1 ****        1 TEMP              0 ****  ****    0 ROOT 
@<TRIPOS>SET
UNITY_3DHIT     STATIC     ATOMS    <user>   **** Atoms matching 3D or FLEX Search
0
