#	Name:			Ro16-6950
#	Creating user name:	jeff
#	Creation time:		Tue Nov  4 15:20:01 2003

#	Modifying user name:	jeff
#	Modification time:	Tue Nov  4 15:20:01 2003

@<TRIPOS>MOLECULE
Ro16-6950
   48    51     1     0     1
SMALL
USER_CHARGES
****
From 3DB ct
@<TRIPOS>ATOM
      1 C           0.306000    2.054000   -0.021000 C.ar      1 <1>         0.283700 
      2 C          -0.063000    0.769000    0.411000 C.ar      1 <1>        -0.198600 
      3 C           0.921000   -0.336000    0.466000 C.2       1 <1>         0.491600 
      4 N           2.133000   -0.132000    1.070000 N.am      1 <1>        -0.236100 
      5 C           2.538000    1.023000    1.876000 C.3       1 <1>        -0.023700 
      6 H           1.782000    1.209000    2.648000 H         1 <1>         0.092200 
      7 C           2.631000    2.218000    0.979000 C.ar      1 <1>         0.113700 
      8 N           1.645000    2.535000    0.041000 N.pl3     1 <1>        -0.319800 
      9 C           2.152000    3.570000   -0.711000 C.ar      1 <1>         0.190600 
     10 H           1.664000    3.926000   -1.608000 H         1 <1>         0.159200 
     11 N           3.240000    4.082000   -0.185000 N.ar      1 <1>        -0.384600 
     12 C           3.471000    3.338000    0.959000 C.ar      1 <1>        -0.029000 
     13 C           4.450000    3.814000    1.948000 C.2       1 <1>         0.727300 
     14 O           5.083000    4.854000    1.809000 O.2       1 <1>        -0.443200 
     15 O           4.489000    3.023000    3.058000 O.3       1 <1>        -0.560500 
     16 C           5.331000    3.346000    4.199000 C.3       1 <1>         0.595800 
     17 C           6.805000    3.512000    3.814000 C.3       1 <1>        -0.375800 
     18 H           7.445000    3.570000    4.702000 H         1 <1>         0.086000 
     19 H           6.979000    4.422000    3.234000 H         1 <1>         0.105700 
     20 H           7.146000    2.676000    3.193000 H         1 <1>         0.091700 
     21 C           5.209000    2.129000    5.129000 C.3       1 <1>        -0.248100 
     22 H           5.769000    2.268000    6.060000 H         1 <1>         0.063300 
     23 H           5.583000    1.225000    4.633000 H         1 <1>         0.052800 
     24 H           4.160000    1.931000    5.377000 H         1 <1>         0.063300 
     25 C           4.789000    4.580000    4.926000 C.3       1 <1>        -0.333700 
     26 H           5.347000    4.777000    5.849000 H         1 <1>         0.077100 
     27 H           3.732000    4.447000    5.181000 H         1 <1>         0.074300 
     28 H           4.846000    5.475000    4.300000 H         1 <1>         0.094800 
     29 C           3.856000    0.539000    2.507000 C.3       1 <1>         0.015200 
     30 H           3.637000    0.065000    3.472000 H         1 <1>         0.059200 
     31 H           4.624000    1.286000    2.681000 H         1 <1>        -0.006600 
     32 C           4.393000   -0.517000    1.552000 C.3       1 <1>        -0.076300 
     33 H           4.909000   -0.036000    0.713000 H         1 <1>         0.050500 
     34 H           5.094000   -1.201000    2.037000 H         1 <1>         0.048600 
     35 C           3.130000   -1.195000    1.086000 C.3       1 <1>         0.005800 
     36 H           3.228000   -1.663000    0.102000 H         1 <1>         0.062800 
     37 H           2.789000   -1.951000    1.802000 H         1 <1>         0.047000 
     38 O           0.634000   -1.395000   -0.095000 O.2       1 <1>        -0.408800 
     39 C          -1.434000    0.459000    0.484000 C.ar      1 <1>         0.050800 
     40 C          -2.426000    1.368000    0.087000 C.ar      1 <1>        -0.144200 
     41 H          -3.483000    1.117000    0.152000 H         1 <1>         0.165900 
     42 C          -2.048000    2.603000   -0.420000 C.ar      1 <1>        -0.036300 
     43 H          -2.803000    3.311000   -0.763000 H         1 <1>         0.127000 
     44 C          -0.696000    2.948000   -0.461000 C.ar      1 <1>        -0.180100 
     45 H          -0.457000    3.953000   -0.807000 H         1 <1>         0.139200 
     46 N          -1.875000   -0.822000    1.014000 N.2       1 <1>         0.585400 
     47 O          -2.712000   -1.465000    0.356000 O.2       1 <1>        -0.350100 
     48 O          -1.411000   -1.183000    2.111000 O.3       1 <1>        -0.365100 
@<TRIPOS>BOND
     1    1    2 ar   
     2    2    3 1    
     3    3    4 am   
     4    4    5 1    
     5    5    6 1    
     6    5    7 1    
     7    7    8 ar   
     8    8    1 1    
     9    8    9 ar   
    10    9   10 1    
    11    9   11 ar   
    12   11   12 ar   
    13   12    7 ar   
    14   12   13 1    
    15   13   14 2    
    16   13   15 1    
    17   15   16 1    
    18   16   17 1    
    19   17   18 1    
    20   17   19 1    
    21   17   20 1    
    22   16   21 1    
    23   21   22 1    
    24   21   23 1    
    25   21   24 1    
    26   16   25 1    
    27   25   26 1    
    28   25   27 1    
    29   25   28 1    
    30    5   29 1    
    31   29   30 1    
    32   29   31 1    
    33   29   32 1    
    34   32   33 1    
    35   32   34 1    
    36   32   35 1    
    37   35   36 1    
    38   35   37 1    
    39   35    4 1    
    40    3   38 2    
    41    2   39 ar   
    42   39   40 ar   
    43   40   41 1    
    44   40   42 ar   
    45   42   43 1    
    46   42   44 ar   
    47   44   45 1    
    48   44    1 ar   
    49   39   46 1    
    50   46   47 2    
    51   46   48 1    
@<TRIPOS>SUBSTRUCTURE
     1 ****        1 TEMP              0 ****  ****    0 ROOT 
@<TRIPOS>SET
UNITY_3DHIT     STATIC     ATOMS    <user>   **** Atoms matching 3D or FLEX Search
0
@<TRIPOS>UNITY_ATOM_ATTR
46 1
AtomExpr +1
48 1
AtomExpr -1
