#	Name:			Ro16-5824
#	Creating user name:	jeff
#	Creation time:		Tue Nov  4 15:20:00 2003

#	Modifying user name:	jeff
#	Modification time:	Tue Nov  4 15:20:00 2003

@<TRIPOS>MOLECULE
Ro16-5824
   50    53     1     0     1
SMALL
USER_CHARGES
****
From 3DB ct
@<TRIPOS>ATOM
      1 C           0.279000    2.087000    0.002000 C.ar      1 <1>         0.013900 
      2 C          -0.011000    0.743000    0.291000 C.ar      1 <1>         0.047800 
      3 C           1.054000   -0.287000    0.239000 C.2       1 <1>         0.434400 
      4 N           2.204000   -0.091000    0.965000 N.am      1 <1>        -0.363800 
      5 C           2.540000    1.056000    1.803000 C.3       1 <1>         0.230100 
      6 H           1.753000    1.175000    2.557000 H         1 <1>         0.035600 
      7 C           2.623000    2.266000    0.927000 C.ar      1 <1>        -0.131300 
      8 N           1.598000    2.611000    0.047000 N.pl3     1 <1>        -0.092400 
      9 C           2.044000    3.694000   -0.670000 C.ar      1 <1>         0.127600 
     10 H           1.493000    4.112000   -1.503000 H         1 <1>         0.169600 
     11 N           3.180000    4.157000   -0.221000 N.ar      1 <1>        -0.382900 
     12 C           3.523000    3.335000    0.839000 C.ar      1 <1>         0.041400 
     13 C           4.654000    3.678000    1.713000 C.2       1 <1>         0.666100 
     14 O           5.343000    4.678000    1.566000 O.2       1 <1>        -0.439800 
     15 O           4.863000    2.726000    2.667000 O.3       1 <1>        -0.549000 
     16 C           5.979000    2.809000    3.587000 C.3       1 <1>         0.619100 
     17 C           5.876000    4.049000    4.481000 C.3       1 <1>        -0.301000 
     18 H           6.627000    4.029000    5.278000 H         1 <1>         0.062800 
     19 H           6.024000    4.974000    3.916000 H         1 <1>         0.088300 
     20 H           4.883000    4.117000    4.938000 H         1 <1>         0.072600 
     21 C           5.849000    1.556000    4.467000 C.3       1 <1>        -0.364900 
     22 H           5.873000    0.647000    3.856000 H         1 <1>         0.096600 
     23 H           6.651000    1.496000    5.210000 H         1 <1>         0.087000 
     24 H           4.887000    1.548000    4.994000 H         1 <1>         0.086000 
     25 C           7.317000    2.747000    2.844000 C.3       1 <1>        -0.332900 
     26 H           7.333000    1.908000    2.139000 H         1 <1>         0.061900 
     27 H           7.499000    3.653000    2.255000 H         1 <1>         0.091500 
     28 H           8.155000    2.635000    3.539000 H         1 <1>         0.079200 
     29 C           3.858000    0.619000    2.462000 C.3       1 <1>         0.085800 
     30 H           3.966000    1.011000    3.478000 H         1 <1>        -0.008900 
     31 H           4.733000    0.920000    1.874000 H         1 <1>         0.022400 
     32 C           3.794000   -0.901000    2.461000 C.3       1 <1>        -0.175600 
     33 H           4.775000   -1.371000    2.568000 H         1 <1>         0.064600 
     34 H           3.150000   -1.249000    3.278000 H         1 <1>         0.061000 
     35 C           3.149000   -1.181000    1.122000 C.3       1 <1>         0.060400 
     36 H           3.875000   -1.115000    0.304000 H         1 <1>         0.040000 
     37 H           2.660000   -2.159000    1.088000 H         1 <1>         0.064700 
     38 O           0.894000   -1.268000   -0.483000 O.2       1 <1>        -0.408400 
     39 C          -1.359000    0.334000    0.417000 C.ar      1 <1>        -0.073400 
     40 C          -2.389000    1.262000    0.198000 C.ar      1 <1>        -0.083700 
     41 H          -3.432000    0.967000    0.312000 H         1 <1>         0.116400 
     42 C          -2.098000    2.572000   -0.165000 C.ar      1 <1>        -0.090700 
     43 H          -2.906000    3.280000   -0.337000 H         1 <1>         0.122000 
     44 C          -0.773000    2.988000   -0.258000 C.ar      1 <1>        -0.114000 
     45 H          -0.591000    4.039000   -0.473000 H         1 <1>         0.119300 
     46 S          -1.865000   -1.299000    0.976000 S.3       1 <1>        -0.025900 
     47 C          -3.672000   -1.188000    1.075000 C.3       1 <1>        -0.135100 
     48 H          -4.074000   -2.166000    1.353000 H         1 <1>         0.088400 
     49 H          -3.970000   -0.462000    1.836000 H         1 <1>         0.048000 
     50 H          -4.100000   -0.896000    0.113000 H         1 <1>         0.069200 
@<TRIPOS>BOND
     1    1    2 ar   
     2    2    3 1    
     3    3    4 am   
     4    4    5 1    
     5    5    6 1    
     6    5    7 1    
     7    7    8 ar   
     8    8    1 1    
     9    8    9 ar   
    10    9   10 1    
    11    9   11 ar   
    12   11   12 ar   
    13   12    7 ar   
    14   12   13 1    
    15   13   14 2    
    16   13   15 1    
    17   15   16 1    
    18   16   17 1    
    19   17   18 1    
    20   17   19 1    
    21   17   20 1    
    22   16   21 1    
    23   21   22 1    
    24   21   23 1    
    25   21   24 1    
    26   16   25 1    
    27   25   26 1    
    28   25   27 1    
    29   25   28 1    
    30    5   29 1    
    31   29   30 1    
    32   29   31 1    
    33   29   32 1    
    34   32   33 1    
    35   32   34 1    
    36   32   35 1    
    37   35   36 1    
    38   35   37 1    
    39   35    4 1    
    40    3   38 2    
    41    2   39 ar   
    42   39   40 ar   
    43   40   41 1    
    44   40   42 ar   
    45   42   43 1    
    46   42   44 ar   
    47   44   45 1    
    48   44    1 ar   
    49   39   46 1    
    50   46   47 1    
    51   47   48 1    
    52   47   49 1    
    53   47   50 1    
@<TRIPOS>SUBSTRUCTURE
     1 ****        1 TEMP              0 ****  ****    0 ROOT 
@<TRIPOS>SET
UNITY_3DHIT     STATIC     ATOMS    <user>   **** Atoms matching 3D or FLEX Search
0
