#	Name:			Ro16-3774
#	Creating user name:	jeff
#	Creation time:		Tue Nov  4 15:20:00 2003

#	Modifying user name:	jeff
#	Modification time:	Tue Nov  4 15:20:00 2003

@<TRIPOS>MOLECULE
Ro16-3774
   49    52     1     0     1
SMALL
USER_CHARGES
****
From 3DB ct
@<TRIPOS>ATOM
      1 C           0.275000    2.099000    0.022000 C.ar      1 <1>         0.164000 
      2 C          -0.009000    0.746000    0.270000 C.ar      1 <1>        -0.257000 
      3 C           1.054000   -0.295000    0.248000 C.2       1 <1>         0.558100 
      4 N           2.214000   -0.086000    0.953000 N.am      1 <1>        -0.364100 
      5 C           2.547000    1.060000    1.794000 C.3       1 <1>         0.221900 
      6 H           1.758000    1.172000    2.548000 H         1 <1>         0.050500 
      7 C           2.626000    2.274000    0.927000 C.ar      1 <1>        -0.161500 
      8 N           1.591000    2.630000    0.067000 N.pl3     1 <1>        -0.085200 
      9 C           2.025000    3.726000   -0.639000 C.ar      1 <1>         0.097600 
     10 H           1.460000    4.159000   -1.454000 H         1 <1>         0.173900 
     11 N           3.174000    4.176000   -0.207000 N.ar      1 <1>        -0.371200 
     12 C           3.532000    3.337000    0.834000 C.ar      1 <1>         0.056200 
     13 C           4.682000    3.658000    1.691000 C.2       1 <1>         0.665400 
     14 O           5.374000    4.658000    1.541000 O.2       1 <1>        -0.447200 
     15 O           4.903000    2.697000    2.632000 O.3       1 <1>        -0.538800 
     16 C           6.018000    2.792000    3.552000 C.3       1 <1>         0.605100 
     17 C           5.892000    4.022000    4.457000 C.3       1 <1>        -0.328900 
     18 H           6.640000    4.008000    5.256000 H         1 <1>         0.070200 
     19 H           6.027000    4.955000    3.900000 H         1 <1>         0.098000 
     20 H           4.896000    4.070000    4.912000 H         1 <1>         0.078600 
     21 C           5.916000    1.531000    4.424000 C.3       1 <1>        -0.320700 
     22 H           5.965000    0.625000    3.809000 H         1 <1>         0.078500 
     23 H           6.716000    1.486000    5.171000 H         1 <1>         0.078600 
     24 H           4.953000    1.496000    4.948000 H         1 <1>         0.077500 
     25 C           7.359000    2.761000    2.809000 C.3       1 <1>        -0.342500 
     26 H           7.392000    1.926000    2.101000 H         1 <1>         0.063700 
     27 H           7.526000    3.672000    2.226000 H         1 <1>         0.100700 
     28 H           8.199000    2.661000    3.505000 H         1 <1>         0.080000 
     29 C           3.863000    0.624000    2.456000 C.3       1 <1>        -0.028000 
     30 H           3.974000    1.025000    3.468000 H         1 <1>         0.036800 
     31 H           4.737000    0.916000    1.862000 H         1 <1>         0.063800 
     32 C           3.792000   -0.894000    2.467000 C.3       1 <1>        -0.163100 
     33 H           4.771000   -1.369000    2.582000 H         1 <1>         0.067800 
     34 H           3.142000   -1.233000    3.282000 H         1 <1>         0.059700 
     35 C           3.154000   -1.180000    1.126000 C.3       1 <1>         0.055900 
     36 H           3.885000   -1.121000    0.311000 H         1 <1>         0.037800 
     37 H           2.664000   -2.158000    1.097000 H         1 <1>         0.065200 
     38 O           0.862000   -1.321000   -0.401000 O.2       1 <1>        -0.441500 
     39 C          -1.360000    0.322000    0.359000 C.ar      1 <1>         0.212900 
     40 C          -2.393000    1.245000    0.131000 C.ar      1 <1>        -0.205900 
     41 H          -3.434000    0.927000    0.176000 H         1 <1>         0.136600 
     42 C          -2.106000    2.571000   -0.169000 C.ar      1 <1>        -0.032400 
     43 H          -2.915000    3.276000   -0.346000 H         1 <1>         0.115200 
     44 C          -0.782000    2.999000   -0.220000 C.ar      1 <1>        -0.209700 
     45 H          -0.605000    4.057000   -0.403000 H         1 <1>         0.132000 
     46 C          -1.745000   -1.107000    0.650000 C.3       1 <1>        -0.267800 
     47 H          -1.091000   -1.542000    1.412000 H         1 <1>         0.088600 
     48 H          -2.764000   -1.164000    1.049000 H         1 <1>         0.065800 
     49 H          -1.704000   -1.706000   -0.264000 H         1 <1>         0.108700 
@<TRIPOS>BOND
     1    1    2 ar   
     2    2    3 1    
     3    3    4 am   
     4    4    5 1    
     5    5    6 1    
     6    5    7 1    
     7    7    8 ar   
     8    8    1 1    
     9    8    9 ar   
    10    9   10 1    
    11    9   11 ar   
    12   11   12 ar   
    13   12    7 ar   
    14   12   13 1    
    15   13   14 2    
    16   13   15 1    
    17   15   16 1    
    18   16   17 1    
    19   17   18 1    
    20   17   19 1    
    21   17   20 1    
    22   16   21 1    
    23   21   22 1    
    24   21   23 1    
    25   21   24 1    
    26   16   25 1    
    27   25   26 1    
    28   25   27 1    
    29   25   28 1    
    30    5   29 1    
    31   29   30 1    
    32   29   31 1    
    33   29   32 1    
    34   32   33 1    
    35   32   34 1    
    36   32   35 1    
    37   35   36 1    
    38   35   37 1    
    39   35    4 1    
    40    3   38 2    
    41    2   39 ar   
    42   39   40 ar   
    43   40   41 1    
    44   40   42 ar   
    45   42   43 1    
    46   42   44 ar   
    47   44   45 1    
    48   44    1 ar   
    49   39   46 1    
    50   46   47 1    
    51   46   48 1    
    52   46   49 1    
@<TRIPOS>SUBSTRUCTURE
     1 ****        1 TEMP              0 ****  ****    0 ROOT 
@<TRIPOS>SET
UNITY_3DHIT     STATIC     ATOMS    <user>   **** Atoms matching 3D or FLEX Search
0
