#	Name:			Ro16-0529
#	Creating user name:	jeff
#	Creation time:		Tue Nov  4 15:19:57 2003

#	Modifying user name:	jeff
#	Modification time:	Tue Nov  4 15:19:57 2003

@<TRIPOS>MOLECULE
Ro16-0529
   48    51     1     0     1
SMALL
USER_CHARGES
****
From 3DB ct
@<TRIPOS>ATOM
      1 C           0.259000    2.112000   -0.015000 C.ar      1 <1>        -0.271500 
      2 C           0.001000    0.751000    0.264000 C.ar      1 <1>         0.651700 
      3 C           1.120000   -0.255000    0.294000 C.2       1 <1>        -0.070800 
      4 N           2.196000   -0.148000    1.008000 N.2       1 <1>        -0.309000 
      5 C           2.380000    1.053000    1.809000 C.3       1 <1>         0.093700 
      6 H           3.245000    0.900000    2.460000 H         1 <1>         0.090800 
      7 H           1.533000    1.228000    2.484000 H         1 <1>         0.026700 
      8 C           2.590000    2.190000    0.883000 C.ar      1 <1>        -0.096700 
      9 N           1.571000    2.647000    0.067000 N.pl3     1 <1>        -0.000800 
     10 C           2.062000    3.766000   -0.567000 C.ar      1 <1>         0.071600 
     11 H           1.468000    4.349000   -1.260000 H         1 <1>         0.184500 
     12 N           3.321000    4.002000   -0.268000 N.ar      1 <1>        -0.383200 
     13 C           3.680000    3.017000    0.642000 C.ar      1 <1>         0.076200 
     14 C           5.019000    2.934000    1.241000 C.2       1 <1>         0.626800 
     15 O           5.928000    3.719000    0.993000 O.2       1 <1>        -0.430700 
     16 O           5.118000    1.877000    2.099000 O.3       1 <1>        -0.517400 
     17 C           6.348000    1.587000    2.815000 C.3       1 <1>         0.573600 
     18 C           7.487000    1.245000    1.847000 C.3       1 <1>        -0.302800 
     19 H           8.366000    0.870000    2.382000 H         1 <1>         0.065300 
     20 H           7.803000    2.115000    1.265000 H         1 <1>         0.087600 
     21 H           7.167000    0.484000    1.125000 H         1 <1>         0.073500 
     22 C           6.027000    0.341000    3.654000 C.3       1 <1>        -0.265200 
     23 H           6.887000    0.017000    4.248000 H         1 <1>         0.063300 
     24 H           5.715000   -0.491000    3.012000 H         1 <1>         0.064400 
     25 H           5.190000    0.536000    4.335000 H         1 <1>         0.067200 
     26 C           6.725000    2.732000    3.761000 C.3       1 <1>        -0.343900 
     27 H           7.557000    2.450000    4.416000 H         1 <1>         0.078600 
     28 H           5.871000    3.015000    4.386000 H         1 <1>         0.074400 
     29 H           7.027000    3.630000    3.215000 H         1 <1>         0.098200 
     30 C           1.038000   -1.443000   -0.620000 C.ar      1 <1>         0.191700 
     31 C           0.554000   -1.316000   -1.929000 C.ar      1 <1>        -0.203800 
     32 H           0.225000   -0.357000   -2.321000 H         1 <1>         0.123000 
     33 C           0.503000   -2.434000   -2.765000 C.ar      1 <1>        -0.098100 
     34 H           0.125000   -2.336000   -3.781000 H         1 <1>         0.112600 
     35 C           0.942000   -3.675000   -2.303000 C.ar      1 <1>        -0.123400 
     36 H           0.902000   -4.544000   -2.958000 H         1 <1>         0.108400 
     37 C           1.440000   -3.802000   -1.007000 C.ar      1 <1>        -0.037300 
     38 H           1.788000   -4.769000   -0.649000 H         1 <1>         0.095300 
     39 C           1.494000   -2.688000   -0.167000 C.ar      1 <1>        -0.201200 
     40 H           1.884000   -2.798000    0.842000 H         1 <1>         0.141600 
     41 C          -1.337000    0.325000    0.382000 C.ar      1 <1>        -0.642800 
     42 C          -2.388000    1.210000    0.121000 C.ar      1 <1>         0.215500 
     43 H          -3.422000    0.882000    0.205000 H         1 <1>         0.059700 
     44 C          -2.122000    2.525000   -0.251000 C.ar      1 <1>        -0.218800 
     45 H          -2.944000    3.209000   -0.457000 H         1 <1>         0.140400 
     46 C          -0.805000    2.981000   -0.310000 C.ar      1 <1>         0.019300 
     47 H          -0.646000    4.034000   -0.535000 H         1 <1>         0.104200 
     48 Cl         -1.779000   -1.265000    0.910000 Cl        1 <1>         0.137500 
@<TRIPOS>BOND
     1    1    2 ar   
     2    2    3 1    
     3    3    4 2    
     4    4    5 1    
     5    5    6 1    
     6    5    7 1    
     7    5    8 1    
     8    8    9 ar   
     9    9    1 1    
    10    9   10 ar   
    11   10   11 1    
    12   10   12 ar   
    13   12   13 ar   
    14   13    8 ar   
    15   13   14 1    
    16   14   15 2    
    17   14   16 1    
    18   16   17 1    
    19   17   18 1    
    20   18   19 1    
    21   18   20 1    
    22   18   21 1    
    23   17   22 1    
    24   22   23 1    
    25   22   24 1    
    26   22   25 1    
    27   17   26 1    
    28   26   27 1    
    29   26   28 1    
    30   26   29 1    
    31    3   30 1    
    32   30   31 ar   
    33   31   32 1    
    34   31   33 ar   
    35   33   34 1    
    36   33   35 ar   
    37   35   36 1    
    38   35   37 ar   
    39   37   38 1    
    40   37   39 ar   
    41   39   40 1    
    42   39   30 ar   
    43    2   41 ar   
    44   41   42 ar   
    45   42   43 1    
    46   42   44 ar   
    47   44   45 1    
    48   44   46 ar   
    49   46   47 1    
    50   46    1 ar   
    51   41   48 1    
@<TRIPOS>SUBSTRUCTURE
     1 ****        1 TEMP              0 ****  ****    0 ROOT 
@<TRIPOS>SET
UNITY_3DHIT     STATIC     ATOMS    <user>   **** Atoms matching 3D or FLEX Search
0
@<TRIPOS>UNITY_BOND_ATTR
3 1
S I
