#	Name:			Ro16-3031
#	Creating user name:	jeff
#	Creation time:		Tue Nov  4 15:20:01 2003

#	Modifying user name:	jeff
#	Modification time:	Tue Nov  4 15:20:01 2003

@<TRIPOS>MOLECULE
Ro16-3031
   43    46     1     0     1
SMALL
USER_CHARGES
****
From 3DB ct
@<TRIPOS>ATOM
      1 C           0.264000    2.096000    0.008000 C.ar      1 <1>        -0.010100 
      2 C          -0.006000    0.744000    0.272000 C.ar      1 <1>         0.267300 
      3 C           1.065000   -0.277000    0.249000 C.2       1 <1>         0.340700 
      4 N           2.204000   -0.066000    0.987000 N.am      1 <1>        -0.314200 
      5 C           2.521000    1.086000    1.826000 C.3       1 <1>         0.092800 
      6 H           1.724000    1.197000    2.571000 H         1 <1>         0.062700 
      7 C           2.599000    2.297000    0.952000 C.ar      1 <1>        -0.093300 
      8 N           1.574000    2.641000    0.072000 N.pl3     1 <1>        -0.076400 
      9 C           2.008000    3.738000   -0.630000 C.ar      1 <1>         0.099300 
     10 H           1.452000    4.164000   -1.456000 H         1 <1>         0.177000 
     11 N           3.144000    4.201000   -0.181000 N.ar      1 <1>        -0.364600 
     12 C           3.498000    3.367000    0.865000 C.ar      1 <1>         0.020800 
     13 C           4.641000    3.698000    1.728000 C.2       1 <1>         0.654000 
     14 O           5.334000    4.698000    1.586000 O.2       1 <1>        -0.434000 
     15 O           4.863000    2.742000    2.677000 O.3       1 <1>        -0.464200 
     16 C           5.987000    2.950000    3.548000 C.3       1 <1>         0.418400 
     17 H           6.821000    3.405000    3.000000 H         1 <1>         0.015400 
     18 C           6.430000    1.579000    4.045000 C.3       1 <1>        -0.341800 
     19 H           6.709000    0.942000    3.199000 H         1 <1>         0.077900 
     20 H           5.615000    1.066000    4.567000 H         1 <1>         0.080900 
     21 H           7.287000    1.658000    4.720000 H         1 <1>         0.089600 
     22 C           5.570000    3.840000    4.714000 C.3       1 <1>        -0.285700 
     23 H           5.249000    4.824000    4.358000 H         1 <1>         0.063900 
     24 H           4.717000    3.407000    5.250000 H         1 <1>         0.086700 
     25 H           6.394000    3.980000    5.420000 H         1 <1>         0.071800 
     26 C           3.833000    0.661000    2.501000 C.3       1 <1>        -0.015500 
     27 H           3.929000    1.062000    3.514000 H         1 <1>         0.064500 
     28 H           4.712000    0.959000    1.917000 H         1 <1>         0.066500 
     29 C           3.779000   -0.859000    2.511000 C.3       1 <1>        -0.233900 
     30 H           4.761000   -1.323000    2.631000 H         1 <1>         0.081200 
     31 H           3.128000   -1.204000    3.324000 H         1 <1>         0.080700 
     32 C           3.150000   -1.153000    1.167000 C.3       1 <1>         0.123500 
     33 H           3.885000   -1.093000    0.356000 H         1 <1>         0.033200 
     34 H           2.663000   -2.132000    1.138000 H         1 <1>         0.055200 
     35 O           0.915000   -1.273000   -0.454000 O.2       1 <1>        -0.392600 
     36 C          -1.345000    0.316000    0.356000 C.ar      1 <1>        -0.439800 
     37 C          -2.393000    1.212000    0.121000 C.ar      1 <1>         0.129100 
     38 H          -3.427000    0.879000    0.189000 H         1 <1>         0.064600 
     39 C          -2.122000    2.536000   -0.208000 C.ar      1 <1>        -0.128100 
     40 H          -2.940000    3.228000   -0.396000 H         1 <1>         0.128100 
     41 C          -0.802000    2.980000   -0.259000 C.ar      1 <1>        -0.104800 
     42 H          -0.637000    4.038000   -0.457000 H         1 <1>         0.121000 
     43 Cl         -1.801000   -1.290000    0.821000 Cl        1 <1>         0.132000 
@<TRIPOS>BOND
     1    1    2 ar   
     2    2    3 1    
     3    3    4 am   
     4    4    5 1    
     5    5    6 1    
     6    5    7 1    
     7    7    8 ar   
     8    8    1 1    
     9    8    9 ar   
    10    9   10 1    
    11    9   11 ar   
    12   11   12 ar   
    13   12    7 ar   
    14   12   13 1    
    15   13   14 2    
    16   13   15 1    
    17   15   16 1    
    18   16   17 1    
    19   16   18 1    
    20   18   19 1    
    21   18   20 1    
    22   18   21 1    
    23   16   22 1    
    24   22   23 1    
    25   22   24 1    
    26   22   25 1    
    27    5   26 1    
    28   26   27 1    
    29   26   28 1    
    30   26   29 1    
    31   29   30 1    
    32   29   31 1    
    33   29   32 1    
    34   32   33 1    
    35   32   34 1    
    36   32    4 1    
    37    3   35 2    
    38    2   36 ar   
    39   36   37 ar   
    40   37   38 1    
    41   37   39 ar   
    42   39   40 1    
    43   39   41 ar   
    44   41   42 1    
    45   41    1 ar   
    46   36   43 1    
@<TRIPOS>SUBSTRUCTURE
     1 ****        1 TEMP              0 ****  ****    0 ROOT 
@<TRIPOS>SET
UNITY_3DHIT     STATIC     ATOMS    <user>   **** Atoms matching 3D or FLEX Search
0
