#	Name:			Ro16-6048
#	Creating user name:	jeff
#	Creation time:		Tue Nov  4 15:20:01 2003

#	Modifying user name:	jeff
#	Modification time:	Tue Nov  4 15:20:01 2003

@<TRIPOS>MOLECULE
Ro16-6048
   49    52     1     0     1
SMALL
USER_CHARGES
****
From 3DB ct
@<TRIPOS>ATOM
      1 C           0.263000    2.106000    0.018000 C.ar      1 <1>         0.116200 
      2 C          -0.002000    0.750000    0.274000 C.ar      1 <1>        -0.000300 
      3 C           1.070000   -0.271000    0.256000 C.2       1 <1>         0.442100 
      4 N           2.214000   -0.057000    0.975000 N.am      1 <1>        -0.332400 
      5 C           2.525000    1.091000    1.821000 C.3       1 <1>         0.196500 
      6 H           1.726000    1.198000    2.564000 H         1 <1>         0.051500 
      7 C           2.600000    2.304000    0.951000 C.ar      1 <1>        -0.145600 
      8 N           1.570000    2.655000    0.082000 N.pl3     1 <1>        -0.096500 
      9 C           2.002000    3.756000   -0.617000 C.ar      1 <1>         0.097700 
     10 H           1.440000    4.191000   -1.433000 H         1 <1>         0.174800 
     11 N           3.147000    4.209000   -0.178000 N.ar      1 <1>        -0.364600 
     12 C           3.503000    3.368000    0.861000 C.ar      1 <1>         0.054800 
     13 C           4.647000    3.683000    1.725000 C.2       1 <1>         0.664000 
     14 O           5.339000    4.683000    1.583000 O.2       1 <1>        -0.440800 
     15 O           4.856000    2.719000    2.663000 O.3       1 <1>        -0.527600 
     16 C           5.969000    2.805000    3.585000 C.3       1 <1>         0.576400 
     17 C           7.310000    2.758000    2.842000 C.3       1 <1>        -0.327100 
     18 H           8.149000    2.669000    3.540000 H         1 <1>         0.078600 
     19 H           7.477000    3.658000    2.243000 H         1 <1>         0.097800 
     20 H           7.339000    1.910000    2.149000 H         1 <1>         0.063200 
     21 C           5.851000    1.547000    4.459000 C.3       1 <1>        -0.314400 
     22 H           6.654000    1.489000    5.200000 H         1 <1>         0.080100 
     23 H           5.881000    0.640000    3.843000 H         1 <1>         0.076500 
     24 H           4.891000    1.529000    4.987000 H         1 <1>         0.077200 
     25 C           5.859000    4.039000    4.487000 C.3       1 <1>        -0.317100 
     26 H           6.602000    4.013000    5.291000 H         1 <1>         0.069700 
     27 H           4.860000    4.105000    4.935000 H         1 <1>         0.077200 
     28 H           6.014000    4.968000    3.930000 H         1 <1>         0.094500 
     29 C           3.835000    0.666000    2.502000 C.3       1 <1>        -0.028900 
     30 H           3.926000    1.066000    3.517000 H         1 <1>         0.044100 
     31 H           4.717000    0.965000    1.924000 H         1 <1>         0.062500 
     32 C           3.779000   -0.854000    2.510000 C.3       1 <1>        -0.172300 
     33 H           4.760000   -1.319000    2.636000 H         1 <1>         0.071500 
     34 H           3.122000   -1.200000    3.318000 H         1 <1>         0.068500 
     35 C           3.158000   -1.146000    1.162000 C.3       1 <1>         0.062500 
     36 H           3.899000   -1.086000    0.356000 H         1 <1>         0.040800 
     37 H           2.670000   -2.125000    1.128000 H         1 <1>         0.071200 
     38 O           0.878000   -1.282000   -0.414000 O.2       1 <1>        -0.404500 
     39 C          -1.339000    0.296000    0.350000 C.ar      1 <1>        -0.306100 
     40 C          -2.388000    1.197000    0.090000 C.ar      1 <1>        -0.008900 
     41 H          -3.424000    0.858000    0.129000 H         1 <1>         0.121900 
     42 C          -2.122000    2.525000   -0.222000 C.ar      1 <1>        -0.080900 
     43 H          -2.943000    3.213000   -0.416000 H         1 <1>         0.125700 
     44 C          -0.807000    2.981000   -0.251000 C.ar      1 <1>        -0.129500 
     45 H          -0.649000    4.042000   -0.440000 H         1 <1>         0.130700 
     46 C          -1.685000   -1.133000    0.711000 C.3       1 <1>         1.065200 
     47 F          -2.926000   -1.213000    1.285000 F         1 <1>        -0.338200 
     48 F          -1.736000   -1.972000   -0.355000 F         1 <1>        -0.303600 
     49 F          -0.852000   -1.686000    1.634000 F         1 <1>        -0.313700 
@<TRIPOS>BOND
     1    1    2 ar   
     2    2    3 1    
     3    3    4 am   
     4    4    5 1    
     5    5    6 1    
     6    5    7 1    
     7    7    8 ar   
     8    8    1 1    
     9    8    9 ar   
    10    9   10 1    
    11    9   11 ar   
    12   11   12 ar   
    13   12    7 ar   
    14   12   13 1    
    15   13   14 2    
    16   13   15 1    
    17   15   16 1    
    18   16   17 1    
    19   17   18 1    
    20   17   19 1    
    21   17   20 1    
    22   16   21 1    
    23   21   22 1    
    24   21   23 1    
    25   21   24 1    
    26   16   25 1    
    27   25   26 1    
    28   25   27 1    
    29   25   28 1    
    30    5   29 1    
    31   29   30 1    
    32   29   31 1    
    33   29   32 1    
    34   32   33 1    
    35   32   34 1    
    36   32   35 1    
    37   35   36 1    
    38   35   37 1    
    39   35    4 1    
    40    3   38 2    
    41    2   39 ar   
    42   39   40 ar   
    43   40   41 1    
    44   40   42 ar   
    45   42   43 1    
    46   42   44 ar   
    47   44   45 1    
    48   44    1 ar   
    49   39   46 1    
    50   46   47 1    
    51   46   48 1    
    52   46   49 1    
@<TRIPOS>SUBSTRUCTURE
     1 ****        1 TEMP              0 ****  ****    0 ROOT 
@<TRIPOS>SET
UNITY_3DHIT     STATIC     ATOMS    <user>   **** Atoms matching 3D or FLEX Search
0
