#	Name:			Ro16-7082
#	Creating user name:	jeff
#	Creation time:		Tue Nov  4 15:20:01 2003

#	Modifying user name:	jeff
#	Modification time:	Tue Nov  4 15:20:01 2003

@<TRIPOS>MOLECULE
Ro16-7082
   46    49     1     0     1
SMALL
USER_CHARGES
****
From 3DB ct
@<TRIPOS>ATOM
      1 C           0.266000    2.095000    0.010000 C.ar      1 <1>        -0.030600 
      2 C          -0.005000    0.742000    0.267000 C.ar      1 <1>         0.295600 
      3 C           1.066000   -0.279000    0.244000 C.2       1 <1>         0.321200 
      4 N           2.202000   -0.070000    0.986000 N.am      1 <1>        -0.286100 
      5 C           2.523000    1.083000    1.823000 C.3       1 <1>        -0.055600 
      6 H           1.727000    1.196000    2.570000 H         1 <1>         0.091300 
      7 C           2.603000    2.294000    0.949000 C.ar      1 <1>        -0.009600 
      8 N           1.576000    2.637000    0.071000 N.pl3     1 <1>        -0.091200 
      9 C           2.008000    3.734000   -0.634000 C.ar      1 <1>         0.123500 
     10 H           1.451000    4.158000   -1.460000 H         1 <1>         0.169100 
     11 N           3.141000    4.200000   -0.184000 N.ar      1 <1>        -0.363200 
     12 C           3.498000    3.368000    0.864000 C.ar      1 <1>        -0.064100 
     13 C           4.636000    3.711000    1.728000 C.2       1 <1>         0.730200 
     14 O           5.323000    4.716000    1.589000 O.2       1 <1>        -0.440800 
     15 O           4.872000    2.754000    2.673000 O.3       1 <1>        -0.437600 
     16 C           6.016000    2.990000    3.501000 C.3       1 <1>         0.061200 
     17 H           6.890000    3.225000    2.880000 H         1 <1>         0.079500 
     18 H           5.802000    3.841000    4.158000 H         1 <1>         0.049400 
     19 C           6.289000    1.734000    4.340000 C.3       1 <1>         0.110100 
     20 H           5.375000    1.475000    4.891000 H         1 <1>         0.050100 
     21 C           7.410000    1.995000    5.343000 C.3       1 <1>        -0.324100 
     22 H           8.345000    2.256000    4.836000 H         1 <1>         0.087900 
     23 H           7.146000    2.820000    6.015000 H         1 <1>         0.071600 
     24 H           7.594000    1.109000    5.960000 H         1 <1>         0.090100 
     25 C           6.641000    0.540000    3.448000 C.3       1 <1>        -0.228900 
     26 H           6.845000   -0.350000    4.052000 H         1 <1>         0.058900 
     27 H           5.815000    0.297000    2.770000 H         1 <1>         0.027400 
     28 H           7.528000    0.747000    2.840000 H         1 <1>         0.084700 
     29 C           3.836000    0.655000    2.498000 C.3       1 <1>         0.129800 
     30 H           3.937000    1.061000    3.508000 H         1 <1>         0.025900 
     31 H           4.714000    0.944000    1.908000 H         1 <1>         0.047500 
     32 C           3.770000   -0.865000    2.518000 C.3       1 <1>        -0.280000 
     33 H           4.749000   -1.335000    2.643000 H         1 <1>         0.084700 
     34 H           3.115000   -1.200000    3.331000 H         1 <1>         0.086200 
     35 C           3.142000   -1.162000    1.174000 C.3       1 <1>         0.153500 
     36 H           3.878000   -1.110000    0.365000 H         1 <1>         0.021600 
     37 H           2.648000   -2.138000    1.149000 H         1 <1>         0.050100 
     38 O           0.918000   -1.274000   -0.460000 O.2       1 <1>        -0.393400 
     39 C          -1.346000    0.316000    0.347000 C.ar      1 <1>        -0.449300 
     40 C          -2.393000    1.216000    0.122000 C.ar      1 <1>         0.135800 
     41 H          -3.427000    0.883000    0.188000 H         1 <1>         0.064300 
     42 C          -2.119000    2.541000   -0.196000 C.ar      1 <1>        -0.139700 
     43 H          -2.936000    3.237000   -0.375000 H         1 <1>         0.130200 
     44 C          -0.799000    2.982000   -0.247000 C.ar      1 <1>        -0.088000 
     45 H          -0.632000    4.041000   -0.438000 H         1 <1>         0.118100 
     46 Cl         -1.804000   -1.295000    0.792000 Cl        1 <1>         0.133000 
@<TRIPOS>BOND
     1    1    2 ar   
     2    2    3 1    
     3    3    4 am   
     4    4    5 1    
     5    5    6 1    
     6    5    7 1    
     7    7    8 ar   
     8    8    1 1    
     9    8    9 ar   
    10    9   10 1    
    11    9   11 ar   
    12   11   12 ar   
    13   12    7 ar   
    14   12   13 1    
    15   13   14 2    
    16   13   15 1    
    17   15   16 1    
    18   16   17 1    
    19   16   18 1    
    20   16   19 1    
    21   19   20 1    
    22   19   21 1    
    23   21   22 1    
    24   21   23 1    
    25   21   24 1    
    26   19   25 1    
    27   25   26 1    
    28   25   27 1    
    29   25   28 1    
    30    5   29 1    
    31   29   30 1    
    32   29   31 1    
    33   29   32 1    
    34   32   33 1    
    35   32   34 1    
    36   32   35 1    
    37   35   36 1    
    38   35   37 1    
    39   35    4 1    
    40    3   38 2    
    41    2   39 ar   
    42   39   40 ar   
    43   40   41 1    
    44   40   42 ar   
    45   42   43 1    
    46   42   44 ar   
    47   44   45 1    
    48   44    1 ar   
    49   39   46 1    
@<TRIPOS>SUBSTRUCTURE
     1 ****        1 TEMP              0 ****  ****    0 ROOT 
@<TRIPOS>SET
UNITY_3DHIT     STATIC     ATOMS    <user>   **** Atoms matching 3D or FLEX Search
0
