#	Name:			Ro16-6624
#	Creating user name:	jeff
#	Creation time:		Tue Nov  4 15:20:00 2003

#	Modifying user name:	jeff
#	Modification time:	Tue Nov  4 15:20:00 2003

@<TRIPOS>MOLECULE
Ro16-6624
   52    55     1     0     1
SMALL
USER_CHARGES
****
From 3DB ct
@<TRIPOS>ATOM
      1 C           0.275000    2.095000    0.015000 C.ar      1 <1>         0.116900 
      2 C          -0.009000    0.740000    0.264000 C.ar      1 <1>        -0.144100 
      3 C           1.063000   -0.290000    0.232000 C.2       1 <1>         0.524800 
      4 N           2.210000   -0.086000    0.959000 N.am      1 <1>        -0.378100 
      5 C           2.537000    1.062000    1.800000 C.3       1 <1>         0.235600 
      6 H           1.743000    1.176000    2.548000 H         1 <1>         0.039800 
      7 C           2.621000    2.271000    0.927000 C.ar      1 <1>        -0.131200 
      8 N           1.591000    2.623000    0.059000 N.pl3     1 <1>        -0.117600 
      9 C           2.028000    3.716000   -0.649000 C.ar      1 <1>         0.132200 
     10 H           1.464000    4.147000   -1.466000 H         1 <1>         0.165800 
     11 N           3.174000    4.168000   -0.214000 N.ar      1 <1>        -0.383700 
     12 C           3.529000    3.333000    0.832000 C.ar      1 <1>         0.054000 
     13 C           4.679000    3.654000    1.687000 C.2       1 <1>         0.639600 
     14 O           5.377000    4.649000    1.536000 O.2       1 <1>        -0.432200 
     15 O           4.893000    2.696000    2.632000 O.3       1 <1>        -0.537700 
     16 C           6.007000    2.785000    3.553000 C.3       1 <1>         0.580500 
     17 C           5.885000    4.017000    4.456000 C.3       1 <1>        -0.324900 
     18 H           6.632000    4.000000    5.256000 H         1 <1>         0.070000 
     19 H           6.021000    4.949000    3.898000 H         1 <1>         0.097700 
     20 H           4.888000    4.068000    4.911000 H         1 <1>         0.076300 
     21 C           5.895000    1.524000    4.425000 C.3       1 <1>        -0.273200 
     22 H           5.940000    0.619000    3.808000 H         1 <1>         0.054600 
     23 H           6.693000    1.474000    5.173000 H         1 <1>         0.069600 
     24 H           4.930000    1.495000    4.945000 H         1 <1>         0.070400 
     25 C           7.347000    2.748000    2.811000 C.3       1 <1>        -0.335800 
     26 H           7.377000    1.908000    2.106000 H         1 <1>         0.073900 
     27 H           7.517000    3.655000    2.225000 H         1 <1>         0.099900 
     28 H           8.186000    2.647000    3.509000 H         1 <1>         0.076100 
     29 C           3.849000    0.628000    2.472000 C.3       1 <1>        -0.063600 
     30 H           3.952000    1.028000    3.485000 H         1 <1>         0.051200 
     31 H           4.728000    0.920000    1.885000 H         1 <1>         0.079500 
     32 C           3.782000   -0.891000    2.481000 C.3       1 <1>        -0.137300 
     33 H           4.760000   -1.364000    2.602000 H         1 <1>         0.059100 
     34 H           3.127000   -1.232000    3.291000 H         1 <1>         0.055200 
     35 C           3.153000   -1.177000    1.135000 C.3       1 <1>         0.063000 
     36 H           3.888000   -1.114000    0.325000 H         1 <1>         0.036400 
     37 H           2.665000   -2.156000    1.100000 H         1 <1>         0.059800 
     38 O           0.892000   -1.302000   -0.444000 O.2       1 <1>        -0.423100 
     39 C          -1.360000    0.318000    0.364000 C.ar      1 <1>         0.006300 
     40 C          -2.392000    1.252000    0.158000 C.ar      1 <1>        -0.123300 
     41 H          -3.433000    0.942000    0.228000 H         1 <1>         0.128300 
     42 C          -2.104000    2.576000   -0.148000 C.ar      1 <1>        -0.072800 
     43 H          -2.913000    3.285000   -0.311000 H         1 <1>         0.117000 
     44 C          -0.780000    2.999000   -0.217000 C.ar      1 <1>        -0.157100 
     45 H          -0.601000    4.057000   -0.401000 H         1 <1>         0.122000 
     46 C          -1.768000   -1.104000    0.698000 C.3       1 <1>         0.015700 
     47 H          -1.067000   -1.564000    1.402000 H         1 <1>         0.040000 
     48 H          -2.723000   -1.073000    1.240000 H         1 <1>         0.007300 
     49 C          -1.927000   -1.976000   -0.539000 C.3       1 <1>        -0.036800 
     50 H          -2.206000   -2.994000   -0.248000 H         1 <1>         0.010900 
     51 H          -2.711000   -1.592000   -1.200000 H         1 <1>         0.006000 
     52 H          -1.001000   -2.030000   -1.119000 H         1 <1>         0.036900 
@<TRIPOS>BOND
     1    1    2 ar   
     2    2    3 1    
     3    3    4 am   
     4    4    5 1    
     5    5    6 1    
     6    5    7 1    
     7    7    8 ar   
     8    8    1 1    
     9    8    9 ar   
    10    9   10 1    
    11    9   11 ar   
    12   11   12 ar   
    13   12    7 ar   
    14   12   13 1    
    15   13   14 2    
    16   13   15 1    
    17   15   16 1    
    18   16   17 1    
    19   17   18 1    
    20   17   19 1    
    21   17   20 1    
    22   16   21 1    
    23   21   22 1    
    24   21   23 1    
    25   21   24 1    
    26   16   25 1    
    27   25   26 1    
    28   25   27 1    
    29   25   28 1    
    30    5   29 1    
    31   29   30 1    
    32   29   31 1    
    33   29   32 1    
    34   32   33 1    
    35   32   34 1    
    36   32   35 1    
    37   35   36 1    
    38   35   37 1    
    39   35    4 1    
    40    3   38 2    
    41    2   39 ar   
    42   39   40 ar   
    43   40   41 1    
    44   40   42 ar   
    45   42   43 1    
    46   42   44 ar   
    47   44   45 1    
    48   44    1 ar   
    49   39   46 1    
    50   46   47 1    
    51   46   48 1    
    52   46   49 1    
    53   49   50 1    
    54   49   51 1    
    55   49   52 1    
@<TRIPOS>SUBSTRUCTURE
     1 ****        1 TEMP              0 ****  ****    0 ROOT 
@<TRIPOS>SET
UNITY_3DHIT     STATIC     ATOMS    <user>   **** Atoms matching 3D or FLEX Search
0
