#	Name:			Ro16-6127
#	Creating user name:	jeff
#	Creation time:		Tue Nov  4 15:20:00 2003

#	Modifying user name:	jeff
#	Modification time:	Tue Nov  4 15:20:00 2003

@<TRIPOS>MOLECULE
Ro16-6127
   46    49     1     0     1
SMALL
USER_CHARGES
****
From 3DB ct
@<TRIPOS>ATOM
      1 C           0.261000    2.099000    0.009000 C.ar      1 <1>        -0.066900 
      2 C          -0.008000    0.744000    0.276000 C.ar      1 <1>         0.304400 
      3 C           1.067000   -0.271000    0.247000 C.2       1 <1>         0.385500 
      4 N           2.201000   -0.064000    0.991000 N.am      1 <1>        -0.368200 
      5 C           2.519000    1.088000    1.830000 C.3       1 <1>         0.127200 
      6 H           1.723000    1.200000    2.575000 H         1 <1>         0.049600 
      7 C           2.596000    2.298000    0.953000 C.ar      1 <1>        -0.078000 
      8 N           1.572000    2.642000    0.073000 N.pl3     1 <1>        -0.082000 
      9 C           2.008000    3.737000   -0.632000 C.ar      1 <1>         0.109600 
     10 H           1.453000    4.165000   -1.458000 H         1 <1>         0.174100 
     11 N           3.147000    4.196000   -0.186000 N.ar      1 <1>        -0.363800 
     12 C           3.499000    3.363000    0.862000 C.ar      1 <1>         0.004500 
     13 C           4.641000    3.692000    1.726000 C.2       1 <1>         0.696100 
     14 O           5.331000    4.692000    1.577000 O.2       1 <1>        -0.444600 
     15 O           4.853000    2.734000    2.670000 O.3       1 <1>        -0.537000 
     16 C           5.975000    2.810000    3.583000 C.3       1 <1>         0.583500 
     17 C           7.308000    2.741000    2.829000 C.3       1 <1>        -0.332800 
     18 H           8.151000    2.638000    3.519000 H         1 <1>         0.083500 
     19 H           7.484000    3.638000    2.227000 H         1 <1>         0.095400 
     20 H           7.319000    1.893000    2.136000 H         1 <1>         0.058900 
     21 C           5.843000    1.558000    4.463000 C.3       1 <1>        -0.337700 
     22 H           6.646000    1.494000    5.205000 H         1 <1>         0.085400 
     23 H           5.863000    0.648000    3.850000 H         1 <1>         0.086300 
     24 H           4.882000    1.553000    4.991000 H         1 <1>         0.082400 
     25 C           5.888000    4.050000    4.480000 C.3       1 <1>        -0.327300 
     26 H           6.636000    4.016000    5.281000 H         1 <1>         0.072900 
     27 H           4.894000    4.133000    4.934000 H         1 <1>         0.082300 
     28 H           6.055000    4.975000    3.918000 H         1 <1>         0.095800 
     29 C           3.833000    0.664000    2.505000 C.3       1 <1>         0.099500 
     30 H           3.928000    1.065000    3.518000 H         1 <1>         0.017100 
     31 H           4.712000    0.965000    1.922000 H         1 <1>         0.031300 
     32 C           3.779000   -0.856000    2.513000 C.3       1 <1>        -0.248900 
     33 H           4.761000   -1.320000    2.633000 H         1 <1>         0.082800 
     34 H           3.129000   -1.204000    3.325000 H         1 <1>         0.079800 
     35 C           3.150000   -1.150000    1.169000 C.3       1 <1>         0.117500 
     36 H           3.885000   -1.088000    0.359000 H         1 <1>         0.035100 
     37 H           2.664000   -2.130000    1.138000 H         1 <1>         0.060200 
     38 O           0.921000   -1.259000   -0.468000 O.2       1 <1>        -0.396200 
     39 C          -1.344000    0.308000    0.362000 C.ar      1 <1>        -0.596000 
     40 C          -2.382000    1.210000    0.122000 C.ar      1 <1>         0.632700 
     41 C          -2.122000    2.533000   -0.207000 C.ar      1 <1>        -0.321700 
     42 H          -2.950000    3.212000   -0.389000 H         1 <1>         0.186700 
     43 C          -0.804000    2.982000   -0.259000 C.ar      1 <1>        -0.029000 
     44 H          -0.641000    4.041000   -0.458000 H         1 <1>         0.126900 
     45 F          -3.663000    0.820000    0.208000 F         1 <1>        -0.297500 
     46 Cl         -1.780000   -1.302000    0.835000 Cl        1 <1>         0.180800 
@<TRIPOS>BOND
     1    1    2 ar   
     2    2    3 1    
     3    3    4 am   
     4    4    5 1    
     5    5    6 1    
     6    5    7 1    
     7    7    8 ar   
     8    8    1 1    
     9    8    9 ar   
    10    9   10 1    
    11    9   11 ar   
    12   11   12 ar   
    13   12    7 ar   
    14   12   13 1    
    15   13   14 2    
    16   13   15 1    
    17   15   16 1    
    18   16   17 1    
    19   17   18 1    
    20   17   19 1    
    21   17   20 1    
    22   16   21 1    
    23   21   22 1    
    24   21   23 1    
    25   21   24 1    
    26   16   25 1    
    27   25   26 1    
    28   25   27 1    
    29   25   28 1    
    30    5   29 1    
    31   29   30 1    
    32   29   31 1    
    33   29   32 1    
    34   32   33 1    
    35   32   34 1    
    36   32   35 1    
    37   35   36 1    
    38   35   37 1    
    39   35    4 1    
    40    3   38 2    
    41    2   39 ar   
    42   39   40 ar   
    43   40   41 ar   
    44   41   42 1    
    45   41   43 ar   
    46   43   44 1    
    47   43    1 ar   
    48   40   45 1    
    49   39   46 1    
@<TRIPOS>SUBSTRUCTURE
     1 ****        1 TEMP              0 ****  ****    0 ROOT 
@<TRIPOS>SET
UNITY_3DHIT     STATIC     ATOMS    <user>   **** Atoms matching 3D or FLEX Search
0
