#	Name:			Ro16-9906
#	Creating user name:	jeff
#	Creation time:		Tue Nov  4 15:20:01 2003

#	Modifying user name:	jeff
#	Modification time:	Tue Nov  4 15:20:01 2003

@<TRIPOS>MOLECULE
Ro16-9906
   41    44     1     0     1
SMALL
USER_CHARGES
****
From 3DB ct
@<TRIPOS>ATOM
      1 C           0.258000    2.101000    0.018000 C.ar      1 <1>         0.012000 
      2 C           0.000000    0.740000    0.251000 C.ar      1 <1>         0.251100 
      3 C           1.082000   -0.269000    0.226000 C.2       1 <1>         0.314400 
      4 N           2.203000   -0.062000    0.992000 N.am      1 <1>        -0.262100 
      5 C           2.509000    1.092000    1.831000 C.3       1 <1>         0.025700 
      6 H           1.704000    1.204000    2.567000 H         1 <1>         0.071300 
      7 C           2.593000    2.302000    0.956000 C.ar      1 <1>        -0.047500 
      8 N           1.564000    2.651000    0.084000 N.pl3     1 <1>        -0.103200 
      9 C           1.991000    3.754000   -0.613000 C.ar      1 <1>         0.119900 
     10 H           1.426000    4.190000   -1.427000 H         1 <1>         0.171200 
     11 N           3.137000    4.205000   -0.179000 N.ar      1 <1>        -0.363200 
     12 C           3.504000    3.361000    0.854000 C.ar      1 <1>        -0.030100 
     13 C           4.667000    3.678000    1.693000 C.2       1 <1>         0.687700 
     14 O           5.367000    4.673000    1.543000 O.2       1 <1>        -0.439800 
     15 O           4.902000    2.715000    2.629000 O.3       1 <1>        -0.387600 
     16 C           6.057000    2.952000    3.432000 C.3       1 <1>         0.106400 
     17 H           6.951000    2.971000    2.798000 H         1 <1>         0.033400 
     18 H           5.958000    3.910000    3.957000 H         1 <1>         0.071000 
     19 C           6.165000    1.814000    4.398000 C.2       1 <1>        -0.125200 
     20 H           6.194000    0.817000    3.964000 H         1 <1>         0.092000 
     21 C           6.220000    1.944000    5.730000 C.2       1 <1>        -0.213600 
     22 H           6.288000    1.069000    6.368000 H         1 <1>         0.112100 
     23 H           6.188000    2.917000    6.212000 H         1 <1>         0.121300 
     24 C           3.813000    0.671000    2.524000 C.3       1 <1>         0.017500 
     25 H           3.904000    1.091000    3.530000 H         1 <1>         0.057800 
     26 H           4.698000    0.952000    1.941000 H         1 <1>         0.060300 
     27 C           3.744000   -0.847000    2.558000 C.3       1 <1>        -0.224600 
     28 H           4.719000   -1.319000    2.703000 H         1 <1>         0.077100 
     29 H           3.075000   -1.172000    3.364000 H         1 <1>         0.079000 
     30 C           3.134000   -1.157000    1.207000 C.3       1 <1>         0.105000 
     31 H           3.883000   -1.121000    0.408000 H         1 <1>         0.036300 
     32 H           2.635000   -2.131000    1.187000 H         1 <1>         0.054600 
     33 O           0.956000   -1.255000   -0.495000 O.2       1 <1>        -0.389800 
     34 C          -1.336000    0.300000    0.320000 C.ar      1 <1>        -0.421900 
     35 C          -2.390000    1.195000    0.110000 C.ar      1 <1>         0.135600 
     36 H          -3.421000    0.852000    0.169000 H         1 <1>         0.060300 
     37 C          -2.130000    2.529000   -0.182000 C.ar      1 <1>        -0.136700 
     38 H          -2.954000    3.219000   -0.350000 H         1 <1>         0.130900 
     39 C          -0.814000    2.983000   -0.225000 C.ar      1 <1>        -0.110200 
     40 H          -0.656000    4.047000   -0.395000 H         1 <1>         0.123500 
     41 Cl         -1.782000   -1.323000    0.733000 Cl        1 <1>         0.128300 
@<TRIPOS>BOND
     1    1    2 ar   
     2    2    3 1    
     3    3    4 am   
     4    4    5 1    
     5    5    6 1    
     6    5    7 1    
     7    7    8 ar   
     8    8    1 1    
     9    8    9 ar   
    10    9   10 1    
    11    9   11 ar   
    12   11   12 ar   
    13   12    7 ar   
    14   12   13 1    
    15   13   14 2    
    16   13   15 1    
    17   15   16 1    
    18   16   17 1    
    19   16   18 1    
    20   16   19 1    
    21   19   20 1    
    22   19   21 2    
    23   21   22 1    
    24   21   23 1    
    25    5   24 1    
    26   24   25 1    
    27   24   26 1    
    28   24   27 1    
    29   27   28 1    
    30   27   29 1    
    31   27   30 1    
    32   30   31 1    
    33   30   32 1    
    34   30    4 1    
    35    3   33 2    
    36    2   34 ar   
    37   34   35 ar   
    38   35   36 1    
    39   35   37 ar   
    40   37   38 1    
    41   37   39 ar   
    42   39   40 1    
    43   39    1 ar   
    44   34   41 1    
@<TRIPOS>SUBSTRUCTURE
     1 ****        1 TEMP              0 ****  ****    0 ROOT 
@<TRIPOS>SET
UNITY_3DHIT     STATIC     ATOMS    <user>   **** Atoms matching 3D or FLEX Search
0
