#	Name:			Ro16-7083
#	Creating user name:	jeff
#	Creation time:		Tue Nov  4 15:20:01 2003

#	Modifying user name:	jeff
#	Modification time:	Tue Nov  4 15:20:01 2003

@<TRIPOS>MOLECULE
Ro16-7083
   46    49     1     0     1
SMALL
USER_CHARGES
****
From 3DB ct
@<TRIPOS>ATOM
      1 C           0.265000    2.096000    0.011000 C.ar      1 <1>         0.002000 
      2 C          -0.005000    0.743000    0.270000 C.ar      1 <1>         0.258800 
      3 C           1.067000   -0.278000    0.246000 C.2       1 <1>         0.351300 
      4 N           2.204000   -0.067000    0.985000 N.am      1 <1>        -0.324300 
      5 C           2.522000    1.085000    1.824000 C.3       1 <1>         0.023100 
      6 H           1.725000    1.198000    2.568000 H         1 <1>         0.071100 
      7 C           2.602000    2.295000    0.948000 C.ar      1 <1>        -0.004800 
      8 N           1.576000    2.638000    0.070000 N.pl3     1 <1>        -0.135800 
      9 C           2.011000    3.732000   -0.638000 C.ar      1 <1>         0.136700 
     10 H           1.455000    4.156000   -1.464000 H         1 <1>         0.168200 
     11 N           3.148000    4.195000   -0.190000 N.ar      1 <1>        -0.377800 
     12 C           3.500000    3.366000    0.861000 C.ar      1 <1>        -0.020300 
     13 C           4.632000    3.704000    1.733000 C.2       1 <1>         0.720200 
     14 O           5.319000    4.710000    1.595000 O.2       1 <1>        -0.443300 
     15 O           4.859000    2.748000    2.681000 O.3       1 <1>        -0.532300 
     16 C           6.006000    2.938000    3.532000 C.3       1 <1>         0.291400 
     17 H           6.151000    4.004000    3.741000 H         1 <1>         0.049300 
     18 C           5.701000    2.216000    4.851000 C.3       1 <1>        -0.042000 
     19 H           5.530000    1.148000    4.664000 H         1 <1>         0.043800 
     20 H           4.753000    2.598000    5.250000 H         1 <1>         0.031600 
     21 C           6.783000    2.383000    5.907000 C.3       1 <1>        -0.144600 
     22 H           7.713000    1.887000    5.612000 H         1 <1>         0.041800 
     23 H           6.997000    3.442000    6.087000 H         1 <1>         0.038500 
     24 H           6.457000    1.938000    6.852000 H         1 <1>         0.041900 
     25 C           7.234000    2.369000    2.826000 C.3       1 <1>        -0.287500 
     26 H           7.378000    2.844000    1.850000 H         1 <1>         0.078400 
     27 H           8.145000    2.520000    3.412000 H         1 <1>         0.080400 
     28 H           7.112000    1.297000    2.636000 H         1 <1>         0.068400 
     29 C           3.834000    0.660000    2.502000 C.3       1 <1>         0.072600 
     30 H           3.928000    1.060000    3.515000 H         1 <1>         0.050900 
     31 H           4.714000    0.958000    1.921000 H         1 <1>         0.048100 
     32 C           3.775000   -0.861000    2.513000 C.3       1 <1>        -0.256900 
     33 H           4.756000   -1.327000    2.637000 H         1 <1>         0.079600 
     34 H           3.120000   -1.204000    3.322000 H         1 <1>         0.081700 
     35 C           3.151000   -1.154000    1.166000 C.3       1 <1>         0.151900 
     36 H           3.889000   -1.092000    0.358000 H         1 <1>         0.023300 
     37 H           2.665000   -2.133000    1.134000 H         1 <1>         0.051000 
     38 O           0.917000   -1.273000   -0.458000 O.2       1 <1>        -0.398400 
     39 C          -1.345000    0.317000    0.352000 C.ar      1 <1>        -0.429000 
     40 C          -2.393000    1.215000    0.123000 C.ar      1 <1>         0.142500 
     41 H          -3.427000    0.882000    0.188000 H         1 <1>         0.060000 
     42 C          -2.121000    2.540000   -0.196000 C.ar      1 <1>        -0.151200 
     43 H          -2.939000    3.235000   -0.375000 H         1 <1>         0.134000 
     44 C          -0.800000    2.983000   -0.248000 C.ar      1 <1>        -0.092900 
     45 H          -0.634000    4.042000   -0.438000 H         1 <1>         0.120800 
     46 Cl         -1.802000   -1.292000    0.807000 Cl        1 <1>         0.127900 
@<TRIPOS>BOND
     1    1    2 ar   
     2    2    3 1    
     3    3    4 am   
     4    4    5 1    
     5    5    6 1    
     6    5    7 1    
     7    7    8 ar   
     8    8    1 1    
     9    8    9 ar   
    10    9   10 1    
    11    9   11 ar   
    12   11   12 ar   
    13   12    7 ar   
    14   12   13 1    
    15   13   14 2    
    16   13   15 1    
    17   15   16 1    
    18   16   17 1    
    19   16   18 1    
    20   18   19 1    
    21   18   20 1    
    22   18   21 1    
    23   21   22 1    
    24   21   23 1    
    25   21   24 1    
    26   16   25 1    
    27   25   26 1    
    28   25   27 1    
    29   25   28 1    
    30    5   29 1    
    31   29   30 1    
    32   29   31 1    
    33   29   32 1    
    34   32   33 1    
    35   32   34 1    
    36   32   35 1    
    37   35   36 1    
    38   35   37 1    
    39   35    4 1    
    40    3   38 2    
    41    2   39 ar   
    42   39   40 ar   
    43   40   41 1    
    44   40   42 ar   
    45   42   43 1    
    46   42   44 ar   
    47   44   45 1    
    48   44    1 ar   
    49   39   46 1    
@<TRIPOS>SUBSTRUCTURE
     1 ****        1 TEMP              0 ****  ****    0 ROOT 
@<TRIPOS>SET
UNITY_3DHIT     STATIC     ATOMS    <user>   **** Atoms matching 3D or FLEX Search
0
