#	Name:			Ro16-0071
#	Creating user name:	jeff
#	Creation time:		Tue Nov  4 15:20:00 2003

#	Modifying user name:	jeff
#	Modification time:	Tue Nov  4 15:20:00 2003

@<TRIPOS>MOLECULE
Ro16-0071
   46    49     1     0     1
SMALL
USER_CHARGES
****
From 3DB ct
@<TRIPOS>ATOM
      1 C           0.247000    2.111000    0.092000 C.ar      1 <1>         0.102900 
      2 C          -0.010000    0.737000    0.177000 C.ar      1 <1>        -0.082600 
      3 C           1.023000   -0.326000    0.252000 C.2       1 <1>         0.475700 
      4 N           2.170000   -0.123000    0.983000 N.am      1 <1>        -0.323700 
      5 C           2.442000    0.977000    1.900000 C.3       1 <1>         0.198800 
      6 H           1.612000    1.036000    2.616000 H         1 <1>         0.058300 
      7 C           2.550000    2.244000    1.124000 C.ar      1 <1>        -0.189900 
      8 N           1.539000    2.667000    0.267000 N.pl3     1 <1>        -0.077600 
      9 C           1.986000    3.822000   -0.329000 C.ar      1 <1>         0.103200 
     10 H           1.437000    4.329000   -1.112000 H         1 <1>         0.172300 
     11 N           3.134000    4.222000    0.150000 N.ar      1 <1>        -0.377100 
     12 C           3.477000    3.292000    1.112000 C.ar      1 <1>         0.092200 
     13 C           4.649000    3.522000    1.962000 C.2       1 <1>         0.630800 
     14 O           5.362000    4.512000    1.871000 O.2       1 <1>        -0.439400 
     15 O           4.796000    2.540000    2.899000 O.3       1 <1>        -0.514300 
     16 C           5.812000    2.652000    3.930000 C.3       1 <1>         0.591100 
     17 C           7.224000    2.686000    3.335000 C.3       1 <1>        -0.330200 
     18 H           7.986000    2.582000    4.115000 H         1 <1>         0.077600 
     19 H           7.426000    3.625000    2.811000 H         1 <1>         0.095800 
     20 H           7.360000    1.881000    2.605000 H         1 <1>         0.061800 
     21 C           5.665000    1.371000    4.766000 C.3       1 <1>        -0.313700 
     22 H           6.374000    1.345000    5.600000 H         1 <1>         0.077500 
     23 H           5.827000    0.481000    4.149000 H         1 <1>         0.077200 
     24 H           4.650000    1.285000    5.171000 H         1 <1>         0.074600 
     25 C           5.543000    3.857000    4.839000 C.3       1 <1>        -0.327000 
     26 H           6.219000    3.866000    5.701000 H         1 <1>         0.069500 
     27 H           4.510000    3.843000    5.207000 H         1 <1>         0.080500 
     28 H           5.674000    4.806000    4.311000 H         1 <1>         0.098000 
     29 C           3.722000    0.523000    2.616000 C.3       1 <1>        -0.036900 
     30 H           3.772000    0.882000    3.647000 H         1 <1>         0.036000 
     31 H           4.629000    0.840000    2.088000 H         1 <1>         0.069600 
     32 C           3.654000   -0.995000    2.567000 C.3       1 <1>        -0.153500 
     33 H           4.624000   -1.475000    2.718000 H         1 <1>         0.065800 
     34 H           2.959000   -1.362000    3.331000 H         1 <1>         0.058500 
     35 C           3.090000   -1.233000    1.182000 C.3       1 <1>         0.045300 
     36 H           3.869000   -1.157000    0.415000 H         1 <1>         0.038100 
     37 H           2.600000   -2.207000    1.097000 H         1 <1>         0.071100 
     38 O           0.807000   -1.382000   -0.342000 O.2       1 <1>        -0.433300 
     39 C          -1.334000    0.280000    0.016000 C.ar      1 <1>        -0.086200 
     40 H          -1.548000   -0.789000    0.049000 H         1 <1>         0.147600 
     41 C          -2.385000    1.165000   -0.220000 C.ar      1 <1>        -0.119700 
     42 H          -3.397000    0.788000   -0.346000 H         1 <1>         0.116500 
     43 C          -2.127000    2.525000   -0.318000 C.ar      1 <1>        -0.044800 
     44 H          -2.940000    3.221000   -0.508000 H         1 <1>         0.111200 
     45 C          -0.821000    2.996000   -0.170000 C.ar      1 <1>        -0.171100 
     46 H          -0.672000    4.073000   -0.224000 H         1 <1>         0.123900 
@<TRIPOS>BOND
     1    1    2 ar   
     2    2    3 1    
     3    3    4 am   
     4    4    5 1    
     5    5    6 1    
     6    5    7 1    
     7    7    8 ar   
     8    8    1 1    
     9    8    9 ar   
    10    9   10 1    
    11    9   11 ar   
    12   11   12 ar   
    13   12    7 ar   
    14   12   13 1    
    15   13   14 2    
    16   13   15 1    
    17   15   16 1    
    18   16   17 1    
    19   17   18 1    
    20   17   19 1    
    21   17   20 1    
    22   16   21 1    
    23   21   22 1    
    24   21   23 1    
    25   21   24 1    
    26   16   25 1    
    27   25   26 1    
    28   25   27 1    
    29   25   28 1    
    30    5   29 1    
    31   29   30 1    
    32   29   31 1    
    33   29   32 1    
    34   32   33 1    
    35   32   34 1    
    36   32   35 1    
    37   35   36 1    
    38   35   37 1    
    39   35    4 1    
    40    3   38 2    
    41    2   39 ar   
    42   39   40 1    
    43   39   41 ar   
    44   41   42 1    
    45   41   43 ar   
    46   43   44 1    
    47   43   45 ar   
    48   45   46 1    
    49   45    1 ar   
@<TRIPOS>SUBSTRUCTURE
     1 ****        1 TEMP              0 ****  ****    0 ROOT 
@<TRIPOS>SET
UNITY_3DHIT     STATIC     ATOMS    <user>   **** Atoms matching 3D or FLEX Search
0
