#	Name:			Ro17-4582
#	Creating user name:	jeff
#	Creation time:		Tue Nov  4 15:19:56 2003

#	Modifying user name:	jeff
#	Modification time:	Tue Nov  4 15:19:56 2003

@<TRIPOS>MOLECULE
Ro17-4582
   32    35     1     0     1
SMALL
USER_CHARGES
****
From 3DB ct
@<TRIPOS>ATOM
      1 C           0.181000    2.061000    0.164000 C.ar      1 <1>        -0.264200 
      2 C           0.091000    0.676000    0.160000 C.ar      1 <1>         0.374200 
      3 C           1.224000   -0.261000    0.186000 C.2       1 <1>        -0.015400 
      4 N           2.331000   -0.076000    0.823000 N.2       1 <1>        -0.390400 
      5 C           2.484000    1.067000    1.717000 C.3       1 <1>         0.231400 
      6 H           3.446000    0.960000    2.232000 H         1 <1>         0.035300 
      7 H           1.722000    1.051000    2.506000 H         1 <1>         0.004900 
      8 C           2.474000    2.363000    0.995000 C.ar      1 <1>         0.152500 
      9 N           1.346000    2.820000    0.335000 N.pl3     1 <1>        -0.160700 
     10 C           1.692000    4.117000   -0.037000 C.ar      1 <1>         0.353800 
     11 N           2.931000    4.375000    0.346000 N.ar      1 <1>        -0.245100 
     12 N           3.421000    3.278000    0.989000 N.ar      1 <1>        -0.224900 
     13 C           0.860000    5.055000   -0.830000 C.3       1 <1>        -0.341100 
     14 H           1.472000    5.897000   -1.174000 H         1 <1>         0.114600 
     15 H           0.051000    5.472000   -0.225000 H         1 <1>         0.107500 
     16 H           0.450000    4.573000   -1.722000 H         1 <1>         0.127700 
     17 C           1.087000   -1.493000   -0.627000 C.ar      1 <1>         0.389400 
     18 C           1.577000   -2.695000   -0.096000 C.ar      1 <1>        -0.325700 
     19 H           2.048000   -2.718000    0.885000 H         1 <1>         0.181800 
     20 C           1.454000   -3.876000   -0.827000 C.ar      1 <1>         0.015400 
     21 H           1.833000   -4.812000   -0.418000 H         1 <1>         0.095800 
     22 C           0.844000   -3.861000   -2.081000 C.ar      1 <1>        -0.180300 
     23 H           0.749000   -4.783000   -2.651000 H         1 <1>         0.121200 
     24 C           0.355000   -2.663000   -2.610000 C.ar      1 <1>         0.120100 
     25 H          -0.113000   -2.667000   -3.592000 H         1 <1>         0.065400 
     26 C           0.473000   -1.474000   -1.884000 C.ar      1 <1>        -0.437600 
     27 Cl         -0.113000   -0.019000   -2.608000 Cl        1 <1>         0.079200 
     28 C          -1.292000    0.284000    0.022000 C.ar      1 <1>        -0.387200 
     29 H          -1.642000   -0.742000   -0.012000 H         1 <1>         0.209300 
     30 C          -2.151000    1.355000   -0.078000 C.ar      1 <1>        -0.220600 
     31 H          -3.228000    1.330000   -0.191000 H         1 <1>         0.194500 
     32 S          -1.315000    2.837000   -0.025000 S.3       1 <1>         0.219100 
@<TRIPOS>BOND
     1    1    2 ar   
     2    2    3 1    
     3    3    4 2    
     4    4    5 1    
     5    5    6 1    
     6    5    7 1    
     7    5    8 1    
     8    8    9 ar   
     9    9    1 1    
    10    9   10 ar   
    11   10   11 ar   
    12   11   12 ar   
    13   12    8 ar   
    14   10   13 1    
    15   13   14 1    
    16   13   15 1    
    17   13   16 1    
    18    3   17 1    
    19   17   18 ar   
    20   18   19 1    
    21   18   20 ar   
    22   20   21 1    
    23   20   22 ar   
    24   22   23 1    
    25   22   24 ar   
    26   24   25 1    
    27   24   26 ar   
    28   26   17 ar   
    29   26   27 1    
    30    2   28 ar   
    31   28   29 1    
    32   28   30 ar   
    33   30   31 1    
    34   30   32 ar   
    35   32    1 ar   
@<TRIPOS>SUBSTRUCTURE
     1 ****        1 TEMP              0 ****  ****    0 ROOT 
@<TRIPOS>SET
UNITY_3DHIT     STATIC     ATOMS    <user>   **** Atoms matching 3D or FLEX Search
0
@<TRIPOS>UNITY_BOND_ATTR
3 1
S I
