#	Name:			Ro17-9741
#	Creating user name:	jeff
#	Creation time:		Tue Nov  4 15:20:02 2003

#	Modifying user name:	jeff
#	Modification time:	Tue Nov  4 15:20:02 2003

@<TRIPOS>MOLECULE
Ro17-9741
   34    37     1     0     1
SMALL
USER_CHARGES
****
From 3DB ct
@<TRIPOS>ATOM
      1 C           0.245000    2.113000    0.005000 C.ar      1 <1>         0.083700 
      2 C          -0.015000    0.757000    0.277000 C.ar      1 <1>         0.184800 
      3 C           1.056000   -0.261000    0.352000 C.2       1 <1>         0.337800 
      4 N           2.072000   -0.053000    1.232000 N.am      1 <1>        -0.185200 
      5 C           2.628000    1.133000    1.843000 C.3       1 <1>        -0.093600 
      6 H           2.188000    1.328000    2.828000 H         1 <1>         0.104800 
      7 C           2.581000    2.324000    0.924000 C.ar      1 <1>         0.082600 
      8 N           1.543000    2.684000    0.088000 N.pl3     1 <1>        -0.164800 
      9 C           1.966000    3.824000   -0.559000 C.ar      1 <1>         0.129400 
     10 H           1.395000    4.300000   -1.346000 H         1 <1>         0.169800 
     11 N           3.121000    4.257000   -0.116000 N.ar      1 <1>        -0.357300 
     12 C           3.504000    3.362000    0.865000 C.ar      1 <1>        -0.097100 
     13 C           4.693000    3.573000    1.699000 C.2       1 <1>         0.683700 
     14 O           5.431000    4.547000    1.592000 O.2       1 <1>        -0.415500 
     15 O           4.896000    2.556000    2.586000 O.3       1 <1>        -0.358400 
     16 C           6.050000    2.714000    3.408000 C.3       1 <1>        -0.041600 
     17 H           6.956000    2.740000    2.796000 H         1 <1>         0.051900 
     18 H           5.965000    3.620000    4.017000 H         1 <1>         0.072700 
     19 H           6.110000    1.852000    4.077000 H         1 <1>         0.084000 
     20 C           3.966000    0.360000    1.881000 C.3       1 <1>         0.128700 
     21 H           4.725000    0.665000    1.151000 H         1 <1>         0.019400 
     22 H           4.435000    0.298000    2.869000 H         1 <1>         0.034200 
     23 C           3.225000   -0.901000    1.463000 C.3       1 <1>        -0.211500 
     24 H           3.612000   -1.392000    0.567000 H         1 <1>         0.127500 
     25 H           3.055000   -1.632000    2.258000 H         1 <1>         0.107000 
     26 O           0.995000   -1.256000   -0.365000 O.2       1 <1>        -0.380900 
     27 C          -1.352000    0.309000    0.306000 C.ar      1 <1>        -0.403400 
     28 C          -2.405000    1.184000    0.023000 C.ar      1 <1>         0.120000 
     29 H          -3.434000    0.833000    0.051000 H         1 <1>         0.065700 
     30 C          -2.143000    2.510000   -0.299000 C.ar      1 <1>        -0.114000 
     31 H          -2.964000    3.188000   -0.520000 H         1 <1>         0.127100 
     32 C          -0.829000    2.974000   -0.304000 C.ar      1 <1>        -0.143800 
     33 H          -0.679000    4.034000   -0.504000 H         1 <1>         0.127500 
     34 Cl         -1.802000   -1.304000    0.755000 Cl        1 <1>         0.124600 
@<TRIPOS>BOND
     1    1    2 ar   
     2    2    3 1    
     3    3    4 am   
     4    4    5 1    
     5    5    6 1    
     6    5    7 1    
     7    7    8 ar   
     8    8    1 1    
     9    8    9 ar   
    10    9   10 1    
    11    9   11 ar   
    12   11   12 ar   
    13   12    7 ar   
    14   12   13 1    
    15   13   14 2    
    16   13   15 1    
    17   15   16 1    
    18   16   17 1    
    19   16   18 1    
    20   16   19 1    
    21    5   20 1    
    22   20   21 1    
    23   20   22 1    
    24   20   23 1    
    25   23   24 1    
    26   23   25 1    
    27   23    4 1    
    28    3   26 2    
    29    2   27 ar   
    30   27   28 ar   
    31   28   29 1    
    32   28   30 ar   
    33   30   31 1    
    34   30   32 ar   
    35   32   33 1    
    36   32    1 ar   
    37   27   34 1    
@<TRIPOS>SUBSTRUCTURE
     1 ****        1 TEMP              0 ****  ****    0 ROOT 
@<TRIPOS>SET
UNITY_3DHIT     STATIC     ATOMS    <user>   **** Atoms matching 3D or FLEX Search
0
