#	Name:			Ro17-1302
#	Creating user name:	jeff
#	Creation time:		Tue Nov  4 15:20:02 2003

#	Modifying user name:	jeff
#	Modification time:	Tue Nov  4 15:20:02 2003

@<TRIPOS>MOLECULE
Ro17-1302
   44    48     1     0     1
SMALL
USER_CHARGES
****
From 3DB ct
@<TRIPOS>ATOM
      1 C           0.249000    2.106000    0.032000 C.ar      1 <1>         0.000400 
      2 C          -0.001000    0.741000    0.248000 C.ar      1 <1>         0.257400 
      3 C           1.091000   -0.259000    0.225000 C.2       1 <1>         0.343800 
      4 N           2.200000   -0.051000    1.006000 N.am      1 <1>        -0.307800 
      5 C           2.494000    1.102000    1.849000 C.3       1 <1>         0.026200 
      6 H           1.681000    1.213000    2.577000 H         1 <1>         0.075200 
      7 C           2.582000    2.307000    0.968000 C.ar      1 <1>        -0.075100 
      8 N           1.552000    2.660000    0.101000 N.pl3     1 <1>        -0.075900 
      9 C           1.983000    3.758000   -0.603000 C.ar      1 <1>         0.084900 
     10 H           1.412000    4.199000   -1.410000 H         1 <1>         0.181100 
     11 N           3.145000    4.191000   -0.189000 N.ar      1 <1>        -0.362500 
     12 C           3.507000    3.349000    0.846000 C.ar      1 <1>         0.036300 
     13 C           4.688000    3.643000    1.663000 C.2       1 <1>         0.632400 
     14 O           5.405000    4.621000    1.486000 O.2       1 <1>        -0.409900 
     15 O           4.890000    2.649000    2.623000 O.3       1 <1>        -0.421600 
     16 C           5.931000    2.636000    3.577000 C.ar      1 <1>         0.265300 
     17 C           6.633000    3.763000    3.993000 C.ar      1 <1>        -0.198000 
     18 H           6.429000    4.749000    3.592000 H         1 <1>         0.152500 
     19 C           7.627000    3.628000    4.966000 C.ar      1 <1>        -0.072000 
     20 H           8.185000    4.503000    5.291000 H         1 <1>         0.108200 
     21 C           7.901000    2.378000    5.525000 C.ar      1 <1>        -0.118400 
     22 H           8.671000    2.282000    6.285000 H         1 <1>         0.109400 
     23 C           7.181000    1.257000    5.114000 C.ar      1 <1>        -0.087800 
     24 H           7.386000    0.285000    5.553000 H         1 <1>         0.112400 
     25 C           6.193000    1.385000    4.140000 C.ar      1 <1>        -0.168600 
     26 H           5.627000    0.514000    3.821000 H         1 <1>         0.110400 
     27 C           3.795000    0.686000    2.553000 C.3       1 <1>         0.074700 
     28 H           3.874000    1.098000    3.563000 H         1 <1>         0.045700 
     29 H           4.684000    0.978000    1.982000 H         1 <1>         0.042700 
     30 C           3.741000   -0.834000    2.567000 C.3       1 <1>        -0.243700 
     31 H           4.721000   -1.298000    2.715000 H         1 <1>         0.080900 
     32 H           3.068000   -1.178000    3.362000 H         1 <1>         0.076900 
     33 C           3.151000   -1.131000    1.206000 C.3       1 <1>         0.127100 
     34 H           3.905000   -1.062000    0.415000 H         1 <1>         0.029900 
     35 H           2.671000   -2.114000    1.161000 H         1 <1>         0.056000 
     36 O           0.987000   -1.234000   -0.513000 O.2       1 <1>        -0.394500 
     37 C          -1.334000    0.290000    0.297000 C.ar      1 <1>        -0.429700 
     38 C          -2.392000    1.181000    0.089000 C.ar      1 <1>         0.122700 
     39 H          -3.421000    0.831000    0.132000 H         1 <1>         0.066100 
     40 C          -2.138000    2.522000   -0.179000 C.ar      1 <1>        -0.125500 
     41 H          -2.964000    3.211000   -0.344000 H         1 <1>         0.128600 
     42 C          -0.825000    2.986000   -0.206000 C.ar      1 <1>        -0.110100 
     43 H          -0.672000    4.053000   -0.365000 H         1 <1>         0.122400 
     44 Cl         -1.773000   -1.343000    0.675000 Cl        1 <1>         0.131600 
@<TRIPOS>BOND
     1    1    2 ar   
     2    2    3 1    
     3    3    4 am   
     4    4    5 1    
     5    5    6 1    
     6    5    7 1    
     7    7    8 ar   
     8    8    1 1    
     9    8    9 ar   
    10    9   10 1    
    11    9   11 ar   
    12   11   12 ar   
    13   12    7 ar   
    14   12   13 1    
    15   13   14 2    
    16   13   15 1    
    17   15   16 1    
    18   16   17 ar   
    19   17   18 1    
    20   17   19 ar   
    21   19   20 1    
    22   19   21 ar   
    23   21   22 1    
    24   21   23 ar   
    25   23   24 1    
    26   23   25 ar   
    27   25   26 1    
    28   25   16 ar   
    29    5   27 1    
    30   27   28 1    
    31   27   29 1    
    32   27   30 1    
    33   30   31 1    
    34   30   32 1    
    35   30   33 1    
    36   33   34 1    
    37   33   35 1    
    38   33    4 1    
    39    3   36 2    
    40    2   37 ar   
    41   37   38 ar   
    42   38   39 1    
    43   38   40 ar   
    44   40   41 1    
    45   40   42 ar   
    46   42   43 1    
    47   42    1 ar   
    48   37   44 1    
@<TRIPOS>SUBSTRUCTURE
     1 ****        1 TEMP              0 ****  ****    0 ROOT 
@<TRIPOS>SET
UNITY_3DHIT     STATIC     ATOMS    <user>   **** Atoms matching 3D or FLEX Search
0
