#	Name:			Ro17-2221
#	Creating user name:	jeff
#	Creation time:		Tue Nov  4 15:19:53 2003

#	Modifying user name:	jeff
#	Modification time:	Tue Nov  4 15:19:53 2003

@<TRIPOS>MOLECULE
Ro17-2221
   38    40     1     0     1
SMALL
USER_CHARGES
****
From 3DB ct
@<TRIPOS>ATOM
      1 C          -2.138000    2.515000   -0.133000 C.ar      1 <1>        -0.089200 
      2 H          -2.975000    3.199000   -0.257000 H         1 <1>         0.111800 
      3 C          -2.371000    1.160000    0.052000 C.ar      1 <1>        -0.095900 
      4 H          -3.388000    0.775000    0.070000 H         1 <1>         0.108200 
      5 C          -1.292000    0.294000    0.205000 C.ar      1 <1>        -0.164200 
      6 H          -1.488000   -0.768000    0.341000 H         1 <1>         0.134900 
      7 C           0.030000    0.781000    0.177000 C.ar      1 <1>         0.021000 
      8 C           0.282000    2.162000    0.044000 C.ar      1 <1>         0.130700 
      9 C          -0.829000    3.008000   -0.139000 C.ar      1 <1>        -0.161600 
     10 H          -0.709000    4.082000   -0.245000 H         1 <1>         0.134200 
     11 N           1.597000    2.731000    0.092000 N.am      1 <1>        -0.376500 
     12 C           2.632000    2.227000    0.889000 C.2       1 <1>         0.436700 
     13 C           2.293000    1.064000    1.812000 C.3       1 <1>         0.067500 
     14 H           3.129000    0.928000    2.508000 H         1 <1>         0.060100 
     15 H           1.414000    1.284000    2.428000 H         1 <1>         0.025900 
     16 N           2.152000   -0.147000    1.012000 N.2       1 <1>        -0.389100 
     17 C           1.123000   -0.235000    0.238000 C.2       1 <1>         0.252300 
     18 C           1.034000   -1.443000   -0.645000 C.ar      1 <1>        -0.000700 
     19 C           0.514000   -1.357000   -1.942000 C.ar      1 <1>        -0.128600 
     20 H           0.170000   -0.409000   -2.347000 H         1 <1>         0.104900 
     21 C           0.458000   -2.497000   -2.748000 C.ar      1 <1>        -0.084200 
     22 H           0.059000   -2.429000   -3.757000 H         1 <1>         0.099600 
     23 C           0.926000   -3.719000   -2.266000 C.ar      1 <1>        -0.109700 
     24 H           0.887000   -4.604000   -2.897000 H         1 <1>         0.103100 
     25 C           1.461000   -3.805000   -0.980000 C.ar      1 <1>        -0.063600 
     26 H           1.839000   -4.755000   -0.611000 H         1 <1>         0.096700 
     27 C           1.521000   -2.668000   -0.172000 C.ar      1 <1>        -0.136200 
     28 H           1.951000   -2.739000    0.824000 H         1 <1>         0.126800 
     29 O           3.759000    2.731000    0.903000 O.2       1 <1>        -0.384300 
     30 C           1.895000    3.939000   -0.689000 C.3       1 <1>        -0.097500 
     31 H           1.175000    4.037000   -1.510000 H         1 <1>         0.086400 
     32 H           2.871000    3.800000   -1.172000 H         1 <1>         0.122200 
     33 C           1.942000    5.216000    0.170000 C.3       1 <1>         0.274000 
     34 H           2.821000    5.193000    0.823000 H         1 <1>         0.036100 
     35 H           1.065000    5.274000    0.823000 H         1 <1>        -0.049700 
     36 N           2.001000    6.428000   -0.651000 N.3       1 <1>        -0.720200 
     37 H           2.122000    7.239000   -0.044000 H         1 <1>         0.259600 
     38 H           1.117000    6.566000   -1.139000 H         1 <1>         0.258600 
@<TRIPOS>BOND
     1    2    1 1    
     2    1    3 ar   
     3    3    4 1    
     4    3    5 ar   
     5    5    6 1    
     6    5    7 ar   
     7    7    8 ar   
     8    8    9 ar   
     9    9   10 1    
    10    9    1 ar   
    11    8   11 1    
    12   11   12 am   
    13   12   13 1    
    14   13   14 1    
    15   13   15 1    
    16   13   16 1    
    17   16   17 2    
    18   17    7 1    
    19   17   18 1    
    20   18   19 ar   
    21   19   20 1    
    22   19   21 ar   
    23   21   22 1    
    24   21   23 ar   
    25   23   24 1    
    26   23   25 ar   
    27   25   26 1    
    28   25   27 ar   
    29   27   28 1    
    30   27   18 ar   
    31   12   29 2    
    32   11   30 1    
    33   30   31 1    
    34   30   32 1    
    35   30   33 1    
    36   33   34 1    
    37   33   35 1    
    38   33   36 1    
    39   36   37 1    
    40   36   38 1    
@<TRIPOS>SUBSTRUCTURE
     1 ****        2 TEMP              0 ****  ****    0 ROOT 
@<TRIPOS>SET
UNITY_3DHIT     STATIC     ATOMS    <user>   **** Atoms matching 3D or FLEX Search
0
@<TRIPOS>UNITY_BOND_ATTR
17 1
S I
