#	Name:			Ro20-1310
#	Creating user name:	jeff
#	Creation time:		Tue Nov  4 15:19:53 2003

#	Modifying user name:	jeff
#	Modification time:	Tue Nov  4 15:19:53 2003

@<TRIPOS>MOLECULE
Ro20-1310
   42    44     1     0     1
SMALL
USER_CHARGES
****
From 3DB ct
@<TRIPOS>ATOM
      1 C          -2.120000    2.569000    0.045000 C.ar      1 <1>         0.170900 
      2 H          -2.939000    3.286000    0.033000 H         1 <1>         0.066200 
      3 C          -2.374000    1.206000    0.140000 C.ar      1 <1>        -0.467200 
      4 C          -1.320000    0.301000    0.186000 C.ar      1 <1>         0.138900 
      5 H          -1.528000   -0.760000    0.296000 H         1 <1>         0.067400 
      6 C           0.004000    0.766000    0.112000 C.ar      1 <1>         0.020300 
      7 C           0.284000    2.142000   -0.006000 C.ar      1 <1>         0.130100 
      8 C          -0.801000    3.032000   -0.015000 C.ar      1 <1>        -0.208900 
      9 H          -0.646000    4.107000   -0.030000 H         1 <1>         0.120300 
     10 N           1.629000    2.650000   -0.045000 N.am      1 <1>        -0.467900 
     11 C           2.543000    2.257000    0.955000 C.2       1 <1>         0.463300 
     12 C           2.124000    1.096000    1.859000 C.3       1 <1>         0.091900 
     13 H           2.895000    0.969000    2.629000 H         1 <1>         0.056300 
     14 H           1.189000    1.302000    2.391000 H         1 <1>         0.023000 
     15 N           2.085000   -0.130000    1.046000 N.2       1 <1>        -0.372700 
     16 C           1.098000   -0.241000    0.212000 C.2       1 <1>         0.122600 
     17 C           1.056000   -1.443000   -0.677000 C.ar      1 <1>         0.120200 
     18 C           0.585000   -1.354000   -1.994000 C.ar      1 <1>        -0.214200 
     19 H           0.243000   -0.409000   -2.409000 H         1 <1>         0.118200 
     20 C           0.566000   -2.490000   -2.807000 C.ar      1 <1>        -0.046800 
     21 H           0.199000   -2.419000   -3.830000 H         1 <1>         0.097500 
     22 C           1.021000   -3.712000   -2.314000 C.ar      1 <1>        -0.133000 
     23 H           1.005000   -4.595000   -2.951000 H         1 <1>         0.109500 
     24 C           1.503000   -3.803000   -1.009000 C.ar      1 <1>        -0.058800 
     25 H           1.863000   -4.756000   -0.626000 H         1 <1>         0.098800 
     26 C           1.525000   -2.670000   -0.192000 C.ar      1 <1>        -0.155000 
     27 H           1.904000   -2.755000    0.825000 H         1 <1>         0.129700 
     28 O           3.640000    2.798000    1.136000 O.2       1 <1>        -0.410600 
     29 C           2.035000    3.658000   -1.101000 C.3       1 <1>         0.532200 
     30 C           1.104000    3.689000   -2.345000 C.3       1 <1>        -0.316000 
     31 H           1.545000    4.289000   -3.152000 H         1 <1>         0.085400 
     32 H           0.134000    4.149000   -2.144000 H         1 <1>         0.071300 
     33 H           0.936000    2.682000   -2.742000 H         1 <1>         0.072800 
     34 C           2.112000    5.076000   -0.505000 C.3       1 <1>        -0.341600 
     35 H           2.404000    5.808000   -1.266000 H         1 <1>         0.082400 
     36 H           2.843000    5.138000    0.307000 H         1 <1>         0.094900 
     37 H           1.148000    5.392000   -0.094000 H         1 <1>         0.074500 
     38 C           3.426000    3.284000   -1.687000 C.3       1 <1>        -0.270800 
     39 H           3.679000    3.913000   -2.548000 H         1 <1>         0.055600 
     40 H           3.440000    2.239000   -2.017000 H         1 <1>         0.062700 
     41 H           4.241000    3.419000   -0.971000 H         1 <1>         0.093700 
     42 Cl         -3.996000    0.640000    0.227000 Cl        1 <1>         0.092900 
@<TRIPOS>BOND
     1    2    1 1    
     2    1    3 ar   
     3    3    4 ar   
     4    4    5 1    
     5    4    6 ar   
     6    6    7 ar   
     7    7    8 ar   
     8    8    9 1    
     9    8    1 ar   
    10    7   10 1    
    11   10   11 am   
    12   11   12 1    
    13   12   13 1    
    14   12   14 1    
    15   12   15 1    
    16   15   16 2    
    17   16    6 1    
    18   16   17 1    
    19   17   18 ar   
    20   18   19 1    
    21   18   20 ar   
    22   20   21 1    
    23   20   22 ar   
    24   22   23 1    
    25   22   24 ar   
    26   24   25 1    
    27   24   26 ar   
    28   26   27 1    
    29   26   17 ar   
    30   11   28 2    
    31   10   29 1    
    32   29   30 1    
    33   30   31 1    
    34   30   32 1    
    35   30   33 1    
    36   29   34 1    
    37   34   35 1    
    38   34   36 1    
    39   34   37 1    
    40   29   38 1    
    41   38   39 1    
    42   38   40 1    
    43   38   41 1    
    44    3   42 1    
@<TRIPOS>SUBSTRUCTURE
     1 ****        2 TEMP              0 ****  ****    0 ROOT 
@<TRIPOS>SET
UNITY_3DHIT     STATIC     ATOMS    <user>   **** Atoms matching 3D or FLEX Search
0
@<TRIPOS>UNITY_BOND_ATTR
16 1
S I
