#	Name:			Ro20-5747
#	Creating user name:	jeff
#	Creation time:		Tue Nov  4 15:19:52 2003

#	Modifying user name:	jeff
#	Modification time:	Tue Nov  4 15:19:52 2003

@<TRIPOS>MOLECULE
Ro20-5747
   34    36     1     0     1
SMALL
USER_CHARGES
****
From 3DB ct
@<TRIPOS>ATOM
      1 C          -2.087000    2.495000   -0.213000 C.ar      1 <1>        -0.128100 
      2 H          -2.900000    3.198000   -0.389000 H         1 <1>         0.132000 
      3 C          -2.353000    1.133000   -0.029000 C.ar      1 <1>         0.113200 
      4 C          -1.267000    0.273000    0.174000 C.ar      1 <1>        -0.189300 
      5 H          -1.437000   -0.793000    0.298000 H         1 <1>         0.161300 
      6 C           0.057000    0.756000    0.200000 C.ar      1 <1>        -0.081200 
      7 C           0.298000    2.132000    0.091000 C.ar      1 <1>         0.211900 
      8 C          -0.778000    2.988000   -0.160000 C.ar      1 <1>        -0.202700 
      9 H          -0.622000    4.058000   -0.280000 H         1 <1>         0.129600 
     10 N           1.560000    2.732000    0.205000 N.am      1 <1>        -0.553700 
     11 H           1.691000    3.679000   -0.129000 H         1 <1>         0.317800 
     12 C           2.630000    2.278000    0.931000 C.2       1 <1>         0.490500 
     13 C           2.447000    1.022000    1.763000 C.3       1 <1>         0.074100 
     14 H           3.362000    0.870000    2.348000 H         1 <1>         0.058200 
     15 H           1.632000    1.155000    2.484000 H         1 <1>         0.031100 
     16 N           2.250000   -0.143000    0.910000 N.2       1 <1>        -0.411100 
     17 C           1.169000   -0.244000    0.214000 C.2       1 <1>         0.328700 
     18 C           1.040000   -1.457000   -0.656000 C.ar      1 <1>        -0.071700 
     19 C           0.527000   -1.365000   -1.956000 C.ar      1 <1>        -0.072100 
     20 H           0.228000   -0.407000   -2.372000 H         1 <1>         0.096900 
     21 C           0.415000   -2.512000   -2.743000 C.ar      1 <1>        -0.114500 
     22 H           0.019000   -2.441000   -3.753000 H         1 <1>         0.104200 
     23 C           0.822000   -3.748000   -2.240000 C.ar      1 <1>        -0.092700 
     24 H           0.739000   -4.640000   -2.857000 H         1 <1>         0.101300 
     25 C           1.350000   -3.840000   -0.952000 C.ar      1 <1>        -0.073900 
     26 H           1.679000   -4.801000   -0.565000 H         1 <1>         0.097000 
     27 C           1.466000   -2.696000   -0.161000 C.ar      1 <1>        -0.116400 
     28 H           1.887000   -2.770000    0.839000 H         1 <1>         0.125500 
     29 O           3.661000    2.953000    0.965000 O.2       1 <1>        -0.419300 
     30 C          -3.754000    0.680000   -0.074000 C.2       1 <1>        -0.188800 
     31 H          -4.501000    1.461000   -0.214000 H         1 <1>         0.114500 
     32 C          -4.191000   -0.581000    0.042000 C.2       1 <1>        -0.181200 
     33 H          -5.256000   -0.792000   -0.005000 H         1 <1>         0.103900 
     34 H          -3.538000   -1.433000    0.184000 H         1 <1>         0.104800 
@<TRIPOS>BOND
     1    2    1 1    
     2    1    3 ar   
     3    3    4 ar   
     4    4    5 1    
     5    4    6 ar   
     6    6    7 ar   
     7    7    8 ar   
     8    8    9 1    
     9    8    1 ar   
    10    7   10 1    
    11   10   11 1    
    12   10   12 am   
    13   12   13 1    
    14   13   14 1    
    15   13   15 1    
    16   13   16 1    
    17   16   17 2    
    18   17    6 1    
    19   17   18 1    
    20   18   19 ar   
    21   19   20 1    
    22   19   21 ar   
    23   21   22 1    
    24   21   23 ar   
    25   23   24 1    
    26   23   25 ar   
    27   25   26 1    
    28   25   27 ar   
    29   27   28 1    
    30   27   18 ar   
    31   12   29 2    
    32    3   30 1    
    33   30   31 1    
    34   30   32 2    
    35   32   33 1    
    36   32   34 1    
@<TRIPOS>SUBSTRUCTURE
     1 ****        2 TEMP              0 ****  ****    0 ROOT 
@<TRIPOS>SET
UNITY_3DHIT     STATIC     ATOMS    <user>   **** Atoms matching 3D or FLEX Search
0
@<TRIPOS>UNITY_BOND_ATTR
17 1
S I
