#	Name:			Ro20-8895
#	Creating user name:	jeff
#	Creation time:		Tue Nov  4 15:19:52 2003

#	Modifying user name:	jeff
#	Modification time:	Tue Nov  4 15:19:52 2003

@<TRIPOS>MOLECULE
Ro20-8895
   33    35     1     0     1
SMALL
USER_CHARGES
****
From 3DB ct
@<TRIPOS>ATOM
      1 C          -2.110000    2.495000   -0.240000 C.ar      1 <1>         0.202900 
      2 C          -2.334000    1.129000   -0.064000 C.ar      1 <1>        -0.209400 
      3 H          -3.345000    0.725000   -0.107000 H         1 <1>         0.133400 
      4 C          -1.260000    0.261000    0.143000 C.ar      1 <1>        -0.093200 
      5 H          -1.470000   -0.802000    0.243000 H         1 <1>         0.130700 
      6 C           0.057000    0.749000    0.204000 C.ar      1 <1>        -0.184000 
      7 C           0.283000    2.132000    0.112000 C.ar      1 <1>         0.301400 
      8 C          -0.801000    2.987000   -0.145000 C.ar      1 <1>        -0.323900 
      9 H          -0.633000    4.060000   -0.241000 H         1 <1>         0.155400 
     10 N           1.538000    2.752000    0.243000 N.am      1 <1>        -0.592700 
     11 H           1.645000    3.692000   -0.129000 H         1 <1>         0.326500 
     12 C           2.630000    2.276000    0.921000 C.2       1 <1>         0.507000 
     13 C           2.428000    1.034000    1.774000 C.3       1 <1>         0.094300 
     14 H           3.323000    0.896000    2.390000 H         1 <1>         0.052500 
     15 H           1.588000    1.167000    2.466000 H         1 <1>         0.021000 
     16 N           2.267000   -0.141000    0.919000 N.2       1 <1>        -0.440300 
     17 C           1.175000   -0.249000    0.234000 C.2       1 <1>         0.478200 
     18 C           1.044000   -1.458000   -0.628000 C.ar      1 <1>        -0.318600 
     19 C           1.465000   -2.708000   -0.156000 C.ar      1 <1>        -0.012000 
     20 H           1.889000   -2.816000    0.840000 H         1 <1>         0.120500 
     21 C           1.327000   -3.837000   -0.967000 C.ar      1 <1>        -0.146300 
     22 H           1.653000   -4.810000   -0.603000 H         1 <1>         0.114700 
     23 C           0.770000   -3.722000   -2.242000 C.ar      1 <1>        -0.028600 
     24 H           0.665000   -4.605000   -2.871000 H         1 <1>         0.110400 
     25 C           0.346000   -2.478000   -2.710000 C.ar      1 <1>        -0.283000 
     26 H          -0.086000   -2.382000   -3.702000 H         1 <1>         0.155300 
     27 C           0.481000   -1.352000   -1.902000 C.ar      1 <1>         0.443700 
     28 F           0.088000   -0.164000   -2.386000 F         1 <1>        -0.267600 
     29 O           3.705000    2.883000    0.886000 O.2       1 <1>        -0.426300 
     30 C          -3.261000    3.434000   -0.455000 C.3       1 <1>        -0.229000 
     31 H          -2.959000    4.284000   -1.076000 H         1 <1>         0.069900 
     32 H          -3.623000    3.809000    0.508000 H         1 <1>         0.070300 
     33 H          -4.085000    2.931000   -0.972000 H         1 <1>         0.066500 
@<TRIPOS>BOND
     1    1    2 ar   
     2    2    3 1    
     3    2    4 ar   
     4    4    5 1    
     5    4    6 ar   
     6    6    7 ar   
     7    7    8 ar   
     8    8    9 1    
     9    8    1 ar   
    10    7   10 1    
    11   10   11 1    
    12   10   12 am   
    13   12   13 1    
    14   13   14 1    
    15   13   15 1    
    16   13   16 1    
    17   16   17 2    
    18   17    6 1    
    19   17   18 1    
    20   18   19 ar   
    21   19   20 1    
    22   19   21 ar   
    23   21   22 1    
    24   21   23 ar   
    25   23   24 1    
    26   23   25 ar   
    27   25   26 1    
    28   25   27 ar   
    29   27   18 ar   
    30   27   28 1    
    31   12   29 2    
    32    1   30 1    
    33   30   31 1    
    34   30   32 1    
    35   30   33 1    
@<TRIPOS>SUBSTRUCTURE
     1 ****        1 TEMP              0 ****  ****    0 ROOT 
@<TRIPOS>SET
UNITY_3DHIT     STATIC     ATOMS    <user>   **** Atoms matching 3D or FLEX Search
0
@<TRIPOS>UNITY_BOND_ATTR
17 1
S I
