#	Name:			Ro20-7736
#	Creating user name:	jeff
#	Creation time:		Tue Nov  4 15:19:51 2003

#	Modifying user name:	jeff
#	Modification time:	Tue Nov  4 15:19:51 2003

@<TRIPOS>MOLECULE
Ro20-7736
   36    38     1     0     1
SMALL
USER_CHARGES
****
From 3DB ct
@<TRIPOS>ATOM
      1 C          -2.129000    2.475000   -0.174000 C.ar      1 <1>        -0.403200 
      2 H          -2.958000    3.166000   -0.323000 H         1 <1>         0.162100 
      3 C          -2.371000    1.116000    0.007000 C.ar      1 <1>         0.468200 
      4 C          -1.272000    0.272000    0.180000 C.ar      1 <1>        -0.299700 
      5 H          -1.448000   -0.794000    0.310000 H         1 <1>         0.151100 
      6 C           0.049000    0.772000    0.182000 C.ar      1 <1>         0.016100 
      7 C           0.290000    2.154000    0.051000 C.ar      1 <1>        -0.054800 
      8 C          -0.824000    2.986000   -0.155000 C.ar      1 <1>         0.040900 
      9 H          -0.716000    4.063000   -0.268000 H         1 <1>         0.104400 
     10 N           1.597000    2.743000    0.107000 N.am      1 <1>        -0.244300 
     11 C           2.644000    2.245000    0.887000 C.2       1 <1>         0.443000 
     12 C           2.319000    1.074000    1.805000 C.3       1 <1>         0.040900 
     13 H           3.153000    0.946000    2.504000 H         1 <1>         0.069400 
     14 H           1.431000    1.273000    2.416000 H         1 <1>         0.032700 
     15 N           2.204000   -0.136000    0.992000 N.2       1 <1>        -0.408700 
     16 C           1.151000   -0.239000    0.247000 C.2       1 <1>         0.394500 
     17 C           1.045000   -1.445000   -0.624000 C.ar      1 <1>        -0.250500 
     18 C           1.421000   -2.702000   -0.133000 C.ar      1 <1>        -0.041200 
     19 H           1.793000   -2.819000    0.883000 H         1 <1>         0.128800 
     20 C           1.306000   -3.829000   -0.950000 C.ar      1 <1>        -0.127100 
     21 H           1.598000   -4.807000   -0.570000 H         1 <1>         0.111500 
     22 C           0.814000   -3.706000   -2.251000 C.ar      1 <1>        -0.048500 
     23 H           0.726000   -4.587000   -2.885000 H         1 <1>         0.110600 
     24 C           0.434000   -2.456000   -2.739000 C.ar      1 <1>        -0.244200 
     25 H           0.054000   -2.353000   -3.751000 H         1 <1>         0.144900 
     26 C           0.548000   -1.331000   -1.924000 C.ar      1 <1>         0.385900 
     27 F           0.200000   -0.139000   -2.430000 F         1 <1>        -0.254000 
     28 O           3.778000    2.740000    0.884000 O.2       1 <1>        -0.404200 
     29 C           1.833000    3.986000   -0.626000 C.3       1 <1>        -0.063300 
     30 H           2.901000    4.142000   -0.806000 H         1 <1>         0.089300 
     31 H           1.465000    4.827000   -0.030000 H         1 <1>         0.038600 
     32 H           1.334000    3.954000   -1.599000 H         1 <1>         0.066700 
     33 N          -3.664000    0.588000    0.002000 N.pl3     1 <1>        -0.568600 
     34 H          -4.459000    1.198000   -0.211000 H         1 <1>         0.360200 
     35 O          -3.926000   -0.758000    0.212000 O.3       1 <1>        -0.208400 
     36 H          -4.061000   -1.113000   -0.694000 H         1 <1>         0.261400 
@<TRIPOS>BOND
     1    2    1 1    
     2    1    3 ar   
     3    3    4 ar   
     4    4    5 1    
     5    4    6 ar   
     6    6    7 ar   
     7    7    8 ar   
     8    8    9 1    
     9    8    1 ar   
    10    7   10 1    
    11   10   11 am   
    12   11   12 1    
    13   12   13 1    
    14   12   14 1    
    15   12   15 1    
    16   15   16 2    
    17   16    6 1    
    18   16   17 1    
    19   17   18 ar   
    20   18   19 1    
    21   18   20 ar   
    22   20   21 1    
    23   20   22 ar   
    24   22   23 1    
    25   22   24 ar   
    26   24   25 1    
    27   24   26 ar   
    28   26   17 ar   
    29   26   27 1    
    30   11   28 2    
    31   10   29 1    
    32   29   30 1    
    33   29   31 1    
    34   29   32 1    
    35    3   33 1    
    36   33   34 1    
    37   33   35 1    
    38   35   36 1    
@<TRIPOS>SUBSTRUCTURE
     1 ****        2 TEMP              0 ****  ****    0 ROOT 
@<TRIPOS>SET
UNITY_3DHIT     STATIC     ATOMS    <user>   **** Atoms matching 3D or FLEX Search
0
@<TRIPOS>UNITY_BOND_ATTR
16 1
S I
