#	Name:			Ro20-2541
#	Creating user name:	jeff
#	Creation time:		Tue Nov  4 15:19:51 2003

#	Modifying user name:	jeff
#	Modification time:	Tue Nov  4 15:19:52 2003

@<TRIPOS>MOLECULE
Ro20-2541
   34    36     1     0     1
SMALL
USER_CHARGES
****
From 3DB ct
@<TRIPOS>ATOM
      1 C          -2.132000    2.485000   -0.172000 C.ar      1 <1>        -0.128900 
      2 H          -2.965000    3.172000   -0.316000 H         1 <1>         0.144500 
      3 C          -2.360000    1.123000    0.006000 C.ar      1 <1>         0.129400 
      4 C          -1.271000    0.267000    0.181000 C.ar      1 <1>        -0.204100 
      5 H          -1.454000   -0.798000    0.312000 H         1 <1>         0.163800 
      6 C           0.047000    0.769000    0.183000 C.ar      1 <1>         0.015100 
      7 C           0.288000    2.153000    0.051000 C.ar      1 <1>         0.071300 
      8 C          -0.827000    2.990000   -0.153000 C.ar      1 <1>        -0.122100 
      9 H          -0.714000    4.067000   -0.262000 H         1 <1>         0.120700 
     10 N           1.595000    2.742000    0.106000 N.am      1 <1>        -0.254000 
     11 C           2.642000    2.245000    0.887000 C.2       1 <1>         0.436800 
     12 C           2.317000    1.075000    1.806000 C.3       1 <1>         0.036200 
     13 H           3.151000    0.948000    2.506000 H         1 <1>         0.072800 
     14 H           1.428000    1.273000    2.416000 H         1 <1>         0.031800 
     15 N           2.204000   -0.136000    0.993000 N.2       1 <1>        -0.393900 
     16 C           1.152000   -0.240000    0.247000 C.2       1 <1>         0.346900 
     17 C           1.048000   -1.446000   -0.624000 C.ar      1 <1>        -0.233300 
     18 C           1.425000   -2.703000   -0.133000 C.ar      1 <1>        -0.041800 
     19 H           1.792000   -2.821000    0.884000 H         1 <1>         0.128400 
     20 C           1.314000   -3.830000   -0.952000 C.ar      1 <1>        -0.125400 
     21 H           1.606000   -4.808000   -0.571000 H         1 <1>         0.113000 
     22 C           0.825000   -3.707000   -2.254000 C.ar      1 <1>        -0.047200 
     23 H           0.741000   -4.587000   -2.889000 H         1 <1>         0.112900 
     24 C           0.444000   -2.457000   -2.741000 C.ar      1 <1>        -0.232800 
     25 H           0.066000   -2.353000   -3.755000 H         1 <1>         0.147400 
     26 C           0.554000   -1.333000   -1.925000 C.ar      1 <1>         0.361600 
     27 F           0.204000   -0.140000   -2.432000 F         1 <1>        -0.249800 
     28 O           3.776000    2.740000    0.884000 O.2       1 <1>        -0.388800 
     29 C           1.833000    3.982000   -0.630000 C.3       1 <1>        -0.079600 
     30 H           2.901000    4.134000   -0.814000 H         1 <1>         0.094200 
     31 H           1.470000    4.825000   -0.034000 H         1 <1>         0.049900 
     32 H           1.329000    3.951000   -1.601000 H         1 <1>         0.075300 
     33 C          -3.699000    0.605000    0.000000 C.1       1 <1>         0.036300 
     34 N          -4.783000    0.183000   -0.004000 N.1       1 <1>        -0.186800 
@<TRIPOS>BOND
     1    2    1 1    
     2    1    3 ar   
     3    3    4 ar   
     4    4    5 1    
     5    4    6 ar   
     6    6    7 ar   
     7    7    8 ar   
     8    8    9 1    
     9    8    1 ar   
    10    7   10 1    
    11   10   11 am   
    12   11   12 1    
    13   12   13 1    
    14   12   14 1    
    15   12   15 1    
    16   15   16 2    
    17   16    6 1    
    18   16   17 1    
    19   17   18 ar   
    20   18   19 1    
    21   18   20 ar   
    22   20   21 1    
    23   20   22 ar   
    24   22   23 1    
    25   22   24 ar   
    26   24   25 1    
    27   24   26 ar   
    28   26   17 ar   
    29   26   27 1    
    30   11   28 2    
    31   10   29 1    
    32   29   30 1    
    33   29   31 1    
    34   29   32 1    
    35    3   33 1    
    36   33   34 3    
@<TRIPOS>SUBSTRUCTURE
     1 ****        2 TEMP              0 ****  ****    0 ROOT 
@<TRIPOS>SET
UNITY_3DHIT     STATIC     ATOMS    <user>   **** Atoms matching 3D or FLEX Search
0
@<TRIPOS>UNITY_BOND_ATTR
16 1
S I
