#	Name:			Ro20-8065
#	Creating user name:	jeff
#	Creation time:		Tue Nov  4 15:19:53 2003

#	Modifying user name:	jeff
#	Modification time:	Tue Nov  4 15:19:53 2003

@<TRIPOS>MOLECULE
Ro20-8065
   30    32     1     0     1
SMALL
USER_CHARGES
****
From 3DB ct
@<TRIPOS>ATOM
      1 C          -2.087000    2.487000   -0.299000 C.ar      1 <1>         0.108000 
      2 H          -2.885000    3.185000   -0.545000 H         1 <1>         0.081400 
      3 C          -2.380000    1.172000    0.062000 C.ar      1 <1>        -0.212000 
      4 C          -1.343000    0.274000    0.359000 C.ar      1 <1>        -0.295700 
      5 C           0.001000    0.707000    0.285000 C.ar      1 <1>         0.292100 
      6 C           0.279000    2.066000    0.032000 C.ar      1 <1>         0.228200 
      7 C          -0.767000    2.931000   -0.308000 C.ar      1 <1>        -0.269800 
      8 H          -0.571000    3.976000   -0.544000 H         1 <1>         0.154600 
      9 N           1.555000    2.656000    0.114000 N.am      1 <1>        -0.629000 
     10 H           1.694000    3.555000   -0.340000 H         1 <1>         0.339600 
     11 C           2.616000    2.233000    0.877000 C.2       1 <1>         0.559500 
     12 C           2.375000    1.052000    1.809000 C.3       1 <1>         0.032800 
     13 H           3.257000    0.935000    2.448000 H         1 <1>         0.072600 
     14 H           1.524000    1.240000    2.473000 H         1 <1>         0.019500 
     15 N           2.215000   -0.159000    1.007000 N.2       1 <1>        -0.359600 
     16 C           1.131000   -0.283000    0.310000 C.2       1 <1>         0.134800 
     17 C           1.053000   -1.463000   -0.604000 C.ar      1 <1>        -0.094100 
     18 C           1.521000   -2.715000   -0.181000 C.ar      1 <1>        -0.072900 
     19 H           1.943000   -2.854000    0.812000 H         1 <1>         0.133300 
     20 C           1.432000   -3.816000   -1.036000 C.ar      1 <1>        -0.109200 
     21 H           1.795000   -4.789000   -0.708000 H         1 <1>         0.110300 
     22 C           0.872000   -3.676000   -2.307000 C.ar      1 <1>        -0.051500 
     23 H           0.804000   -4.537000   -2.970000 H         1 <1>         0.116100 
     24 C           0.397000   -2.433000   -2.727000 C.ar      1 <1>        -0.265000 
     25 H          -0.038000   -2.316000   -3.716000 H         1 <1>         0.162000 
     26 C           0.485000   -1.335000   -1.875000 C.ar      1 <1>         0.322300 
     27 F           0.043000   -0.148000   -2.319000 F         1 <1>        -0.241800 
     28 O           3.696000    2.832000    0.838000 O.2       1 <1>        -0.427900 
     29 Cl         -1.737000   -1.339000    0.886000 Cl        1 <1>         0.094600 
     30 Cl         -4.051000    0.720000    0.108000 Cl        1 <1>         0.066800 
@<TRIPOS>BOND
     1    2    1 1    
     2    1    3 ar   
     3    3    4 ar   
     4    4    5 ar   
     5    5    6 ar   
     6    6    7 ar   
     7    7    8 1    
     8    7    1 ar   
     9    6    9 1    
    10    9   10 1    
    11    9   11 am   
    12   11   12 1    
    13   12   13 1    
    14   12   14 1    
    15   12   15 1    
    16   15   16 2    
    17   16    5 1    
    18   16   17 1    
    19   17   18 ar   
    20   18   19 1    
    21   18   20 ar   
    22   20   21 1    
    23   20   22 ar   
    24   22   23 1    
    25   22   24 ar   
    26   24   25 1    
    27   24   26 ar   
    28   26   17 ar   
    29   26   27 1    
    30   11   28 2    
    31    4   29 1    
    32    3   30 1    
@<TRIPOS>SUBSTRUCTURE
     1 ****        2 TEMP              0 ****  ****    0 ROOT 
@<TRIPOS>SET
UNITY_3DHIT     STATIC     ATOMS    <user>   **** Atoms matching 3D or FLEX Search
0
@<TRIPOS>UNITY_BOND_ATTR
16 1
S I
