#	Name:			Ro20-7078
#	Creating user name:	jeff
#	Creation time:		Tue Nov  4 15:19:55 2003

#	Modifying user name:	jeff
#	Modification time:	Tue Nov  4 15:19:55 2003

@<TRIPOS>MOLECULE
Ro20-7078
   33    35     1     0     1
SMALL
USER_CHARGES
****
From 3DB ct
@<TRIPOS>ATOM
      1 C          -2.134000    2.505000   -0.147000 C.ar      1 <1>         0.179900 
      2 H          -2.968000    3.190000   -0.281000 H         1 <1>         0.067400 
      3 C          -2.355000    1.147000    0.031000 C.ar      1 <1>        -0.451900 
      4 C          -1.280000    0.281000    0.196000 C.ar      1 <1>         0.150900 
      5 H          -1.472000   -0.782000    0.327000 H         1 <1>         0.063500 
      6 C           0.038000    0.776000    0.181000 C.ar      1 <1>        -0.096200 
      7 C           0.284000    2.161000    0.054000 C.ar      1 <1>         0.179600 
      8 C          -0.827000    3.005000   -0.137000 C.ar      1 <1>        -0.225600 
      9 H          -0.710000    4.081000   -0.244000 H         1 <1>         0.133200 
     10 N           1.596000    2.740000    0.104000 N.am      1 <1>        -0.345700 
     11 C           2.647000    2.234000    0.887000 C.2       1 <1>         0.661000 
     12 C           2.287000    1.060000    1.819000 C.3       1 <1>        -0.435700 
     13 H           1.393000    1.274000    2.414000 H         1 <1>         0.198000 
     14 N           2.175000   -0.150000    1.005000 N.2       1 <1>        -0.323700 
     15 C           1.137000   -0.236000    0.237000 C.2       1 <1>         0.430200 
     16 C           1.042000   -1.442000   -0.640000 C.ar      1 <1>        -0.241300 
     17 C           1.490000   -2.678000   -0.156000 C.ar      1 <1>        -0.025500 
     18 H           1.892000   -2.765000    0.851000 H         1 <1>         0.123100 
     19 C           1.413000   -3.814000   -0.966000 C.ar      1 <1>        -0.130600 
     20 H           1.755000   -4.776000   -0.586000 H         1 <1>         0.115600 
     21 C           0.901000   -3.719000   -2.261000 C.ar      1 <1>        -0.044800 
     22 H           0.844000   -4.606000   -2.890000 H         1 <1>         0.113400 
     23 C           0.470000   -2.486000   -2.752000 C.ar      1 <1>        -0.224300 
     24 H           0.081000   -2.403000   -3.764000 H         1 <1>         0.147000 
     25 C           0.547000   -1.355000   -1.944000 C.ar      1 <1>         0.339800 
     26 F           0.155000   -0.178000   -2.455000 F         1 <1>        -0.247400 
     27 Cl          3.606000    0.774000    2.993000 Cl        1 <1>         0.056600 
     28 O           3.779000    2.736000    0.849000 O.2       1 <1>        -0.403900 
     29 C           1.838000    3.977000   -0.637000 C.3       1 <1>        -0.118200 
     30 H           2.904000    4.117000   -0.837000 H         1 <1>         0.110200 
     31 H           1.492000    4.825000   -0.037000 H         1 <1>         0.066900 
     32 H           1.321000    3.951000   -1.602000 H         1 <1>         0.086500 
     33 Cl         -3.962000    0.532000    0.035000 Cl        1 <1>         0.092200 
@<TRIPOS>BOND
     1    2    1 1    
     2    1    3 ar   
     3    3    4 ar   
     4    4    5 1    
     5    4    6 ar   
     6    6    7 ar   
     7    7    8 ar   
     8    8    9 1    
     9    8    1 ar   
    10    7   10 1    
    11   10   11 am   
    12   11   12 1    
    13   12   13 1    
    14   12   14 1    
    15   14   15 2    
    16   15    6 1    
    17   15   16 1    
    18   16   17 ar   
    19   17   18 1    
    20   17   19 ar   
    21   19   20 1    
    22   19   21 ar   
    23   21   22 1    
    24   21   23 ar   
    25   23   24 1    
    26   23   25 ar   
    27   25   16 ar   
    28   25   26 1    
    29   12   27 1    
    30   11   28 2    
    31   10   29 1    
    32   29   30 1    
    33   29   31 1    
    34   29   32 1    
    35    3   33 1    
@<TRIPOS>SUBSTRUCTURE
     1 ****        2 TEMP              0 ****  ****    0 ROOT 
@<TRIPOS>SET
UNITY_3DHIT     STATIC     ATOMS    <user>   **** Atoms matching 3D or FLEX Search
0
@<TRIPOS>UNITY_BOND_ATTR
15 1
S I
