#	Name:			Ro20-3053
#	Creating user name:	jeff
#	Creation time:		Tue Nov  4 15:19:52 2003

#	Modifying user name:	jeff
#	Modification time:	Tue Nov  4 15:19:52 2003

@<TRIPOS>MOLECULE
Ro20-3053
   35    37     1     0     1
SMALL
USER_CHARGES
****
From 3DB ct
@<TRIPOS>ATOM
      1 C          -2.102000    2.491000   -0.230000 C.ar      1 <1>         0.001900 
      2 H          -2.907000    3.200000   -0.411000 H         1 <1>         0.111500 
      3 C          -2.347000    1.127000   -0.067000 C.ar      1 <1>        -0.201100 
      4 C          -1.265000    0.261000    0.143000 C.ar      1 <1>        -0.073400 
      5 H          -1.454000   -0.806000    0.245000 H         1 <1>         0.157900 
      6 C           0.054000    0.750000    0.205000 C.ar      1 <1>        -0.155400 
      7 C           0.285000    2.132000    0.109000 C.ar      1 <1>         0.329500 
      8 C          -0.796000    2.985000   -0.149000 C.ar      1 <1>        -0.285700 
      9 H          -0.640000    4.058000   -0.257000 H         1 <1>         0.141500 
     10 N           1.541000    2.750000    0.239000 N.am      1 <1>        -0.607000 
     11 H           1.649000    3.689000   -0.135000 H         1 <1>         0.329000 
     12 C           2.631000    2.275000    0.919000 C.2       1 <1>         0.515800 
     13 C           2.427000    1.035000    1.775000 C.3       1 <1>         0.043000 
     14 H           3.322000    0.896000    2.391000 H         1 <1>         0.071200 
     15 H           1.587000    1.171000    2.466000 H         1 <1>         0.037500 
     16 N           2.264000   -0.140000    0.922000 N.2       1 <1>        -0.409100 
     17 C           1.173000   -0.248000    0.236000 C.2       1 <1>         0.462500 
     18 C           1.044000   -1.457000   -0.628000 C.ar      1 <1>        -0.369200 
     19 C           0.522000   -1.343000   -1.923000 C.ar      1 <1>         0.061900 
     20 H           0.208000   -0.380000   -2.317000 H         1 <1>         0.086700 
     21 C           0.416000   -2.479000   -2.729000 C.ar      1 <1>        -0.196900 
     22 H           0.011000   -2.395000   -3.736000 H         1 <1>         0.123300 
     23 C           0.832000   -3.723000   -2.248000 C.ar      1 <1>        -0.001400 
     24 H           0.747000   -4.606000   -2.879000 H         1 <1>         0.105200 
     25 C           1.357000   -3.835000   -0.960000 C.ar      1 <1>        -0.266400 
     26 H           1.680000   -4.800000   -0.580000 H         1 <1>         0.152600 
     27 C           1.464000   -2.702000   -0.157000 C.ar      1 <1>         0.433300 
     28 F           1.950000   -2.842000    1.086000 F         1 <1>        -0.249700 
     29 O           3.707000    2.882000    0.884000 O.2       1 <1>        -0.416400 
     30 C          -3.728000    0.554000   -0.128000 C.2       1 <1>         0.496800 
     31 O          -3.901000   -0.658000    0.018000 O.2       1 <1>        -0.389000 
     32 C          -4.892000    1.481000   -0.368000 C.3       1 <1>        -0.259300 
     33 H          -5.818000    0.899000   -0.377000 H         1 <1>         0.071600 
     34 H          -4.792000    1.972000   -1.340000 H         1 <1>         0.074500 
     35 H          -4.963000    2.217000    0.437000 H         1 <1>         0.072900 
@<TRIPOS>BOND
     1    2    1 1    
     2    1    3 ar   
     3    3    4 ar   
     4    4    5 1    
     5    4    6 ar   
     6    6    7 ar   
     7    7    8 ar   
     8    8    9 1    
     9    8    1 ar   
    10    7   10 1    
    11   10   11 1    
    12   10   12 am   
    13   12   13 1    
    14   13   14 1    
    15   13   15 1    
    16   13   16 1    
    17   16   17 2    
    18   17    6 1    
    19   17   18 1    
    20   18   19 ar   
    21   19   20 1    
    22   19   21 ar   
    23   21   22 1    
    24   21   23 ar   
    25   23   24 1    
    26   23   25 ar   
    27   25   26 1    
    28   25   27 ar   
    29   27   18 ar   
    30   27   28 1    
    31   12   29 2    
    32    3   30 1    
    33   30   31 2    
    34   30   32 1    
    35   32   33 1    
    36   32   34 1    
    37   32   35 1    
@<TRIPOS>SUBSTRUCTURE
     1 ****        2 TEMP              0 ****  ****    0 ROOT 
@<TRIPOS>SET
UNITY_3DHIT     STATIC     ATOMS    <user>   **** Atoms matching 3D or FLEX Search
0
@<TRIPOS>UNITY_BOND_ATTR
17 1
S I
