#	Name:			Ro20-1815
#	Creating user name:	jeff
#	Creation time:		Tue Nov  4 15:19:51 2003

#	Modifying user name:	jeff
#	Modification time:	Tue Nov  4 15:19:51 2003

@<TRIPOS>MOLECULE
Ro20-1815
   35    37     1     0     1
SMALL
USER_CHARGES
****
From 3DB ct
@<TRIPOS>ATOM
      1 C          -2.128000    2.472000   -0.185000 C.ar      1 <1>        -0.363900 
      2 H          -2.958000    3.156000   -0.351000 H         1 <1>         0.154300 
      3 C          -2.367000    1.119000    0.027000 C.ar      1 <1>         0.552500 
      4 C          -1.272000    0.273000    0.181000 C.ar      1 <1>        -0.443800 
      5 H          -1.450000   -0.795000    0.300000 H         1 <1>         0.173400 
      6 C           0.048000    0.771000    0.183000 C.ar      1 <1>         0.112500 
      7 C           0.290000    2.154000    0.049000 C.ar      1 <1>        -0.089300 
      8 C          -0.824000    2.983000   -0.167000 C.ar      1 <1>         0.004800 
      9 H          -0.716000    4.059000   -0.292000 H         1 <1>         0.107200 
     10 N           1.597000    2.743000    0.107000 N.am      1 <1>        -0.228800 
     11 C           2.643000    2.244000    0.888000 C.2       1 <1>         0.435500 
     12 C           2.317000    1.074000    1.806000 C.3       1 <1>         0.050100 
     13 H           3.151000    0.946000    2.505000 H         1 <1>         0.065400 
     14 H           1.429000    1.272000    2.416000 H         1 <1>         0.028400 
     15 N           2.203000   -0.137000    0.992000 N.2       1 <1>        -0.409400 
     16 C           1.150000   -0.239000    0.247000 C.2       1 <1>         0.366200 
     17 C           1.044000   -1.444000   -0.624000 C.ar      1 <1>        -0.226600 
     18 C           1.421000   -2.702000   -0.133000 C.ar      1 <1>        -0.050400 
     19 H           1.794000   -2.819000    0.882000 H         1 <1>         0.128700 
     20 C           1.304000   -3.829000   -0.950000 C.ar      1 <1>        -0.123700 
     21 H           1.595000   -4.807000   -0.571000 H         1 <1>         0.109700 
     22 C           0.811000   -3.706000   -2.251000 C.ar      1 <1>        -0.053900 
     23 H           0.722000   -4.586000   -2.885000 H         1 <1>         0.110300 
     24 C           0.431000   -2.454000   -2.738000 C.ar      1 <1>        -0.233500 
     25 H           0.050000   -2.351000   -3.750000 H         1 <1>         0.144100 
     26 C           0.546000   -1.331000   -1.923000 C.ar      1 <1>         0.362100 
     27 F           0.198000   -0.137000   -2.428000 F         1 <1>        -0.245600 
     28 O           3.777000    2.739000    0.886000 O.2       1 <1>        -0.405700 
     29 C           1.834000    3.986000   -0.625000 C.3       1 <1>        -0.083900 
     30 H           2.903000    4.145000   -0.799000 H         1 <1>         0.090200 
     31 H           1.460000    4.826000   -0.032000 H         1 <1>         0.045700 
     32 H           1.340000    3.952000   -1.601000 H         1 <1>         0.074800 
     33 N          -3.649000    0.611000   -0.042000 N.pl3     1 <1>        -0.889300 
     34 H          -3.842000   -0.347000    0.241000 H         1 <1>         0.366600 
     35 H          -4.452000    1.236000   -0.025000 H         1 <1>         0.365300 
@<TRIPOS>BOND
     1    2    1 1    
     2    1    3 ar   
     3    3    4 ar   
     4    4    5 1    
     5    4    6 ar   
     6    6    7 ar   
     7    7    8 ar   
     8    8    9 1    
     9    8    1 ar   
    10    7   10 1    
    11   10   11 am   
    12   11   12 1    
    13   12   13 1    
    14   12   14 1    
    15   12   15 1    
    16   15   16 2    
    17   16    6 1    
    18   16   17 1    
    19   17   18 ar   
    20   18   19 1    
    21   18   20 ar   
    22   20   21 1    
    23   20   22 ar   
    24   22   23 1    
    25   22   24 ar   
    26   24   25 1    
    27   24   26 ar   
    28   26   17 ar   
    29   26   27 1    
    30   11   28 2    
    31   10   29 1    
    32   29   30 1    
    33   29   31 1    
    34   29   32 1    
    35    3   33 1    
    36   33   34 1    
    37   33   35 1    
@<TRIPOS>SUBSTRUCTURE
     1 ****        2 TEMP              0 ****  ****    0 ROOT 
@<TRIPOS>SET
UNITY_3DHIT     STATIC     ATOMS    <user>   **** Atoms matching 3D or FLEX Search
0
@<TRIPOS>UNITY_BOND_ATTR
16 1
S I
