#	Name:			Ro20-2533
#	Creating user name:	jeff
#	Creation time:		Tue Nov  4 15:19:52 2003

#	Modifying user name:	jeff
#	Modification time:	Tue Nov  4 15:19:52 2003

@<TRIPOS>MOLECULE
Ro20-2533
   36    38     1     0     1
SMALL
USER_CHARGES
****
From 3DB ct
@<TRIPOS>ATOM
      1 C          -2.102000    2.513000   -0.208000 C.ar      1 <1>        -0.053300 
      2 H          -2.921000    3.211000   -0.374000 H         1 <1>         0.126000 
      3 C          -2.356000    1.149000   -0.040000 C.ar      1 <1>        -0.069500 
      4 C          -1.276000    0.280000    0.166000 C.ar      1 <1>        -0.147400 
      5 H          -1.473000   -0.786000    0.280000 H         1 <1>         0.159500 
      6 C           0.047000    0.760000    0.203000 C.ar      1 <1>        -0.092000 
      7 C           0.283000    2.140000    0.103000 C.ar      1 <1>         0.262600 
      8 C          -0.794000    3.001000   -0.145000 C.ar      1 <1>        -0.249200 
      9 H          -0.634000    4.073000   -0.254000 H         1 <1>         0.132500 
     10 N           1.545000    2.749000    0.228000 N.am      1 <1>        -0.583800 
     11 H           1.660000    3.686000   -0.150000 H         1 <1>         0.326500 
     12 C           2.628000    2.267000    0.916000 C.2       1 <1>         0.500800 
     13 C           2.407000    1.033000    1.778000 C.3       1 <1>         0.068700 
     14 H           3.296000    0.892000    2.402000 H         1 <1>         0.058100 
     15 H           1.563000    1.179000    2.463000 H         1 <1>         0.031100 
     16 N           2.242000   -0.146000    0.930000 N.2       1 <1>        -0.401700 
     17 C           1.160000   -0.245000    0.227000 C.2       1 <1>         0.309500 
     18 C           1.038000   -1.458000   -0.645000 C.ar      1 <1>        -0.066000 
     19 C           0.528000   -1.364000   -1.946000 C.ar      1 <1>        -0.075300 
     20 H           0.211000   -0.408000   -2.357000 H         1 <1>         0.099200 
     21 C           0.435000   -2.508000   -2.742000 C.ar      1 <1>        -0.104700 
     22 H           0.036000   -2.435000   -3.753000 H         1 <1>         0.100200 
     23 C           0.858000   -3.741000   -2.248000 C.ar      1 <1>        -0.096200 
     24 H           0.785000   -4.631000   -2.871000 H         1 <1>         0.101000 
     25 C           1.381000   -3.836000   -0.958000 C.ar      1 <1>        -0.067900 
     26 H           1.716000   -4.798000   -0.576000 H         1 <1>         0.096000 
     27 C           1.476000   -2.696000   -0.158000 C.ar      1 <1>        -0.125900 
     28 H           1.886000   -2.780000    0.847000 H         1 <1>         0.128800 
     29 O           3.711000    2.861000    0.881000 O.2       1 <1>        -0.420800 
     30 C          -3.768000    0.623000   -0.073000 C.3       1 <1>         0.026900 
     31 H          -4.454000    1.379000    0.330000 H         1 <1>         0.008800 
     32 H          -3.854000   -0.247000    0.590000 H         1 <1>         0.011700 
     33 C          -4.195000    0.239000   -1.481000 C.3       1 <1>        -0.005800 
     34 H          -5.223000   -0.138000   -1.476000 H         1 <1>         0.003800 
     35 H          -3.549000   -0.543000   -1.893000 H         1 <1>         0.001000 
     36 H          -4.153000    1.100000   -2.158000 H         1 <1>         0.006900 
@<TRIPOS>BOND
     1    2    1 1    
     2    1    3 ar   
     3    3    4 ar   
     4    4    5 1    
     5    4    6 ar   
     6    6    7 ar   
     7    7    8 ar   
     8    8    9 1    
     9    8    1 ar   
    10    7   10 1    
    11   10   11 1    
    12   10   12 am   
    13   12   13 1    
    14   13   14 1    
    15   13   15 1    
    16   13   16 1    
    17   16   17 2    
    18   17    6 1    
    19   17   18 1    
    20   18   19 ar   
    21   19   20 1    
    22   19   21 ar   
    23   21   22 1    
    24   21   23 ar   
    25   23   24 1    
    26   23   25 ar   
    27   25   26 1    
    28   25   27 ar   
    29   27   28 1    
    30   27   18 ar   
    31   12   29 2    
    32    3   30 1    
    33   30   31 1    
    34   30   32 1    
    35   30   33 1    
    36   33   34 1    
    37   33   35 1    
    38   33   36 1    
@<TRIPOS>SUBSTRUCTURE
     1 ****        2 TEMP              0 ****  ****    0 ROOT 
@<TRIPOS>SET
UNITY_3DHIT     STATIC     ATOMS    <user>   **** Atoms matching 3D or FLEX Search
0
@<TRIPOS>UNITY_BOND_ATTR
17 1
S I
