#	Name:			Ro20-8552
#	Creating user name:	jeff
#	Creation time:		Tue Nov  4 15:19:53 2003

#	Modifying user name:	jeff
#	Modification time:	Tue Nov  4 15:19:53 2003

@<TRIPOS>MOLECULE
Ro20-8552
   33    35     1     0     1
SMALL
USER_CHARGES
****
From 3DB ct
@<TRIPOS>ATOM
      1 C          -2.079000    2.465000   -0.323000 C.ar      1 <1>         0.213900 
      2 H          -2.878000    3.150000   -0.598000 H         1 <1>         0.067000 
      3 C          -2.366000    1.155000    0.060000 C.ar      1 <1>        -0.527200 
      4 C          -1.337000    0.260000    0.410000 C.ar      1 <1>         0.462800 
      5 C           0.005000    0.710000    0.309000 C.ar      1 <1>        -0.407800 
      6 C           0.283000    2.066000    0.035000 C.ar      1 <1>         0.430200 
      7 C          -0.763000    2.921000   -0.323000 C.ar      1 <1>        -0.360800 
      8 H          -0.572000    3.963000   -0.576000 H         1 <1>         0.157900 
      9 N           1.558000    2.657000    0.113000 N.am      1 <1>        -0.627300 
     10 H           1.696000    3.553000   -0.347000 H         1 <1>         0.332800 
     11 C           2.619000    2.239000    0.877000 C.2       1 <1>         0.527200 
     12 C           2.385000    1.058000    1.811000 C.3       1 <1>         0.026300 
     13 H           3.269000    0.945000    2.447000 H         1 <1>         0.074700 
     14 H           1.535000    1.244000    2.477000 H         1 <1>         0.038700 
     15 N           2.227000   -0.155000    1.009000 N.2       1 <1>        -0.417700 
     16 C           1.140000   -0.277000    0.318000 C.2       1 <1>         0.485200 
     17 C           1.050000   -1.454000   -0.600000 C.ar      1 <1>        -0.239100 
     18 C           1.516000   -2.710000   -0.186000 C.ar      1 <1>        -0.053400 
     19 H           1.945000   -2.853000    0.803000 H         1 <1>         0.123600 
     20 C           1.418000   -3.808000   -1.045000 C.ar      1 <1>        -0.118700 
     21 H           1.780000   -4.783000   -0.723000 H         1 <1>         0.112800 
     22 C           0.851000   -3.660000   -2.312000 C.ar      1 <1>        -0.050800 
     23 H           0.776000   -4.518000   -2.978000 H         1 <1>         0.113800 
     24 C           0.379000   -2.414000   -2.723000 C.ar      1 <1>        -0.240600 
     25 H          -0.061000   -2.291000   -3.709000 H         1 <1>         0.149000 
     26 C           0.476000   -1.319000   -1.867000 C.ar      1 <1>         0.363600 
     27 F           0.040000   -0.129000   -2.307000 F         1 <1>        -0.247800 
     28 O           3.697000    2.841000    0.836000 O.2       1 <1>        -0.420800 
     29 C          -1.676000   -1.137000    0.865000 C.3       1 <1>        -0.314400 
     30 H          -0.872000   -1.575000    1.464000 H         1 <1>         0.089100 
     31 H          -1.882000   -1.782000    0.006000 H         1 <1>         0.087800 
     32 H          -2.549000   -1.135000    1.526000 H         1 <1>         0.077700 
     33 Cl         -4.031000    0.681000    0.057000 Cl        1 <1>         0.092200 
@<TRIPOS>BOND
     1    2    1 1    
     2    1    3 ar   
     3    3    4 ar   
     4    4    5 ar   
     5    5    6 ar   
     6    6    7 ar   
     7    7    8 1    
     8    7    1 ar   
     9    6    9 1    
    10    9   10 1    
    11    9   11 am   
    12   11   12 1    
    13   12   13 1    
    14   12   14 1    
    15   12   15 1    
    16   15   16 2    
    17   16    5 1    
    18   16   17 1    
    19   17   18 ar   
    20   18   19 1    
    21   18   20 ar   
    22   20   21 1    
    23   20   22 ar   
    24   22   23 1    
    25   22   24 ar   
    26   24   25 1    
    27   24   26 ar   
    28   26   17 ar   
    29   26   27 1    
    30   11   28 2    
    31    4   29 1    
    32   29   30 1    
    33   29   31 1    
    34   29   32 1    
    35    3   33 1    
@<TRIPOS>SUBSTRUCTURE
     1 ****        2 TEMP              0 ****  ****    0 ROOT 
@<TRIPOS>SET
UNITY_3DHIT     STATIC     ATOMS    <user>   **** Atoms matching 3D or FLEX Search
0
@<TRIPOS>UNITY_BOND_ATTR
16 1
S I
