#	Name:			Ro20-5397
#	Creating user name:	jeff
#	Creation time:		Tue Nov  4 15:19:52 2003

#	Modifying user name:	jeff
#	Modification time:	Tue Nov  4 15:19:52 2003

@<TRIPOS>MOLECULE
Ro20-5397
   32    34     1     0     1
SMALL
USER_CHARGES
****
From 3DB ct
@<TRIPOS>ATOM
      1 C          -2.103000    2.515000   -0.211000 C.ar      1 <1>        -0.156500 
      2 H          -2.925000    3.207000   -0.385000 H         1 <1>         0.149900 
      3 C          -2.342000    1.153000   -0.036000 C.ar      1 <1>        -0.033500 
      4 C          -1.276000    0.273000    0.166000 C.ar      1 <1>        -0.130400 
      5 H          -1.474000   -0.792000    0.276000 H         1 <1>         0.166200 
      6 C           0.045000    0.757000    0.203000 C.ar      1 <1>        -0.076300 
      7 C           0.282000    2.140000    0.103000 C.ar      1 <1>         0.217000 
      8 C          -0.796000    3.002000   -0.147000 C.ar      1 <1>        -0.171300 
      9 H          -0.634000    4.074000   -0.259000 H         1 <1>         0.123600 
     10 N           1.543000    2.748000    0.228000 N.am      1 <1>        -0.552200 
     11 H           1.659000    3.685000   -0.149000 H         1 <1>         0.319100 
     12 C           2.626000    2.267000    0.916000 C.2       1 <1>         0.489400 
     13 C           2.407000    1.033000    1.778000 C.3       1 <1>         0.070300 
     14 H           3.297000    0.891000    2.401000 H         1 <1>         0.062000 
     15 H           1.563000    1.178000    2.463000 H         1 <1>         0.032500 
     16 N           2.242000   -0.146000    0.930000 N.2       1 <1>        -0.413800 
     17 C           1.160000   -0.245000    0.227000 C.2       1 <1>         0.334000 
     18 C           1.039000   -1.459000   -0.645000 C.ar      1 <1>        -0.071700 
     19 C           0.529000   -1.363000   -1.946000 C.ar      1 <1>        -0.084200 
     20 H           0.213000   -0.407000   -2.357000 H         1 <1>         0.093500 
     21 C           0.434000   -2.506000   -2.742000 C.ar      1 <1>        -0.100200 
     22 H           0.035000   -2.433000   -3.752000 H         1 <1>         0.103500 
     23 C           0.855000   -3.741000   -2.247000 C.ar      1 <1>        -0.094000 
     24 H           0.781000   -4.630000   -2.871000 H         1 <1>         0.101500 
     25 C           1.379000   -3.836000   -0.958000 C.ar      1 <1>        -0.064800 
     26 H           1.713000   -4.799000   -0.576000 H         1 <1>         0.095500 
     27 C           1.477000   -2.696000   -0.158000 C.ar      1 <1>        -0.118000 
     28 H           1.887000   -2.780000    0.847000 H         1 <1>         0.125700 
     29 O           3.708000    2.863000    0.882000 O.2       1 <1>        -0.411000 
     30 C          -3.721000    0.619000   -0.084000 C.2       1 <1>         0.331400 
     31 H          -4.525000    1.353000   -0.263000 H         1 <1>         0.024300 
     32 O          -3.971000   -0.576000    0.066000 O.2       1 <1>        -0.361500 
@<TRIPOS>BOND
     1    2    1 1    
     2    1    3 ar   
     3    3    4 ar   
     4    4    5 1    
     5    4    6 ar   
     6    6    7 ar   
     7    7    8 ar   
     8    8    9 1    
     9    8    1 ar   
    10    7   10 1    
    11   10   11 1    
    12   10   12 am   
    13   12   13 1    
    14   13   14 1    
    15   13   15 1    
    16   13   16 1    
    17   16   17 2    
    18   17    6 1    
    19   17   18 1    
    20   18   19 ar   
    21   19   20 1    
    22   19   21 ar   
    23   21   22 1    
    24   21   23 ar   
    25   23   24 1    
    26   23   25 ar   
    27   25   26 1    
    28   25   27 ar   
    29   27   28 1    
    30   27   18 ar   
    31   12   29 2    
    32    3   30 1    
    33   30   31 1    
    34   30   32 2    
@<TRIPOS>SUBSTRUCTURE
     1 ****        2 TEMP              0 ****  ****    0 ROOT 
@<TRIPOS>SET
UNITY_3DHIT     STATIC     ATOMS    <user>   **** Atoms matching 3D or FLEX Search
0
@<TRIPOS>UNITY_BOND_ATTR
17 1
S I
