#	Name:			Ro21-5205
#	Creating user name:	jeff
#	Creation time:		Tue Nov  4 15:19:57 2003

#	Modifying user name:	jeff
#	Modification time:	Tue Nov  4 15:19:57 2003

@<TRIPOS>MOLECULE
Ro21-5205
   39    42     1     0     1
SMALL
USER_CHARGES
****
From 3DB ct
@<TRIPOS>ATOM
      1 C           0.254000    2.167000    0.067000 C.ar      1 <1>         0.119600 
      2 C           0.045000    0.779000    0.202000 C.ar      1 <1>        -0.020600 
      3 C           1.167000   -0.223000    0.227000 C.2       1 <1>         0.293000 
      4 N           2.249000   -0.122000    0.929000 N.2       1 <1>        -0.376300 
      5 C           2.431000    1.043000    1.781000 C.3       1 <1>         0.081500 
      6 H           3.312000    0.874000    2.405000 H         1 <1>         0.084300 
      7 H           1.596000    1.162000    2.483000 H         1 <1>         0.046700 
      8 C           2.598000    2.240000    0.927000 C.ar      1 <1>        -0.156300 
      9 N           1.548000    2.736000    0.180000 N.pl3     1 <1>        -0.043400 
     10 C           1.993000    3.917000   -0.369000 C.ar      1 <1>         0.080900 
     11 H           1.366000    4.542000   -0.993000 H         1 <1>         0.181300 
     12 N           3.256000    4.156000   -0.090000 N.ar      1 <1>        -0.374500 
     13 C           3.664000    3.107000    0.723000 C.ar      1 <1>         0.071000 
     14 C           5.020000    3.007000    1.276000 C.2       1 <1>         0.590400 
     15 O           5.912000    3.828000    1.077000 O.2       1 <1>        -0.412500 
     16 O           5.178000    1.885000    2.045000 O.3       1 <1>        -0.296000 
     17 C           6.482000    1.734000    2.613000 C.3       1 <1>        -0.041300 
     18 H           6.489000    0.814000    3.202000 H         1 <1>         0.077400 
     19 H           6.709000    2.574000    3.277000 H         1 <1>         0.059700 
     20 H           7.234000    1.648000    1.823000 H         1 <1>         0.068100 
     21 C           1.046000   -1.435000   -0.638000 C.ar      1 <1>        -0.153100 
     22 C           1.482000   -2.672000   -0.149000 C.ar      1 <1>        -0.077800 
     23 H           1.895000   -2.755000    0.855000 H         1 <1>         0.138200 
     24 C           1.380000   -3.813000   -0.948000 C.ar      1 <1>        -0.122300 
     25 H           1.713000   -4.777000   -0.565000 H         1 <1>         0.112600 
     26 C           0.854000   -3.721000   -2.238000 C.ar      1 <1>        -0.039500 
     27 H           0.777000   -4.612000   -2.860000 H         1 <1>         0.112500 
     28 C           0.435000   -2.487000   -2.735000 C.ar      1 <1>        -0.258400 
     29 H           0.036000   -2.406000   -3.742000 H         1 <1>         0.156400 
     30 C           0.537000   -1.350000   -1.937000 C.ar      1 <1>         0.352900 
     31 F           0.155000   -0.171000   -2.451000 F         1 <1>        -0.253300 
     32 C          -1.268000    0.276000    0.196000 C.ar      1 <1>         0.096600 
     33 H          -1.455000   -0.787000    0.326000 H         1 <1>         0.075800 
     34 C          -2.349000    1.135000    0.004000 C.ar      1 <1>        -0.410900 
     35 C          -2.142000    2.497000   -0.186000 C.ar      1 <1>         0.201400 
     36 H          -2.983000    3.168000   -0.342000 H         1 <1>         0.059400 
     37 C          -0.845000    3.015000   -0.157000 C.ar      1 <1>        -0.258500 
     38 H          -0.729000    4.092000   -0.264000 H         1 <1>         0.144800 
     39 Cl         -3.950000    0.502000   -0.017000 Cl        1 <1>         0.090400 
@<TRIPOS>BOND
     1    1    2 ar   
     2    2    3 1    
     3    3    4 2    
     4    4    5 1    
     5    5    6 1    
     6    5    7 1    
     7    5    8 1    
     8    8    9 ar   
     9    9    1 1    
    10    9   10 ar   
    11   10   11 1    
    12   10   12 ar   
    13   12   13 ar   
    14   13    8 ar   
    15   13   14 1    
    16   14   15 2    
    17   14   16 1    
    18   16   17 1    
    19   17   18 1    
    20   17   19 1    
    21   17   20 1    
    22    3   21 1    
    23   21   22 ar   
    24   22   23 1    
    25   22   24 ar   
    26   24   25 1    
    27   24   26 ar   
    28   26   27 1    
    29   26   28 ar   
    30   28   29 1    
    31   28   30 ar   
    32   30   21 ar   
    33   30   31 1    
    34    2   32 ar   
    35   32   33 1    
    36   32   34 ar   
    37   34   35 ar   
    38   35   36 1    
    39   35   37 ar   
    40   37   38 1    
    41   37    1 ar   
    42   34   39 1    
@<TRIPOS>SUBSTRUCTURE
     1 ****        1 TEMP              0 ****  ****    0 ROOT 
@<TRIPOS>SET
UNITY_3DHIT     STATIC     ATOMS    <user>   **** Atoms matching 3D or FLEX Search
0
@<TRIPOS>UNITY_BOND_ATTR
3 1
S I
