#	Name:			Ro21-8137
#	Creating user name:	jeff
#	Creation time:		Tue Nov  4 15:19:57 2003

#	Modifying user name:	jeff
#	Modification time:	Tue Nov  4 15:19:57 2003

@<TRIPOS>MOLECULE
Ro21-8137
   37    40     1     0     1
SMALL
USER_CHARGES
****
From 3DB ct
@<TRIPOS>ATOM
      1 C           0.256000    2.160000    0.061000 C.ar      1 <1>         0.132500 
      2 C           0.044000    0.775000    0.206000 C.ar      1 <1>        -0.039200 
      3 C           1.166000   -0.222000    0.226000 C.2       1 <1>         0.278000 
      4 N           2.250000   -0.117000    0.922000 N.2       1 <1>        -0.381000 
      5 C           2.436000    1.041000    1.784000 C.3       1 <1>         0.118900 
      6 H           3.329000    0.854000    2.384000 H         1 <1>         0.062200 
      7 H           1.612000    1.147000    2.500000 H         1 <1>         0.043700 
      8 C           2.591000    2.255000    0.950000 C.ar      1 <1>        -0.198300 
      9 N           1.550000    2.728000    0.173000 N.pl3     1 <1>        -0.039900 
     10 C           2.003000    3.886000   -0.416000 C.ar      1 <1>         0.057800 
     11 H           1.387000    4.477000   -1.083000 H         1 <1>         0.187700 
     12 N           3.257000    4.145000   -0.117000 N.ar      1 <1>        -0.355100 
     13 C           3.639000    3.150000    0.770000 C.ar      1 <1>         0.101500 
     14 C           4.977000    3.141000    1.371000 C.2       1 <1>         0.575100 
     15 O           5.825000    4.001000    1.128000 O.2       1 <1>        -0.432000 
     16 N           5.225000    2.155000    2.280000 N.am      1 <1>        -0.731700 
     17 H           6.124000    2.111000    2.743000 H         1 <1>         0.316600 
     18 H           4.519000    1.506000    2.599000 H         1 <1>         0.314700 
     19 C           1.045000   -1.434000   -0.640000 C.ar      1 <1>        -0.151200 
     20 C           1.481000   -2.671000   -0.150000 C.ar      1 <1>        -0.060400 
     21 H           1.893000   -2.754000    0.854000 H         1 <1>         0.131300 
     22 C           1.379000   -3.812000   -0.950000 C.ar      1 <1>        -0.138600 
     23 H           1.712000   -4.776000   -0.567000 H         1 <1>         0.117100 
     24 C           0.854000   -3.720000   -2.240000 C.ar      1 <1>        -0.029400 
     25 H           0.777000   -4.611000   -2.861000 H         1 <1>         0.112500 
     26 C           0.434000   -2.486000   -2.736000 C.ar      1 <1>        -0.263700 
     27 H           0.035000   -2.405000   -3.744000 H         1 <1>         0.158700 
     28 C           0.536000   -1.349000   -1.938000 C.ar      1 <1>         0.352600 
     29 F           0.154000   -0.170000   -2.453000 F         1 <1>        -0.249700 
     30 C          -1.270000    0.275000    0.205000 C.ar      1 <1>         0.119100 
     31 H          -1.458000   -0.788000    0.341000 H         1 <1>         0.071500 
     32 C          -2.349000    1.134000    0.007000 C.ar      1 <1>        -0.426900 
     33 C          -2.138000    2.494000   -0.195000 C.ar      1 <1>         0.213000 
     34 H          -2.978000    3.167000   -0.356000 H         1 <1>         0.058500 
     35 C          -0.840000    3.010000   -0.170000 C.ar      1 <1>        -0.265400 
     36 H          -0.720000    4.086000   -0.286000 H         1 <1>         0.146500 
     37 Cl         -3.951000    0.506000   -0.009000 Cl        1 <1>         0.092700 
@<TRIPOS>BOND
     1    1    2 ar   
     2    2    3 1    
     3    3    4 2    
     4    4    5 1    
     5    5    6 1    
     6    5    7 1    
     7    5    8 1    
     8    8    9 ar   
     9    9    1 1    
    10    9   10 ar   
    11   10   11 1    
    12   10   12 ar   
    13   12   13 ar   
    14   13    8 ar   
    15   13   14 1    
    16   14   15 2    
    17   14   16 am   
    18   16   17 1    
    19   16   18 1    
    20    3   19 1    
    21   19   20 ar   
    22   20   21 1    
    23   20   22 ar   
    24   22   23 1    
    25   22   24 ar   
    26   24   25 1    
    27   24   26 ar   
    28   26   27 1    
    29   26   28 ar   
    30   28   19 ar   
    31   28   29 1    
    32    2   30 ar   
    33   30   31 1    
    34   30   32 ar   
    35   32   33 ar   
    36   33   34 1    
    37   33   35 ar   
    38   35   36 1    
    39   35    1 ar   
    40   32   37 1    
@<TRIPOS>SUBSTRUCTURE
     1 ****        1 TEMP              0 ****  ****    0 ROOT 
@<TRIPOS>SET
UNITY_3DHIT     STATIC     ATOMS    <user>   **** Atoms matching 3D or FLEX Search
0
@<TRIPOS>UNITY_BOND_ATTR
3 1
S I
