#	Name:			Ro21-8482
#	Creating user name:	jeff
#	Creation time:		Tue Nov  4 15:19:57 2003

#	Modifying user name:	jeff
#	Modification time:	Tue Nov  4 15:19:58 2003

@<TRIPOS>MOLECULE
Ro21-8482
   48    51     1     0     1
SMALL
USER_CHARGES
****
From 3DB ct
@<TRIPOS>ATOM
      1 C           0.260000    2.174000    0.058000 C.ar      1 <1>         0.347900 
      2 C           0.045000    0.783000    0.153000 C.ar      1 <1>        -0.104800 
      3 C           1.164000   -0.216000    0.190000 C.2       1 <1>         0.196600 
      4 N           2.223000   -0.127000    0.929000 N.2       1 <1>        -0.415200 
      5 C           2.371000    1.038000    1.794000 C.3       1 <1>         0.212400 
      6 H           3.226000    0.863000    2.451000 H         1 <1>         0.047900 
      7 H           1.509000    1.160000    2.462000 H         1 <1>         0.033500 
      8 C           2.580000    2.230000    0.941000 C.ar      1 <1>        -0.291700 
      9 N           1.571000    2.723000    0.128000 N.pl3     1 <1>        -0.166700 
     10 C           2.106000    3.824000   -0.536000 C.ar      1 <1>         0.324300 
     11 N           3.346000    4.063000   -0.135000 N.ar      1 <1>        -0.389400 
     12 C           3.659000    3.080000    0.787000 C.ar      1 <1>         0.116600 
     13 C           4.966000    3.021000    1.451000 C.2       1 <1>         0.615200 
     14 O           5.887000    3.813000    1.263000 O.2       1 <1>        -0.438400 
     15 N           5.090000    1.979000    2.322000 N.am      1 <1>        -0.773800 
     16 H           5.944000    1.827000    2.842000 H         1 <1>         0.323800 
     17 H           4.318000    1.336000    2.460000 H         1 <1>         0.337800 
     18 C           1.451000    4.547000   -1.687000 C.3       1 <1>        -0.120600 
     19 H           0.528000    5.021000   -1.331000 H         1 <1>         0.106000 
     20 H           1.130000    3.801000   -2.426000 H         1 <1>         0.105100 
     21 N           2.331000    5.555000   -2.326000 N.3       1 <1>        -0.181000 
     22 C           3.442000    4.915000   -3.046000 C.3       1 <1>        -0.300500 
     23 H           4.054000    5.671000   -3.550000 H         1 <1>         0.115600 
     24 H           3.091000    4.200000   -3.799000 H         1 <1>         0.140300 
     25 H           4.114000    4.396000   -2.356000 H         1 <1>         0.130400 
     26 C           1.541000    6.356000   -3.272000 C.3       1 <1>        -0.220000 
     27 H           2.164000    7.128000   -3.736000 H         1 <1>         0.117700 
     28 H           0.734000    6.880000   -2.748000 H         1 <1>         0.094500 
     29 H           1.099000    5.743000   -4.066000 H         1 <1>         0.066400 
     30 C           1.053000   -1.421000   -0.681000 C.ar      1 <1>         0.248000 
     31 C           1.496000   -2.642000   -0.152000 C.ar      1 <1>        -0.260300 
     32 H           1.908000   -2.688000    0.855000 H         1 <1>         0.159800 
     33 C           1.401000   -3.809000   -0.910000 C.ar      1 <1>         0.003400 
     34 H           1.740000   -4.757000   -0.494000 H         1 <1>         0.097600 
     35 C           0.874000   -3.761000   -2.199000 C.ar      1 <1>        -0.169900 
     36 H           0.800000   -4.672000   -2.791000 H         1 <1>         0.125200 
     37 C           0.448000   -2.545000   -2.737000 C.ar      1 <1>         0.049200 
     38 H           0.053000   -2.522000   -3.751000 H         1 <1>         0.092200 
     39 C           0.540000   -1.369000   -1.985000 C.ar      1 <1>        -0.299500 
     40 Cl          0.053000    0.106000   -2.744000 Cl        1 <1>        -0.004800 
     41 C          -1.268000    0.281000    0.132000 C.ar      1 <1>         0.138600 
     42 H          -1.456000   -0.787000    0.213000 H         1 <1>         0.075500 
     43 C          -2.349000    1.150000    0.009000 C.ar      1 <1>        -0.468300 
     44 C          -2.142000    2.521000   -0.087000 C.ar      1 <1>         0.237100 
     45 H          -2.985000    3.204000   -0.168000 H         1 <1>         0.064900 
     46 C          -0.843000    3.034000   -0.056000 C.ar      1 <1>        -0.381300 
     47 H          -0.729000    4.114000   -0.068000 H         1 <1>         0.162600 
     48 Cl         -3.952000    0.523000   -0.020000 Cl        1 <1>         0.099900 
@<TRIPOS>BOND
     1    1    2 ar   
     2    2    3 1    
     3    3    4 2    
     4    4    5 1    
     5    5    6 1    
     6    5    7 1    
     7    5    8 1    
     8    8    9 ar   
     9    9    1 1    
    10    9   10 ar   
    11   10   11 ar   
    12   11   12 ar   
    13   12    8 ar   
    14   12   13 1    
    15   13   14 2    
    16   13   15 am   
    17   15   16 1    
    18   15   17 1    
    19   10   18 1    
    20   18   19 1    
    21   18   20 1    
    22   18   21 1    
    23   21   22 1    
    24   22   23 1    
    25   22   24 1    
    26   22   25 1    
    27   21   26 1    
    28   26   27 1    
    29   26   28 1    
    30   26   29 1    
    31    3   30 1    
    32   30   31 ar   
    33   31   32 1    
    34   31   33 ar   
    35   33   34 1    
    36   33   35 ar   
    37   35   36 1    
    38   35   37 ar   
    39   37   38 1    
    40   37   39 ar   
    41   39   30 ar   
    42   39   40 1    
    43    2   41 ar   
    44   41   42 1    
    45   41   43 ar   
    46   43   44 ar   
    47   44   45 1    
    48   44   46 ar   
    49   46   47 1    
    50   46    1 ar   
    51   43   48 1    
@<TRIPOS>SUBSTRUCTURE
     1 ****        1 TEMP              0 ****  ****    0 ROOT 
@<TRIPOS>SET
UNITY_3DHIT     STATIC     ATOMS    <user>   **** Atoms matching 3D or FLEX Search
0
@<TRIPOS>UNITY_BOND_ATTR
3 1
S I
