#	Name:			Ro22-1251
#	Creating user name:	jeff
#	Creation time:		Tue Nov  4 15:19:59 2003

#	Modifying user name:	jeff
#	Modification time:	Tue Nov  4 15:19:59 2003

@<TRIPOS>MOLECULE
Ro22-1251
   37    40     1     0     1
SMALL
USER_CHARGES
****
From 3DB ct
@<TRIPOS>ATOM
      1 C           0.278000    2.169000    0.040000 C.ar      1 <1>        -0.136900 
      2 C           0.032000    0.780000    0.133000 C.ar      1 <1>         0.121200 
      3 C           1.142000   -0.232000    0.211000 C.2       1 <1>         0.114600 
      4 N           2.189000   -0.135000    0.967000 N.2       1 <1>        -0.370700 
      5 C           2.368000    1.057000    1.794000 C.3       1 <1>         0.156800 
      6 H           3.231000    0.882000    2.449000 H         1 <1>         0.044700 
      7 H           1.518000    1.211000    2.472000 H         1 <1>         0.019400 
      8 C           2.609000    2.264000    0.949000 C.ar      1 <1>        -0.427900 
      9 C           1.630000    2.760000    0.107000 C.ar      1 <1>         0.479300 
     10 N           1.837000    3.851000   -0.672000 N.ar      1 <1>        -0.589900 
     11 C           3.048000    4.435000   -0.618000 C.ar      1 <1>         0.662000 
     12 N           4.054000    4.023000    0.173000 N.ar      1 <1>        -0.587400 
     13 C           3.811000    2.938000    0.938000 C.ar      1 <1>         0.346200 
     14 H           4.642000    2.617000    1.562000 H         1 <1>         0.096300 
     15 C           3.272000    5.654000   -1.457000 C.3       1 <1>        -0.288900 
     16 H           2.684000    5.600000   -2.378000 H         1 <1>         0.086400 
     17 H           4.328000    5.746000   -1.730000 H         1 <1>         0.091400 
     18 H           2.973000    6.545000   -0.899000 H         1 <1>         0.088800 
     19 C           1.044000   -1.453000   -0.653000 C.ar      1 <1>         0.114100 
     20 C           0.544000   -1.375000   -1.959000 C.ar      1 <1>        -0.178400 
     21 H           0.218000   -0.427000   -2.382000 H         1 <1>         0.111000 
     22 C           0.471000   -2.525000   -2.748000 C.ar      1 <1>        -0.066900 
     23 H           0.080000   -2.465000   -3.762000 H         1 <1>         0.100900 
     24 C           0.904000   -3.750000   -2.241000 C.ar      1 <1>        -0.127300 
     25 H           0.848000   -4.645000   -2.858000 H         1 <1>         0.109900 
     26 C           1.417000   -3.829000   -0.946000 C.ar      1 <1>        -0.066200 
     27 H           1.760000   -4.785000   -0.553000 H         1 <1>         0.100700 
     28 C           1.492000   -2.682000   -0.153000 C.ar      1 <1>        -0.164300 
     29 H           1.895000   -2.755000    0.855000 H         1 <1>         0.131900 
     30 C          -1.288000    0.287000    0.146000 C.ar      1 <1>         0.056400 
     31 H          -1.479000   -0.779000    0.251000 H         1 <1>         0.071300 
     32 C          -2.365000    1.160000    0.025000 C.ar      1 <1>        -0.382000 
     33 C          -2.148000    2.525000   -0.101000 C.ar      1 <1>         0.122800 
     34 H          -2.983000    3.215000   -0.197000 H         1 <1>         0.063100 
     35 C          -0.841000    3.021000   -0.090000 C.ar      1 <1>        -0.118700 
     36 H          -0.699000    4.100000   -0.168000 H         1 <1>         0.133000 
     37 Cl         -3.972000    0.544000    0.030000 Cl        1 <1>         0.083400 
@<TRIPOS>BOND
     1    1    2 ar   
     2    2    3 1    
     3    3    4 2    
     4    4    5 1    
     5    5    6 1    
     6    5    7 1    
     7    5    8 1    
     8    8    9 ar   
     9    9    1 1    
    10    9   10 ar   
    11   10   11 ar   
    12   11   12 ar   
    13   12   13 ar   
    14   13   14 1    
    15   13    8 ar   
    16   11   15 1    
    17   15   16 1    
    18   15   17 1    
    19   15   18 1    
    20    3   19 1    
    21   19   20 ar   
    22   20   21 1    
    23   20   22 ar   
    24   22   23 1    
    25   22   24 ar   
    26   24   25 1    
    27   24   26 ar   
    28   26   27 1    
    29   26   28 ar   
    30   28   29 1    
    31   28   19 ar   
    32    2   30 ar   
    33   30   31 1    
    34   30   32 ar   
    35   32   33 ar   
    36   33   34 1    
    37   33   35 ar   
    38   35   36 1    
    39   35    1 ar   
    40   32   37 1    
@<TRIPOS>SUBSTRUCTURE
     1 ****        1 TEMP              0 ****  ****    0 ROOT 
@<TRIPOS>SET
UNITY_3DHIT     STATIC     ATOMS    <user>   **** Atoms matching 3D or FLEX Search
0
@<TRIPOS>UNITY_BOND_ATTR
3 1
S I
