#	Name:			Ro22-0780
#	Creating user name:	jeff
#	Creation time:		Tue Nov  4 15:19:59 2003

#	Modifying user name:	jeff
#	Modification time:	Tue Nov  4 15:19:59 2003

@<TRIPOS>MOLECULE
Ro22-0780
   32    35     1     0     1
SMALL
USER_CHARGES
****
From 3DB ct
@<TRIPOS>ATOM
      1 C           0.037000    2.155000   -0.035000 C.ar      1 <1>        -0.027300 
      2 C          -0.106000    0.758000    0.111000 C.ar      1 <1>         0.018400 
      3 C           1.066000   -0.194000    0.166000 C.2       1 <1>         0.213600 
      4 N           2.154000   -0.051000    0.854000 N.2       1 <1>        -0.445700 
      5 C           2.392000    1.132000    1.686000 C.3       1 <1>         0.250100 
      6 H           3.355000    1.005000    2.193000 H         1 <1>         0.040900 
      7 H           1.631000    1.210000    2.472000 H         1 <1>        -0.017100 
      8 C           2.417000    2.354000    0.844000 C.ar      1 <1>         0.014500 
      9 C           1.337000    2.799000    0.053000 C.ar      1 <1>         0.075000 
     10 N           1.684000    3.941000   -0.560000 N.ar      1 <1>        -0.221100 
     11 N           2.958000    4.114000   -0.132000 N.pl3     1 <1>        -0.072500 
     12 H           3.517000    4.911000   -0.438000 H         1 <1>         0.325400 
     13 N           3.458000    3.191000    0.725000 N.ar      1 <1>        -0.223500 
     14 C           0.980000   -1.437000   -0.673000 C.ar      1 <1>         0.089700 
     15 C           0.483000   -1.390000   -1.982000 C.ar      1 <1>        -0.195800 
     16 H           0.151000   -0.454000   -2.425000 H         1 <1>         0.123500 
     17 C           0.422000   -2.557000   -2.745000 C.ar      1 <1>        -0.064900 
     18 H           0.033000   -2.522000   -3.762000 H         1 <1>         0.099200 
     19 C           0.864000   -3.768000   -2.211000 C.ar      1 <1>        -0.118600 
     20 H           0.815000   -4.676000   -2.809000 H         1 <1>         0.105000 
     21 C           1.373000   -3.815000   -0.913000 C.ar      1 <1>        -0.060500 
     22 H           1.723000   -4.759000   -0.499000 H         1 <1>         0.097000 
     23 C           1.437000   -2.651000   -0.145000 C.ar      1 <1>        -0.167200 
     24 H           1.837000   -2.698000    0.866000 H         1 <1>         0.135100 
     25 C          -1.396000    0.198000    0.151000 C.ar      1 <1>         0.073100 
     26 H          -1.530000   -0.872000    0.291000 H         1 <1>         0.071200 
     27 C          -2.522000    1.008000    0.004000 C.ar      1 <1>        -0.370500 
     28 C          -2.384000    2.379000   -0.179000 C.ar      1 <1>         0.103400 
     29 H          -3.260000    3.014000   -0.297000 H         1 <1>         0.068200 
     30 C          -1.111000    2.951000   -0.194000 C.ar      1 <1>        -0.124300 
     31 H          -1.022000    4.031000   -0.309000 H         1 <1>         0.127800 
     32 Cl         -4.092000    0.303000    0.042000 Cl        1 <1>         0.077800 
@<TRIPOS>BOND
     1    1    2 ar   
     2    2    3 1    
     3    3    4 2    
     4    4    5 1    
     5    5    6 1    
     6    5    7 1    
     7    5    8 1    
     8    8    9 ar   
     9    9    1 1    
    10    9   10 ar   
    11   10   11 ar   
    12   11   12 1    
    13   11   13 ar   
    14   13    8 ar   
    15    3   14 1    
    16   14   15 ar   
    17   15   16 1    
    18   15   17 ar   
    19   17   18 1    
    20   17   19 ar   
    21   19   20 1    
    22   19   21 ar   
    23   21   22 1    
    24   21   23 ar   
    25   23   24 1    
    26   23   14 ar   
    27    2   25 ar   
    28   25   26 1    
    29   25   27 ar   
    30   27   28 ar   
    31   28   29 1    
    32   28   30 ar   
    33   30   31 1    
    34   30    1 ar   
    35   27   32 1    
@<TRIPOS>SUBSTRUCTURE
     1 ****        1 TEMP              0 ****  ****    0 ROOT 
@<TRIPOS>SET
UNITY_3DHIT     STATIC     ATOMS    <user>   **** Atoms matching 3D or FLEX Search
0
@<TRIPOS>UNITY_BOND_ATTR
3 1
S I
