#	Name:			Ro22-4683
#	Creating user name:	jeff
#	Creation time:		Tue Nov  4 15:19:54 2003

#	Modifying user name:	jeff
#	Modification time:	Tue Nov  4 15:19:54 2003

@<TRIPOS>MOLECULE
Ro22-4683
   44    46     1     0     1
SMALL
USER_CHARGES
****
From 3DB ct
@<TRIPOS>ATOM
      1 C          -2.119000    2.541000    0.039000 C.ar      1 <1>        -0.164400 
      2 H          -2.932000    3.263000    0.016000 H         1 <1>         0.177400 
      3 C          -2.364000    1.170000    0.130000 C.ar      1 <1>         0.068000 
      4 C          -1.298000    0.267000    0.191000 C.ar      1 <1>        -0.271100 
      5 H          -1.488000   -0.797000    0.299000 H         1 <1>         0.205000 
      6 C           0.023000    0.748000    0.141000 C.ar      1 <1>         0.196000 
      7 C           0.293000    2.127000    0.010000 C.ar      1 <1>        -0.028200 
      8 C          -0.800000    3.008000   -0.010000 C.ar      1 <1>        -0.060500 
      9 H          -0.649000    4.085000   -0.031000 H         1 <1>         0.117700 
     10 N           1.632000    2.647000   -0.049000 N.am      1 <1>        -0.364900 
     11 C           2.564000    2.279000    0.944000 C.2       1 <1>         0.417000 
     12 C           2.178000    1.118000    1.859000 C.3       1 <1>         0.097900 
     13 H           2.961000    1.004000    2.617000 H         1 <1>         0.057500 
     14 H           1.248000    1.315000    2.403000 H         1 <1>         0.034500 
     15 N           2.142000   -0.112000    1.052000 N.2       1 <1>        -0.382200 
     16 C           1.128000   -0.246000    0.257000 C.2       1 <1>         0.122400 
     17 C           1.067000   -1.451000   -0.611000 C.ar      1 <1>         0.265600 
     18 C           1.444000   -2.679000   -0.049000 C.ar      1 <1>        -0.269000 
     19 H           1.768000   -2.743000    0.988000 H         1 <1>         0.162300 
     20 C           1.392000   -3.842000   -0.818000 C.ar      1 <1>         0.020100 
     21 H           1.682000   -4.797000   -0.382000 H         1 <1>         0.095600 
     22 C           0.963000   -3.783000   -2.143000 C.ar      1 <1>        -0.182700 
     23 H           0.923000   -4.691000   -2.743000 H         1 <1>         0.124800 
     24 C           0.588000   -2.561000   -2.705000 C.ar      1 <1>         0.102700 
     25 H           0.263000   -2.530000   -3.743000 H         1 <1>         0.079400 
     26 C           0.637000   -1.390000   -1.942000 C.ar      1 <1>        -0.368400 
     27 Cl          0.213000    0.095000   -2.718000 Cl        1 <1>         0.021300 
     28 O           3.654000    2.840000    1.109000 O.2       1 <1>        -0.386500 
     29 C           2.018000    3.645000   -1.123000 C.3       1 <1>         0.515000 
     30 C           3.408000    3.276000   -1.717000 C.3       1 <1>        -0.224800 
     31 H           3.647000    3.895000   -2.590000 H         1 <1>         0.052000 
     32 H           3.428000    2.226000   -2.033000 H         1 <1>         0.044700 
     33 H           4.228000    3.428000   -1.012000 H         1 <1>         0.081300 
     34 C           1.077000    3.649000   -2.361000 C.3       1 <1>        -0.585100 
     35 H           1.506000    4.239000   -3.180000 H         1 <1>         0.146400 
     36 H           0.105000    4.105000   -2.158000 H         1 <1>         0.127800 
     37 H           0.914000    2.634000   -2.740000 H         1 <1>         0.208900 
     38 C           2.086000    5.072000   -0.550000 C.3       1 <1>        -0.275200 
     39 H           2.364000    5.796000   -1.325000 H         1 <1>         0.080200 
     40 H           2.826000    5.154000    0.254000 H         1 <1>         0.068900 
     41 H           1.124000    5.385000   -0.134000 H         1 <1>         0.060800 
     42 N          -3.747000    0.676000    0.186000 N.2       1 <1>         0.556300 
     43 O          -3.931000   -0.553000    0.258000 O.2       1 <1>        -0.373200 
     44 O          -4.673000    1.508000    0.158000 O.3       1 <1>        -0.371200 
@<TRIPOS>BOND
     1    2    1 1    
     2    1    3 ar   
     3    3    4 ar   
     4    4    5 1    
     5    4    6 ar   
     6    6    7 ar   
     7    7    8 ar   
     8    8    9 1    
     9    8    1 ar   
    10    7   10 1    
    11   10   11 am   
    12   11   12 1    
    13   12   13 1    
    14   12   14 1    
    15   12   15 1    
    16   15   16 2    
    17   16    6 1    
    18   16   17 1    
    19   17   18 ar   
    20   18   19 1    
    21   18   20 ar   
    22   20   21 1    
    23   20   22 ar   
    24   22   23 1    
    25   22   24 ar   
    26   24   25 1    
    27   24   26 ar   
    28   26   17 ar   
    29   26   27 1    
    30   11   28 2    
    31   10   29 1    
    32   29   30 1    
    33   30   31 1    
    34   30   32 1    
    35   30   33 1    
    36   29   34 1    
    37   34   35 1    
    38   34   36 1    
    39   34   37 1    
    40   29   38 1    
    41   38   39 1    
    42   38   40 1    
    43   38   41 1    
    44    3   42 1    
    45   42   43 2    
    46   42   44 1    
@<TRIPOS>SUBSTRUCTURE
     1 ****        2 TEMP              0 ****  ****    0 ROOT 
@<TRIPOS>SET
UNITY_3DHIT     STATIC     ATOMS    <user>   **** Atoms matching 3D or FLEX Search
0
@<TRIPOS>UNITY_ATOM_ATTR
42 1
AtomExpr +1
44 1
AtomExpr -1
@<TRIPOS>UNITY_BOND_ATTR
16 1
S I
