#	Name:			Ro22-2466
#	Creating user name:	jeff
#	Creation time:		Tue Nov  4 15:19:59 2003

#	Modifying user name:	jeff
#	Modification time:	Tue Nov  4 15:19:59 2003

@<TRIPOS>MOLECULE
Ro22-2466
   32    35     1     0     1
SMALL
USER_CHARGES
****
From 3DB ct
@<TRIPOS>ATOM
      1 C           0.037000    2.150000   -0.020000 C.ar      1 <1>         0.014300 
      2 C          -0.097000    0.751000    0.118000 C.ar      1 <1>        -0.034500 
      3 C           1.080000   -0.194000    0.175000 C.2       1 <1>         0.316200 
      4 N           2.178000   -0.042000    0.843000 N.2       1 <1>        -0.455900 
      5 C           2.418000    1.137000    1.678000 C.3       1 <1>         0.235300 
      6 H           3.388000    1.014000    2.173000 H         1 <1>         0.046800 
      7 H           1.667000    1.205000    2.474000 H         1 <1>        -0.016700 
      8 C           2.424000    2.364000    0.845000 C.ar      1 <1>         0.022800 
      9 C           1.333000    2.804000    0.067000 C.ar      1 <1>         0.064100 
     10 N           1.666000    3.954000   -0.541000 N.ar      1 <1>        -0.220200 
     11 N           2.941000    4.136000   -0.122000 N.pl3     1 <1>        -0.069500 
     12 H           3.490000    4.940000   -0.428000 H         1 <1>         0.325100 
     13 N           3.456000    3.211000    0.723000 N.ar      1 <1>        -0.228000 
     14 C           0.985000   -1.432000   -0.655000 C.ar      1 <1>        -0.139600 
     15 C           1.452000   -2.653000   -0.151000 C.ar      1 <1>        -0.065800 
     16 H           1.883000   -2.721000    0.845000 H         1 <1>         0.133300 
     17 C           1.351000   -3.808000   -0.931000 C.ar      1 <1>        -0.136900 
     18 H           1.713000   -4.759000   -0.543000 H         1 <1>         0.114200 
     19 C           0.783000   -3.747000   -2.206000 C.ar      1 <1>        -0.040600 
     20 H           0.707000   -4.650000   -2.811000 H         1 <1>         0.110700 
     21 C           0.313000   -2.532000   -2.705000 C.ar      1 <1>        -0.244900 
     22 H          -0.127000   -2.478000   -3.697000 H         1 <1>         0.150400 
     23 C           0.413000   -1.381000   -1.927000 C.ar      1 <1>         0.324000 
     24 F          -0.024000   -0.221000   -2.442000 F         1 <1>        -0.237700 
     25 C          -1.384000    0.183000    0.135000 C.ar      1 <1>         0.096900 
     26 H          -1.516000   -0.889000    0.264000 H         1 <1>         0.061700 
     27 C          -2.514000    0.986000   -0.017000 C.ar      1 <1>        -0.372800 
     28 C          -2.385000    2.360000   -0.185000 C.ar      1 <1>         0.115100 
     29 H          -3.263000    2.990000   -0.306000 H         1 <1>         0.067200 
     30 C          -1.115000    2.940000   -0.183000 C.ar      1 <1>        -0.142800 
     31 H          -1.033000    4.021000   -0.291000 H         1 <1>         0.133000 
     32 Cl         -4.079000    0.270000   -0.003000 Cl        1 <1>         0.075200 
@<TRIPOS>BOND
     1    1    2 ar   
     2    2    3 1    
     3    3    4 2    
     4    4    5 1    
     5    5    6 1    
     6    5    7 1    
     7    5    8 1    
     8    8    9 ar   
     9    9    1 1    
    10    9   10 ar   
    11   10   11 ar   
    12   11   12 1    
    13   11   13 ar   
    14   13    8 ar   
    15    3   14 1    
    16   14   15 ar   
    17   15   16 1    
    18   15   17 ar   
    19   17   18 1    
    20   17   19 ar   
    21   19   20 1    
    22   19   21 ar   
    23   21   22 1    
    24   21   23 ar   
    25   23   14 ar   
    26   23   24 1    
    27    2   25 ar   
    28   25   26 1    
    29   25   27 ar   
    30   27   28 ar   
    31   28   29 1    
    32   28   30 ar   
    33   30   31 1    
    34   30    1 ar   
    35   27   32 1    
@<TRIPOS>SUBSTRUCTURE
     1 ****        1 TEMP              0 ****  ****    0 ROOT 
@<TRIPOS>SET
UNITY_3DHIT     STATIC     ATOMS    <user>   **** Atoms matching 3D or FLEX Search
0
@<TRIPOS>UNITY_BOND_ATTR
3 1
S I
