#	Name:			Ro22-0992
#	Creating user name:	jeff
#	Creation time:		Tue Nov  4 15:19:57 2003

#	Modifying user name:	jeff
#	Modification time:	Tue Nov  4 15:19:57 2003

@<TRIPOS>MOLECULE
Ro22-0992
   36    39     1     0     1
SMALL
USER_CHARGES
****
From 3DB ct
@<TRIPOS>ATOM
      1 C           0.248000    2.181000    0.113000 C.ar      1 <1>         0.203200 
      2 C           0.052000    0.786000    0.192000 C.ar      1 <1>         0.019700 
      3 C           1.181000   -0.206000    0.191000 C.2       1 <1>         0.093500 
      4 N           2.272000   -0.117000    0.880000 N.2       1 <1>        -0.378900 
      5 C           2.453000    1.026000    1.760000 C.3       1 <1>         0.190400 
      6 H           3.326000    0.839000    2.388000 H         1 <1>         0.070900 
      7 H           1.616000    1.124000    2.464000 H         1 <1>         0.023400 
      8 C           2.610000    2.247000    0.940000 C.ar      1 <1>        -0.174200 
      9 N           1.539000    2.759000    0.231000 N.pl3     1 <1>        -0.143700 
     10 C           1.962000    3.962000   -0.286000 C.ar      1 <1>         0.128100 
     11 H           1.317000    4.602000   -0.876000 H         1 <1>         0.181600 
     12 N           3.228000    4.202000   -0.029000 N.ar      1 <1>        -0.407300 
     13 C           3.667000    3.127000    0.734000 C.ar      1 <1>         0.148100 
     14 C           5.049000    3.058000    1.220000 C.2       1 <1>         0.550100 
     15 O           5.905000    3.910000    1.004000 O.2       1 <1>        -0.424600 
     16 O           5.355000    1.958000    1.947000 O.3       1 <1>        -0.466400 
     17 H           6.304000    2.074000    2.182000 H         1 <1>         0.324200 
     18 C           1.047000   -1.414000   -0.677000 C.ar      1 <1>         0.373800 
     19 C           1.485000   -2.637000   -0.148000 C.ar      1 <1>        -0.314200 
     20 H           1.907000   -2.684000    0.854000 H         1 <1>         0.170200 
     21 C           1.371000   -3.806000   -0.901000 C.ar      1 <1>         0.026600 
     22 H           1.704000   -4.756000   -0.486000 H         1 <1>         0.094600 
     23 C           0.830000   -3.757000   -2.185000 C.ar      1 <1>        -0.193600 
     24 H           0.742000   -4.669000   -2.773000 H         1 <1>         0.127000 
     25 C           0.411000   -2.538000   -2.723000 C.ar      1 <1>         0.125400 
     26 H           0.005000   -2.515000   -3.732000 H         1 <1>         0.066800 
     27 C           0.522000   -1.361000   -1.975000 C.ar      1 <1>        -0.448800 
     28 Cl          0.038000    0.115000   -2.731000 Cl        1 <1>         0.078300 
     29 C          -1.257000    0.272000    0.143000 C.ar      1 <1>         0.083400 
     30 H          -1.438000   -0.797000    0.222000 H         1 <1>         0.092600 
     31 C          -2.344000    1.128000   -0.021000 C.ar      1 <1>        -0.471800 
     32 C          -2.150000    2.498000   -0.144000 C.ar      1 <1>         0.213100 
     33 H          -2.997000    3.168000   -0.277000 H         1 <1>         0.066400 
     34 C          -0.859000    3.027000   -0.080000 C.ar      1 <1>        -0.277600 
     35 H          -0.754000    4.109000   -0.142000 H         1 <1>         0.141700 
     36 Cl         -3.938000    0.481000   -0.089000 Cl        1 <1>         0.107900 
@<TRIPOS>BOND
     1    1    2 ar   
     2    2    3 1    
     3    3    4 2    
     4    4    5 1    
     5    5    6 1    
     6    5    7 1    
     7    5    8 1    
     8    8    9 ar   
     9    9    1 1    
    10    9   10 ar   
    11   10   11 1    
    12   10   12 ar   
    13   12   13 ar   
    14   13    8 ar   
    15   13   14 1    
    16   14   15 2    
    17   14   16 1    
    18   16   17 1    
    19    3   18 1    
    20   18   19 ar   
    21   19   20 1    
    22   19   21 ar   
    23   21   22 1    
    24   21   23 ar   
    25   23   24 1    
    26   23   25 ar   
    27   25   26 1    
    28   25   27 ar   
    29   27   18 ar   
    30   27   28 1    
    31    2   29 ar   
    32   29   30 1    
    33   29   31 ar   
    34   31   32 ar   
    35   32   33 1    
    36   32   34 ar   
    37   34   35 1    
    38   34    1 ar   
    39   31   36 1    
@<TRIPOS>SUBSTRUCTURE
     1 ****        1 TEMP              0 ****  ****    0 ROOT 
@<TRIPOS>SET
UNITY_3DHIT     STATIC     ATOMS    <user>   **** Atoms matching 3D or FLEX Search
0
@<TRIPOS>UNITY_BOND_ATTR
3 1
S I
