#	Name:			Ro22-1892
#	Creating user name:	jeff
#	Creation time:		Tue Nov  4 15:19:57 2003

#	Modifying user name:	jeff
#	Modification time:	Tue Nov  4 15:19:57 2003

@<TRIPOS>MOLECULE
Ro22-1892
   46    49     1     0     1
SMALL
USER_CHARGES
****
From 3DB ct
@<TRIPOS>ATOM
      1 C           0.266000    2.162000    0.085000 C.ar      1 <1>         0.191400 
      2 C           0.082000    0.767000    0.201000 C.ar      1 <1>        -0.014100 
      3 C           1.189000   -0.240000    0.222000 C.2       1 <1>        -0.139600 
      4 N           2.282000   -0.078000    0.947000 N.2       1 <1>         0.366300 
      5 C           2.498000    1.111000    1.803000 C.3       1 <1>        -0.187800 
      6 H           3.401000    0.933000    2.393000 H         1 <1>         0.183300 
      7 H           1.664000    1.172000    2.511000 H         1 <1>         0.115700 
      8 C           2.606000    2.334000    0.967000 C.ar      1 <1>         0.015600 
      9 N           1.540000    2.778000    0.207000 N.pl3     1 <1>        -0.160400 
     10 C           1.940000    3.975000   -0.343000 C.ar      1 <1>         0.123700 
     11 H           1.297000    4.564000   -0.986000 H         1 <1>         0.181900 
     12 N           3.182000    4.282000   -0.038000 N.ar      1 <1>        -0.376500 
     13 C           3.626000    3.261000    0.788000 C.ar      1 <1>         0.048600 
     14 C           4.976000    3.241000    1.369000 C.2       1 <1>         0.608400 
     15 O           5.819000    4.114000    1.178000 O.2       1 <1>        -0.413000 
     16 O           5.181000    2.136000    2.147000 O.3       1 <1>        -0.447500 
     17 C           6.473000    2.012000    2.774000 C.3       1 <1>         0.412200 
     18 H           7.260000    2.375000    2.103000 H         1 <1>         0.011200 
     19 C           6.705000    0.528000    3.034000 C.3       1 <1>        -0.287700 
     20 H           7.674000    0.354000    3.511000 H         1 <1>         0.072400 
     21 H           6.676000   -0.032000    2.093000 H         1 <1>         0.075000 
     22 H           5.918000    0.112000    3.671000 H         1 <1>         0.083600 
     23 C           6.482000    2.796000    4.081000 C.3       1 <1>        -0.321600 
     24 H           7.438000    2.685000    4.604000 H         1 <1>         0.079400 
     25 H           5.677000    2.461000    4.745000 H         1 <1>         0.086100 
     26 H           6.312000    3.862000    3.897000 H         1 <1>         0.078300 
     27 O           3.231000   -0.951000    0.912000 O.3       1 <1>        -0.466600 
     28 C           1.066000   -1.447000   -0.634000 C.ar      1 <1>        -0.114500 
     29 C           1.458000   -2.698000   -0.150000 C.ar      1 <1>         0.038600 
     30 H           1.878000   -2.803000    0.847000 H         1 <1>         0.111200 
     31 C           1.300000   -3.827000   -0.958000 C.ar      1 <1>        -0.216900 
     32 H           1.602000   -4.806000   -0.588000 H         1 <1>         0.130100 
     33 C           0.753000   -3.705000   -2.238000 C.ar      1 <1>         0.015100 
     34 H           0.632000   -4.589000   -2.863000 H         1 <1>         0.106600 
     35 C           0.360000   -2.454000   -2.717000 C.ar      1 <1>        -0.327200 
     36 H          -0.066000   -2.354000   -3.711000 H         1 <1>         0.169600 
     37 C           0.517000   -1.331000   -1.913000 C.ar      1 <1>         0.402600 
     38 F           0.137000   -0.134000   -2.384000 F         1 <1>        -0.251300 
     39 C          -1.225000    0.246000    0.155000 C.ar      1 <1>         0.171000 
     40 H          -1.402000   -0.822000    0.260000 H         1 <1>         0.064100 
     41 C          -2.321000    1.086000   -0.038000 C.ar      1 <1>        -0.470900 
     42 C          -2.138000    2.453000   -0.197000 C.ar      1 <1>         0.229700 
     43 H          -2.989000    3.112000   -0.352000 H         1 <1>         0.056900 
     44 C          -0.851000    2.990000   -0.138000 C.ar      1 <1>        -0.286500 
     45 H          -0.757000    4.072000   -0.224000 H         1 <1>         0.149700 
     46 Cl         -3.908000    0.421000   -0.098000 Cl        1 <1>         0.104000 
@<TRIPOS>BOND
     1    1    2 ar   
     2    2    3 1    
     3    3    4 2    
     4    4    5 1    
     5    5    6 1    
     6    5    7 1    
     7    5    8 1    
     8    8    9 ar   
     9    9    1 1    
    10    9   10 ar   
    11   10   11 1    
    12   10   12 ar   
    13   12   13 ar   
    14   13    8 ar   
    15   13   14 1    
    16   14   15 2    
    17   14   16 1    
    18   16   17 1    
    19   17   18 1    
    20   17   19 1    
    21   19   20 1    
    22   19   21 1    
    23   19   22 1    
    24   17   23 1    
    25   23   24 1    
    26   23   25 1    
    27   23   26 1    
    28    4   27 1    
    29    3   28 1    
    30   28   29 ar   
    31   29   30 1    
    32   29   31 ar   
    33   31   32 1    
    34   31   33 ar   
    35   33   34 1    
    36   33   35 ar   
    37   35   36 1    
    38   35   37 ar   
    39   37   28 ar   
    40   37   38 1    
    41    2   39 ar   
    42   39   40 1    
    43   39   41 ar   
    44   41   42 ar   
    45   42   43 1    
    46   42   44 ar   
    47   44   45 1    
    48   44    1 ar   
    49   41   46 1    
@<TRIPOS>SUBSTRUCTURE
     1 ****        1 TEMP              0 ****  ****    0 ROOT 
@<TRIPOS>SET
UNITY_3DHIT     STATIC     ATOMS    <user>   **** Atoms matching 3D or FLEX Search
0
@<TRIPOS>UNITY_ATOM_ATTR
4 1
AtomExpr +1
27 1
AtomExpr -1
@<TRIPOS>UNITY_BOND_ATTR
3 1
S I
