#	Name:			Ro22-3245
#	Creating user name:	jeff
#	Creation time:		Tue Nov  4 15:19:59 2003

#	Modifying user name:	jeff
#	Modification time:	Tue Nov  4 15:19:59 2003

@<TRIPOS>MOLECULE
Ro22-3245
   34    37     1     0     1
SMALL
USER_CHARGES
****
From 3DB ct
@<TRIPOS>ATOM
      1 C           0.279000    2.158000    0.049000 C.ar      1 <1>        -0.168300 
      2 C           0.048000    0.765000    0.145000 C.ar      1 <1>         0.271400 
      3 C           1.169000   -0.231000    0.242000 C.2       1 <1>        -0.076200 
      4 N           2.239000   -0.113000    0.960000 N.2       1 <1>        -0.370700 
      5 C           2.413000    1.081000    1.783000 C.3       1 <1>         0.207400 
      6 H           3.287000    0.919000    2.425000 H         1 <1>         0.038800 
      7 H           1.571000    1.224000    2.473000 H         1 <1>         0.012700 
      8 C           2.623000    2.291000    0.934000 C.ar      1 <1>        -0.529700 
      9 C           1.623000    2.772000    0.107000 C.ar      1 <1>         0.574300 
     10 N           1.805000    3.866000   -0.675000 N.ar      1 <1>        -0.584900 
     11 C           3.007000    4.461000   -0.620000 C.ar      1 <1>         0.495700 
     12 H           3.155000    5.335000   -1.247000 H         1 <1>         0.085100 
     13 N           4.038000    4.070000    0.143000 N.ar      1 <1>        -0.593100 
     14 C           3.818000    2.982000    0.908000 C.ar      1 <1>         0.439600 
     15 H           4.661000    2.668000    1.521000 H         1 <1>         0.072900 
     16 C           1.058000   -1.459000   -0.596000 C.ar      1 <1>         0.532500 
     17 C           1.468000   -2.675000   -0.032000 C.ar      1 <1>        -0.373400 
     18 H           1.854000   -2.715000    0.985000 H         1 <1>         0.181400 
     19 C           1.372000   -3.853000   -0.773000 C.ar      1 <1>         0.047300 
     20 H           1.688000   -4.799000   -0.336000 H         1 <1>         0.091300 
     21 C           0.867000   -3.820000   -2.072000 C.ar      1 <1>        -0.224600 
     22 H           0.793000   -4.740000   -2.650000 H         1 <1>         0.131100 
     23 C           0.458000   -2.609000   -2.636000 C.ar      1 <1>         0.155800 
     24 H           0.073000   -2.599000   -3.654000 H         1 <1>         0.063600 
     25 C           0.550000   -1.423000   -1.901000 C.ar      1 <1>        -0.528900 
     26 Cl          0.078000    0.047000   -2.676000 Cl        1 <1>         0.092400 
     27 C          -1.265000    0.257000    0.122000 C.ar      1 <1>        -0.025100 
     28 H          -1.451000   -0.810000    0.217000 H         1 <1>         0.087100 
     29 C          -2.351000    1.116000   -0.013000 C.ar      1 <1>        -0.387800 
     30 C          -2.151000    2.484000   -0.127000 C.ar      1 <1>         0.126000 
     31 H          -2.993000    3.164000   -0.234000 H         1 <1>         0.069600 
     32 C          -0.851000    2.996000   -0.094000 C.ar      1 <1>        -0.142700 
     33 H          -0.722000    4.076000   -0.172000 H         1 <1>         0.138600 
     34 Cl         -3.950000    0.479000   -0.041000 Cl        1 <1>         0.090700 
@<TRIPOS>BOND
     1    1    2 ar   
     2    2    3 1    
     3    3    4 2    
     4    4    5 1    
     5    5    6 1    
     6    5    7 1    
     7    5    8 1    
     8    8    9 ar   
     9    9    1 1    
    10    9   10 ar   
    11   10   11 ar   
    12   11   12 1    
    13   11   13 ar   
    14   13   14 ar   
    15   14   15 1    
    16   14    8 ar   
    17    3   16 1    
    18   16   17 ar   
    19   17   18 1    
    20   17   19 ar   
    21   19   20 1    
    22   19   21 ar   
    23   21   22 1    
    24   21   23 ar   
    25   23   24 1    
    26   23   25 ar   
    27   25   16 ar   
    28   25   26 1    
    29    2   27 ar   
    30   27   28 1    
    31   27   29 ar   
    32   29   30 ar   
    33   30   31 1    
    34   30   32 ar   
    35   32   33 1    
    36   32    1 ar   
    37   29   34 1    
@<TRIPOS>SUBSTRUCTURE
     1 ****        1 TEMP              0 ****  ****    0 ROOT 
@<TRIPOS>SET
UNITY_3DHIT     STATIC     ATOMS    <user>   **** Atoms matching 3D or FLEX Search
0
@<TRIPOS>UNITY_BOND_ATTR
3 1
S I
