#	Name:			Ro22-3147
#	Creating user name:	jeff
#	Creation time:		Tue Nov  4 15:19:59 2003

#	Modifying user name:	jeff
#	Modification time:	Tue Nov  4 15:19:59 2003

@<TRIPOS>MOLECULE
Ro22-3147
   32    35     1     0     1
SMALL
USER_CHARGES
****
From 3DB ct
@<TRIPOS>ATOM
      1 C           0.007000    2.119000   -0.019000 C.ar      1 <1>        -0.082200 
      2 C          -0.104000    0.718000    0.120000 C.ar      1 <1>         0.134100 
      3 C           1.087000   -0.207000    0.191000 C.2       1 <1>         0.131400 
      4 N           2.192000   -0.033000    0.840000 N.2       1 <1>        -0.473300 
      5 C           2.417000    1.151000    1.671000 C.3       1 <1>         0.331600 
      6 H           3.393000    1.046000    2.159000 H         1 <1>         0.021400 
      7 H           1.671000    1.207000    2.472000 H         1 <1>        -0.031100 
      8 C           2.394000    2.377000    0.837000 C.ar      1 <1>        -0.024600 
      9 C           1.291000    2.796000    0.065000 C.ar      1 <1>         0.089200 
     10 N           1.600000    3.953000   -0.545000 N.ar      1 <1>        -0.211400 
     11 N           2.873000    4.159000   -0.131000 N.pl3     1 <1>        -0.090200 
     12 H           3.405000    4.974000   -0.439000 H         1 <1>         0.328100 
     13 N           3.410000    3.244000    0.712000 N.ar      1 <1>        -0.216400 
     14 C           1.003000   -1.456000   -0.623000 C.ar      1 <1>         0.378700 
     15 C           1.512000   -2.637000   -0.063000 C.ar      1 <1>        -0.321700 
     16 H           1.955000   -2.636000    0.931000 H         1 <1>         0.171600 
     17 C           1.443000   -3.832000   -0.780000 C.ar      1 <1>         0.030400 
     18 H           1.837000   -4.750000   -0.347000 H         1 <1>         0.089900 
     19 C           0.865000   -3.852000   -2.049000 C.ar      1 <1>        -0.211400 
     20 H           0.812000   -4.785000   -2.608000 H         1 <1>         0.124500 
     21 C           0.356000   -2.676000   -2.607000 C.ar      1 <1>         0.157900 
     22 H          -0.086000   -2.707000   -3.601000 H         1 <1>         0.053300 
     23 C           0.421000   -1.474000   -1.896000 C.ar      1 <1>        -0.477300 
     24 Cl         -0.181000   -0.047000   -2.663000 Cl        1 <1>         0.092300 
     25 C          -1.385000    0.133000    0.117000 C.ar      1 <1>        -0.221400 
     26 H          -1.514000   -0.941000    0.239000 H         1 <1>         0.137600 
     27 C          -2.531000    0.914000   -0.041000 C.ar      1 <1>        -0.070500 
     28 H          -3.513000    0.445000   -0.043000 H         1 <1>         0.112400 
     29 C          -2.417000    2.290000   -0.203000 C.ar      1 <1>        -0.149500 
     30 H          -3.309000    2.901000   -0.330000 H         1 <1>         0.122400 
     31 C          -1.157000    2.889000   -0.191000 C.ar      1 <1>        -0.034500 
     32 H          -1.092000    3.972000   -0.299000 H         1 <1>         0.109000 
@<TRIPOS>BOND
     1    1    2 ar   
     2    2    3 1    
     3    3    4 2    
     4    4    5 1    
     5    5    6 1    
     6    5    7 1    
     7    5    8 1    
     8    8    9 ar   
     9    9    1 1    
    10    9   10 ar   
    11   10   11 ar   
    12   11   12 1    
    13   11   13 ar   
    14   13    8 ar   
    15    3   14 1    
    16   14   15 ar   
    17   15   16 1    
    18   15   17 ar   
    19   17   18 1    
    20   17   19 ar   
    21   19   20 1    
    22   19   21 ar   
    23   21   22 1    
    24   21   23 ar   
    25   23   14 ar   
    26   23   24 1    
    27    2   25 ar   
    28   25   26 1    
    29   25   27 ar   
    30   27   28 1    
    31   27   29 ar   
    32   29   30 1    
    33   29   31 ar   
    34   31   32 1    
    35   31    1 ar   
@<TRIPOS>SUBSTRUCTURE
     1 ****        1 TEMP              0 ****  ****    0 ROOT 
@<TRIPOS>SET
UNITY_3DHIT     STATIC     ATOMS    <user>   **** Atoms matching 3D or FLEX Search
0
@<TRIPOS>UNITY_BOND_ATTR
3 1
S I
