#	Name:			Ro22-3148
#	Creating user name:	jeff
#	Creation time:		Tue Nov  4 15:19:59 2003

#	Modifying user name:	jeff
#	Modification time:	Tue Nov  4 15:19:59 2003

@<TRIPOS>MOLECULE
Ro22-3148
   32    35     1     0     1
SMALL
USER_CHARGES
****
From 3DB ct
@<TRIPOS>ATOM
      1 C           0.008000    2.136000   -0.032000 C.ar      1 <1>        -0.126300 
      2 C          -0.119000    0.738000    0.113000 C.ar      1 <1>         0.111000 
      3 C           1.061000   -0.203000    0.163000 C.2       1 <1>         0.246500 
      4 N           2.151000   -0.050000    0.847000 N.2       1 <1>        -0.439900 
      5 C           2.379000    1.135000    1.678000 C.3       1 <1>         0.224100 
      6 H           3.345000    1.018000    2.182000 H         1 <1>         0.043300 
      7 H           1.620000    1.206000    2.466000 H         1 <1>        -0.011700 
      8 C           2.390000    2.358000    0.836000 C.ar      1 <1>         0.016000 
      9 C           1.302000    2.792000    0.049000 C.ar      1 <1>         0.098400 
     10 N           1.637000    3.938000   -0.565000 N.ar      1 <1>        -0.224800 
     11 N           2.911000    4.122000   -0.142000 N.pl3     1 <1>        -0.082100 
     12 H           3.462000    4.924000   -0.452000 H         1 <1>         0.325300 
     13 N           3.423000    3.204000    0.713000 N.ar      1 <1>        -0.223600 
     14 C           0.984000   -1.447000   -0.676000 C.ar      1 <1>         0.021000 
     15 C           0.493000   -1.403000   -1.987000 C.ar      1 <1>        -0.146700 
     16 H           0.156000   -0.469000   -2.430000 H         1 <1>         0.113300 
     17 C           0.445000   -2.570000   -2.752000 C.ar      1 <1>        -0.078600 
     18 H           0.061000   -2.537000   -3.770000 H         1 <1>         0.098000 
     19 C           0.892000   -3.778000   -2.216000 C.ar      1 <1>        -0.114300 
     20 H           0.854000   -4.686000   -2.815000 H         1 <1>         0.102300 
     21 C           1.395000   -3.822000   -0.916000 C.ar      1 <1>        -0.062300 
     22 H           1.750000   -4.764000   -0.501000 H         1 <1>         0.095100 
     23 C           1.447000   -2.658000   -0.147000 C.ar      1 <1>        -0.152800 
     24 H           1.843000   -2.703000    0.866000 H         1 <1>         0.132400 
     25 C          -1.406000    0.170000    0.159000 C.ar      1 <1>        -0.220200 
     26 H          -1.538000   -0.902000    0.298000 H         1 <1>         0.136500 
     27 C          -2.545000    0.965000    0.022000 C.ar      1 <1>        -0.029300 
     28 H          -3.533000    0.510000    0.052000 H         1 <1>         0.097000 
     29 C          -2.416000    2.338000   -0.161000 C.ar      1 <1>        -0.159400 
     30 H          -3.303000    2.959000   -0.272000 H         1 <1>         0.117000 
     31 C          -1.149000    2.921000   -0.184000 C.ar      1 <1>        -0.010700 
     32 H          -1.071000    4.002000   -0.298000 H         1 <1>         0.105300 
@<TRIPOS>BOND
     1    1    2 ar   
     2    2    3 1    
     3    3    4 2    
     4    4    5 1    
     5    5    6 1    
     6    5    7 1    
     7    5    8 1    
     8    8    9 ar   
     9    9    1 1    
    10    9   10 ar   
    11   10   11 ar   
    12   11   12 1    
    13   11   13 ar   
    14   13    8 ar   
    15    3   14 1    
    16   14   15 ar   
    17   15   16 1    
    18   15   17 ar   
    19   17   18 1    
    20   17   19 ar   
    21   19   20 1    
    22   19   21 ar   
    23   21   22 1    
    24   21   23 ar   
    25   23   24 1    
    26   23   14 ar   
    27    2   25 ar   
    28   25   26 1    
    29   25   27 ar   
    30   27   28 1    
    31   27   29 ar   
    32   29   30 1    
    33   29   31 ar   
    34   31   32 1    
    35   31    1 ar   
@<TRIPOS>SUBSTRUCTURE
     1 ****        1 TEMP              0 ****  ****    0 ROOT 
@<TRIPOS>SET
UNITY_3DHIT     STATIC     ATOMS    <user>   **** Atoms matching 3D or FLEX Search
0
@<TRIPOS>UNITY_BOND_ATTR
3 1
S I
