#	Name:			Ro22-6762
#	Creating user name:	jeff
#	Creation time:		Tue Nov  4 15:19:53 2003

#	Modifying user name:	jeff
#	Modification time:	Tue Nov  4 15:19:53 2003

@<TRIPOS>MOLECULE
Ro22-6762
   33    35     1     0     1
SMALL
USER_CHARGES
****
From 3DB ct
@<TRIPOS>ATOM
      1 C          -2.127000    2.509000   -0.233000 C.ar      1 <1>         0.024200 
      2 H          -2.932000    3.212000   -0.438000 H         1 <1>         0.086900 
      3 C          -2.409000    1.195000    0.130000 C.ar      1 <1>        -0.158300 
      4 C          -1.362000    0.300000    0.385000 C.ar      1 <1>        -0.417600 
      5 C          -0.021000    0.735000    0.255000 C.ar      1 <1>         0.646700 
      6 C           0.272000    2.093000   -0.016000 C.ar      1 <1>        -0.209200 
      7 C          -0.804000    2.953000   -0.295000 C.ar      1 <1>        -0.072000 
      8 H          -0.648000    4.006000   -0.522000 H         1 <1>         0.121400 
      9 N           1.600000    2.639000    0.015000 N.am      1 <1>        -0.190500 
     10 C           2.603000    2.197000    0.886000 C.2       1 <1>         0.485100 
     11 C           2.233000    1.079000    1.858000 C.3       1 <1>        -0.006200 
     12 H           3.049000    0.969000    2.581000 H         1 <1>         0.084000 
     13 H           1.333000    1.319000    2.434000 H         1 <1>         0.027300 
     14 N           2.125000   -0.160000    1.085000 N.2       1 <1>        -0.302200 
     15 C           1.094000   -0.264000    0.307000 C.2       1 <1>        -0.144800 
     16 C           1.058000   -1.437000   -0.629000 C.ar      1 <1>         0.212800 
     17 C           0.595000   -1.300000   -1.944000 C.ar      1 <1>        -0.238100 
     18 H           0.254000   -0.342000   -2.329000 H         1 <1>         0.131600 
     19 C           0.583000   -2.405000   -2.799000 C.ar      1 <1>        -0.083800 
     20 H           0.222000   -2.298000   -3.820000 H         1 <1>         0.111000 
     21 C           1.040000   -3.644000   -2.349000 C.ar      1 <1>        -0.123300 
     22 H           1.029000   -4.503000   -3.018000 H         1 <1>         0.111100 
     23 C           1.516000   -3.781000   -1.046000 C.ar      1 <1>        -0.056500 
     24 H           1.877000   -4.747000   -0.697000 H         1 <1>         0.100000 
     25 C           1.531000   -2.680000   -0.188000 C.ar      1 <1>        -0.168200 
     26 H           1.905000   -2.800000    0.827000 H         1 <1>         0.134900 
     27 O           3.736000    2.695000    0.910000 O.2       1 <1>        -0.407400 
     28 C           1.898000    3.804000   -0.817000 C.3       1 <1>        -0.142700 
     29 H           2.973000    3.891000   -0.998000 H         1 <1>         0.111300 
     30 H           1.566000    4.708000   -0.297000 H         1 <1>         0.068000 
     31 H           1.403000    3.714000   -1.790000 H         1 <1>         0.086400 
     32 Cl         -1.733000   -1.313000    0.930000 Cl        1 <1>         0.110200 
     33 Cl         -4.077000    0.745000    0.242000 Cl        1 <1>         0.067900 
@<TRIPOS>BOND
     1    2    1 1    
     2    1    3 ar   
     3    3    4 ar   
     4    4    5 ar   
     5    5    6 ar   
     6    6    7 ar   
     7    7    8 1    
     8    7    1 ar   
     9    6    9 1    
    10    9   10 am   
    11   10   11 1    
    12   11   12 1    
    13   11   13 1    
    14   11   14 1    
    15   14   15 2    
    16   15    5 1    
    17   15   16 1    
    18   16   17 ar   
    19   17   18 1    
    20   17   19 ar   
    21   19   20 1    
    22   19   21 ar   
    23   21   22 1    
    24   21   23 ar   
    25   23   24 1    
    26   23   25 ar   
    27   25   26 1    
    28   25   16 ar   
    29   10   27 2    
    30    9   28 1    
    31   28   29 1    
    32   28   30 1    
    33   28   31 1    
    34    4   32 1    
    35    3   33 1    
@<TRIPOS>SUBSTRUCTURE
     1 ****        2 TEMP              0 ****  ****    0 ROOT 
@<TRIPOS>SET
UNITY_3DHIT     STATIC     ATOMS    <user>   **** Atoms matching 3D or FLEX Search
0
@<TRIPOS>UNITY_BOND_ATTR
15 1
S I
