#	Name:			Ro22-2038
#	Creating user name:	jeff
#	Creation time:		Tue Nov  4 15:19:59 2003

#	Modifying user name:	jeff
#	Modification time:	Tue Nov  4 15:19:59 2003

@<TRIPOS>MOLECULE
Ro22-2038
   36    39     1     0     1
SMALL
USER_CHARGES
****
From 3DB ct
@<TRIPOS>ATOM
      1 C           0.278000    2.166000    0.051000 C.ar      1 <1>        -0.085100 
      2 C           0.041000    0.774000    0.139000 C.ar      1 <1>         0.088500 
      3 C           1.157000   -0.231000    0.221000 C.2       1 <1>         0.224900 
      4 N           2.216000   -0.124000    0.958000 N.2       1 <1>        -0.382600 
      5 C           2.393000    1.065000    1.789000 C.3       1 <1>         0.154800 
      6 H           3.264000    0.893000    2.433000 H         1 <1>         0.046800 
      7 H           1.549000    1.207000    2.476000 H         1 <1>         0.011400 
      8 C           2.613000    2.276000    0.948000 C.ar      1 <1>        -0.470800 
      9 C           1.626000    2.769000    0.118000 C.ar      1 <1>         0.476800 
     10 N           1.819000    3.867000   -0.656000 N.ar      1 <1>        -0.658200 
     11 C           3.012000    4.464000   -0.605000 C.ar      1 <1>         0.909200 
     12 N           4.025000    4.056000    0.163000 N.ar      1 <1>        -0.660100 
     13 C           3.805000    2.965000    0.926000 C.ar      1 <1>         0.367000 
     14 H           4.649000    2.651000    1.537000 H         1 <1>         0.097000 
     15 N           3.207000    5.562000   -1.382000 N.pl3     1 <1>        -0.909600 
     16 H           2.459000    5.896000   -1.971000 H         1 <1>         0.399100 
     17 H           4.097000    6.037000   -1.363000 H         1 <1>         0.399900 
     18 C           1.049000   -1.448000   -0.634000 C.ar      1 <1>        -0.126800 
     19 C           1.429000   -2.698000   -0.128000 C.ar      1 <1>        -0.067100 
     20 H           1.802000   -2.802000    0.889000 H         1 <1>         0.131000 
     21 C           1.317000   -3.835000   -0.932000 C.ar      1 <1>        -0.136600 
     22 H           1.611000   -4.808000   -0.541000 H         1 <1>         0.115100 
     23 C           0.824000   -3.729000   -2.234000 C.ar      1 <1>        -0.046300 
     24 H           0.738000   -4.617000   -2.857000 H         1 <1>         0.113300 
     25 C           0.440000   -2.485000   -2.736000 C.ar      1 <1>        -0.256900 
     26 H           0.058000   -2.395000   -3.749000 H         1 <1>         0.155000 
     27 C           0.551000   -1.351000   -1.935000 C.ar      1 <1>         0.345600 
     28 F           0.200000   -0.165000   -2.453000 F         1 <1>        -0.249800 
     29 C          -1.275000    0.272000    0.130000 C.ar      1 <1>         0.052000 
     30 H          -1.463000   -0.795000    0.225000 H         1 <1>         0.067600 
     31 C          -2.357000    1.138000    0.005000 C.ar      1 <1>        -0.370000 
     32 C          -2.149000    2.505000   -0.108000 C.ar      1 <1>         0.114900 
     33 H          -2.988000    3.190000   -0.208000 H         1 <1>         0.064800 
     34 C          -0.846000    3.010000   -0.083000 C.ar      1 <1>        -0.127800 
     35 H          -0.712000    4.090000   -0.156000 H         1 <1>         0.134800 
     36 Cl         -3.960000    0.510000   -0.012000 Cl        1 <1>         0.078400 
@<TRIPOS>BOND
     1    1    2 ar   
     2    2    3 1    
     3    3    4 2    
     4    4    5 1    
     5    5    6 1    
     6    5    7 1    
     7    5    8 1    
     8    8    9 ar   
     9    9    1 1    
    10    9   10 ar   
    11   10   11 ar   
    12   11   12 ar   
    13   12   13 ar   
    14   13   14 1    
    15   13    8 ar   
    16   11   15 1    
    17   15   16 1    
    18   15   17 1    
    19    3   18 1    
    20   18   19 ar   
    21   19   20 1    
    22   19   21 ar   
    23   21   22 1    
    24   21   23 ar   
    25   23   24 1    
    26   23   25 ar   
    27   25   26 1    
    28   25   27 ar   
    29   27   18 ar   
    30   27   28 1    
    31    2   29 ar   
    32   29   30 1    
    33   29   31 ar   
    34   31   32 ar   
    35   32   33 1    
    36   32   34 ar   
    37   34   35 1    
    38   34    1 ar   
    39   31   36 1    
@<TRIPOS>SUBSTRUCTURE
     1 ****        1 TEMP              0 ****  ****    0 ROOT 
@<TRIPOS>SET
UNITY_3DHIT     STATIC     ATOMS    <user>   **** Atoms matching 3D or FLEX Search
0
@<TRIPOS>UNITY_BOND_ATTR
3 1
S I
