#	Name:			Ro22-1366
#	Creating user name:	jeff
#	Creation time:		Tue Nov  4 15:19:59 2003

#	Modifying user name:	jeff
#	Modification time:	Tue Nov  4 15:19:59 2003

@<TRIPOS>MOLECULE
Ro22-1366
   37    40     1     0     1
SMALL
USER_CHARGES
****
From 3DB ct
@<TRIPOS>ATOM
      1 C           0.279000    2.166000    0.051000 C.ar      1 <1>        -0.117800 
      2 C           0.041000    0.774000    0.139000 C.ar      1 <1>         0.110700 
      3 C           1.157000   -0.231000    0.222000 C.2       1 <1>         0.219200 
      4 N           2.215000   -0.125000    0.959000 N.2       1 <1>        -0.379400 
      5 C           2.392000    1.065000    1.789000 C.3       1 <1>         0.131800 
      6 H           3.261000    0.893000    2.436000 H         1 <1>         0.053200 
      7 H           1.547000    1.209000    2.475000 H         1 <1>         0.019500 
      8 C           2.615000    2.277000    0.948000 C.ar      1 <1>        -0.410700 
      9 C           1.626000    2.769000    0.116000 C.ar      1 <1>         0.467200 
     10 N           1.819000    3.865000   -0.659000 N.ar      1 <1>        -0.587400 
     11 C           3.026000    4.460000   -0.610000 C.ar      1 <1>         0.660800 
     12 N           4.040000    4.053000    0.172000 N.ar      1 <1>        -0.585200 
     13 C           3.812000    2.962000    0.932000 C.ar      1 <1>         0.339000 
     14 H           4.650000    2.645000    1.549000 H         1 <1>         0.095000 
     15 C           3.232000    5.685000   -1.444000 C.3       1 <1>        -0.283900 
     16 H           2.642000    5.628000   -2.364000 H         1 <1>         0.086900 
     17 H           4.286000    5.790000   -1.720000 H         1 <1>         0.089300 
     18 H           2.925000    6.571000   -0.881000 H         1 <1>         0.086900 
     19 C           1.049000   -1.448000   -0.634000 C.ar      1 <1>        -0.130300 
     20 C           1.429000   -2.699000   -0.128000 C.ar      1 <1>        -0.064800 
     21 H           1.801000   -2.803000    0.889000 H         1 <1>         0.131100 
     22 C           1.317000   -3.835000   -0.933000 C.ar      1 <1>        -0.136700 
     23 H           1.611000   -4.808000   -0.542000 H         1 <1>         0.115700 
     24 C           0.824000   -3.728000   -2.235000 C.ar      1 <1>        -0.046800 
     25 H           0.739000   -4.617000   -2.859000 H         1 <1>         0.114200 
     26 C           0.441000   -2.484000   -2.736000 C.ar      1 <1>        -0.251600 
     27 H           0.060000   -2.394000   -3.750000 H         1 <1>         0.153800 
     28 C           0.552000   -1.351000   -1.935000 C.ar      1 <1>         0.346400 
     29 F           0.201000   -0.164000   -2.454000 F         1 <1>        -0.249600 
     30 C          -1.275000    0.272000    0.130000 C.ar      1 <1>         0.037400 
     31 H          -1.463000   -0.795000    0.226000 H         1 <1>         0.070900 
     32 C          -2.357000    1.138000    0.005000 C.ar      1 <1>        -0.357700 
     33 C          -2.149000    2.505000   -0.108000 C.ar      1 <1>         0.113700 
     34 H          -2.988000    3.190000   -0.208000 H         1 <1>         0.065100 
     35 C          -0.846000    3.010000   -0.083000 C.ar      1 <1>        -0.120700 
     36 H          -0.712000    4.090000   -0.156000 H         1 <1>         0.136200 
     37 Cl         -3.960000    0.510000   -0.012000 Cl        1 <1>         0.078600 
@<TRIPOS>BOND
     1    1    2 ar   
     2    2    3 1    
     3    3    4 2    
     4    4    5 1    
     5    5    6 1    
     6    5    7 1    
     7    5    8 1    
     8    8    9 ar   
     9    9    1 1    
    10    9   10 ar   
    11   10   11 ar   
    12   11   12 ar   
    13   12   13 ar   
    14   13   14 1    
    15   13    8 ar   
    16   11   15 1    
    17   15   16 1    
    18   15   17 1    
    19   15   18 1    
    20    3   19 1    
    21   19   20 ar   
    22   20   21 1    
    23   20   22 ar   
    24   22   23 1    
    25   22   24 ar   
    26   24   25 1    
    27   24   26 ar   
    28   26   27 1    
    29   26   28 ar   
    30   28   19 ar   
    31   28   29 1    
    32    2   30 ar   
    33   30   31 1    
    34   30   32 ar   
    35   32   33 ar   
    36   33   34 1    
    37   33   35 ar   
    38   35   36 1    
    39   35    1 ar   
    40   32   37 1    
@<TRIPOS>SUBSTRUCTURE
     1 ****        1 TEMP              0 ****  ****    0 ROOT 
@<TRIPOS>SET
UNITY_3DHIT     STATIC     ATOMS    <user>   **** Atoms matching 3D or FLEX Search
0
@<TRIPOS>UNITY_BOND_ATTR
3 1
S I
