#	Name:			Ro22-1274
#	Creating user name:	jeff
#	Creation time:		Tue Nov  4 15:19:59 2003

#	Modifying user name:	jeff
#	Modification time:	Tue Nov  4 15:19:59 2003

@<TRIPOS>MOLECULE
Ro22-1274
   30    32     1     0     1
SMALL
USER_CHARGES
****
From 3DB ct
@<TRIPOS>ATOM
      1 C           0.262000    2.152000    0.091000 C.ar      1 <1>         0.238900 
      2 C           0.035000    0.762000    0.151000 C.ar      1 <1>        -0.126500 
      3 C           1.164000   -0.230000    0.218000 C.2       1 <1>         0.341800 
      4 N           2.238000   -0.111000    0.932000 N.2       1 <1>        -0.418000 
      5 C           2.416000    1.063000    1.779000 C.3       1 <1>         0.166200 
      6 H           3.331000    0.926000    2.366000 H         1 <1>         0.032000 
      7 H           1.603000    1.172000    2.507000 H         1 <1>         0.005300 
      8 C           2.571000    2.279000    0.925000 C.2       1 <1>        -0.113000 
      9 H           3.533000    2.786000    0.956000 H         1 <1>         0.109900 
     10 C           1.593000    2.769000    0.150000 C.2       1 <1>        -0.275700 
     11 H           1.756000    3.674000   -0.431000 H         1 <1>         0.148800 
     12 C           1.054000   -1.449000   -0.633000 C.ar      1 <1>        -0.189300 
     13 C           1.460000   -2.694000   -0.136000 C.ar      1 <1>        -0.049500 
     14 H           1.854000   -2.791000    0.874000 H         1 <1>         0.126200 
     15 C           1.348000   -3.832000   -0.938000 C.ar      1 <1>        -0.140800 
     16 H           1.664000   -4.801000   -0.553000 H         1 <1>         0.115100 
     17 C           0.829000   -3.732000   -2.230000 C.ar      1 <1>        -0.041200 
     18 H           0.744000   -4.621000   -2.852000 H         1 <1>         0.111600 
     19 C           0.419000   -2.493000   -2.724000 C.ar      1 <1>        -0.265900 
     20 H           0.017000   -2.408000   -3.730000 H         1 <1>         0.154600 
     21 C           0.530000   -1.358000   -1.924000 C.ar      1 <1>         0.384500 
     22 F           0.153000   -0.176000   -2.436000 F         1 <1>        -0.262100 
     23 C          -1.281000    0.266000    0.119000 C.ar      1 <1>         0.137400 
     24 H          -1.475000   -0.801000    0.193000 H         1 <1>         0.059400 
     25 C          -2.356000    1.143000   -0.004000 C.ar      1 <1>        -0.427200 
     26 C          -2.141000    2.514000   -0.097000 C.ar      1 <1>         0.175200 
     27 H          -2.977000    3.202000   -0.199000 H         1 <1>         0.058600 
     28 C          -0.838000    3.015000   -0.051000 C.ar      1 <1>        -0.282100 
     29 H          -0.691000    4.093000   -0.113000 H         1 <1>         0.147300 
     30 Cl         -3.962000    0.525000   -0.049000 Cl        1 <1>         0.078600 
@<TRIPOS>BOND
     1    1    2 ar   
     2    2    3 1    
     3    3    4 2    
     4    4    5 1    
     5    5    6 1    
     6    5    7 1    
     7    5    8 1    
     8    8    9 1    
     9    8   10 2    
    10   10   11 1    
    11   10    1 1    
    12    3   12 1    
    13   12   13 ar   
    14   13   14 1    
    15   13   15 ar   
    16   15   16 1    
    17   15   17 ar   
    18   17   18 1    
    19   17   19 ar   
    20   19   20 1    
    21   19   21 ar   
    22   21   12 ar   
    23   21   22 1    
    24    2   23 ar   
    25   23   24 1    
    26   23   25 ar   
    27   25   26 ar   
    28   26   27 1    
    29   26   28 ar   
    30   28   29 1    
    31   28    1 ar   
    32   25   30 1    
@<TRIPOS>SUBSTRUCTURE
     1 ****        1 TEMP              0 ****  ****    0 ROOT 
@<TRIPOS>SET
UNITY_3DHIT     STATIC     ATOMS    <user>   **** Atoms matching 3D or FLEX Search
0
@<TRIPOS>UNITY_BOND_ATTR
3 1
S I
9 1
S I
