#	Name:			Temazepam
#	Creating user name:	jeff
#	Creation time:		Tue Nov  4 15:19:55 2003

#	Modifying user name:	jeff
#	Modification time:	Tue Nov  4 15:19:55 2003

@<TRIPOS>MOLECULE
Temazepam
   34    36     1     0     1
SMALL
USER_CHARGES
****
From 3DB ct
@<TRIPOS>ATOM
      1 C          -2.135000    2.507000   -0.153000 C.ar      1 <1>         0.191900 
      2 H          -2.968000    3.193000   -0.292000 H         1 <1>         0.062000 
      3 C          -2.360000    1.151000    0.040000 C.ar      1 <1>        -0.459800 
      4 C          -1.286000    0.285000    0.210000 C.ar      1 <1>         0.128500 
      5 H          -1.477000   -0.777000    0.349000 H         1 <1>         0.072800 
      6 C           0.033000    0.777000    0.186000 C.ar      1 <1>         0.008900 
      7 C           0.282000    2.159000    0.045000 C.ar      1 <1>         0.089900 
      8 C          -0.828000    3.004000   -0.152000 C.ar      1 <1>        -0.227900 
      9 H          -0.708000    4.079000   -0.271000 H         1 <1>         0.131400 
     10 N           1.594000    2.733000    0.090000 N.am      1 <1>        -0.261900 
     11 C           2.638000    2.229000    0.876000 C.2       1 <1>         0.348200 
     12 C           2.290000    1.050000    1.838000 C.3       1 <1>         0.421700 
     13 H           1.371000    1.278000    2.390000 H         1 <1>         0.015700 
     14 N           2.168000   -0.145000    1.016000 N.2       1 <1>        -0.430300 
     15 C           1.132000   -0.235000    0.247000 C.2       1 <1>         0.113400 
     16 C           1.042000   -1.441000   -0.639000 C.ar      1 <1>         0.143700 
     17 C           1.492000   -2.677000   -0.159000 C.ar      1 <1>        -0.176000 
     18 H           1.889000   -2.767000    0.850000 H         1 <1>         0.140200 
     19 C           1.425000   -3.810000   -0.972000 C.ar      1 <1>        -0.057500 
     20 H           1.769000   -4.772000   -0.595000 H         1 <1>         0.100200 
     21 C           0.918000   -3.711000   -2.268000 C.ar      1 <1>        -0.119500 
     22 H           0.867000   -4.595000   -2.901000 H         1 <1>         0.107900 
     23 C           0.483000   -2.479000   -2.755000 C.ar      1 <1>        -0.061600 
     24 H           0.097000   -2.402000   -3.770000 H         1 <1>         0.100600 
     25 C           0.547000   -1.342000   -1.946000 C.ar      1 <1>        -0.213300 
     26 H           0.221000   -0.389000   -2.355000 H         1 <1>         0.126300 
     27 O           3.299000    0.891000    2.831000 O.3       1 <1>        -0.465300 
     28 H           4.068000    0.574000    2.314000 H         1 <1>         0.297400 
     29 O           3.778000    2.714000    0.854000 O.2       1 <1>        -0.374800 
     30 C           1.843000    3.965000   -0.656000 C.3       1 <1>        -0.053000 
     31 H           2.911000    4.102000   -0.848000 H         1 <1>         0.090800 
     32 H           1.493000    4.816000   -0.064000 H         1 <1>         0.048600 
     33 H           1.333000    3.932000   -1.624000 H         1 <1>         0.067600 
     34 Cl         -3.968000    0.540000    0.056000 Cl        1 <1>         0.093100 
@<TRIPOS>BOND
     1    2    1 1    
     2    1    3 ar   
     3    3    4 ar   
     4    4    5 1    
     5    4    6 ar   
     6    6    7 ar   
     7    7    8 ar   
     8    8    9 1    
     9    8    1 ar   
    10    7   10 1    
    11   10   11 am   
    12   11   12 1    
    13   12   13 1    
    14   12   14 1    
    15   14   15 2    
    16   15    6 1    
    17   15   16 1    
    18   16   17 ar   
    19   17   18 1    
    20   17   19 ar   
    21   19   20 1    
    22   19   21 ar   
    23   21   22 1    
    24   21   23 ar   
    25   23   24 1    
    26   23   25 ar   
    27   25   26 1    
    28   25   16 ar   
    29   12   27 1    
    30   27   28 1    
    31   11   29 2    
    32   10   30 1    
    33   30   31 1    
    34   30   32 1    
    35   30   33 1    
    36    3   34 1    
@<TRIPOS>SUBSTRUCTURE
     1 ****        2 TEMP              0 ****  ****    0 ROOT 
@<TRIPOS>SET
UNITY_3DHIT     STATIC     ATOMS    <user>   **** Atoms matching 3D or FLEX Search
0
@<TRIPOS>UNITY_BOND_ATTR
15 1
S I
