#	Name:			Tetrazepam
#	Creating user name:	jeff
#	Creation time:		Tue Nov  4 15:19:54 2003

#	Modifying user name:	jeff
#	Modification time:	Tue Nov  4 15:19:54 2003

@<TRIPOS>MOLECULE
Tetrazepam
   37    39     1     0     1
SMALL
USER_CHARGES
****
From 3DB ct
@<TRIPOS>ATOM
      1 C          -2.135000    2.501000   -0.152000 C.ar      1 <1>         0.181600 
      2 H          -2.970000    3.186000   -0.288000 H         1 <1>         0.064400 
      3 C          -2.355000    1.143000    0.028000 C.ar      1 <1>        -0.460000 
      4 C          -1.280000    0.279000    0.194000 C.ar      1 <1>         0.122200 
      5 H          -1.467000   -0.784000    0.323000 H         1 <1>         0.071600 
      6 C           0.039000    0.775000    0.180000 C.ar      1 <1>         0.040500 
      7 C           0.284000    2.159000    0.051000 C.ar      1 <1>         0.105000 
      8 C          -0.829000    3.002000   -0.142000 C.ar      1 <1>        -0.235200 
      9 H          -0.713000    4.078000   -0.251000 H         1 <1>         0.133300 
     10 N           1.594000    2.741000    0.104000 N.am      1 <1>        -0.266900 
     11 C           2.640000    2.234000    0.879000 C.2       1 <1>         0.472600 
     12 C           2.309000    1.068000    1.802000 C.3       1 <1>        -0.039100 
     13 H           3.143000    0.939000    2.501000 H         1 <1>         0.083900 
     14 H           1.421000    1.272000    2.411000 H         1 <1>         0.049200 
     15 N           2.190000   -0.145000    0.993000 N.2       1 <1>        -0.286600 
     16 C           1.142000   -0.235000    0.238000 C.2       1 <1>         0.066600 
     17 C           1.009000   -1.445000   -0.647000 C.2       1 <1>        -0.012900 
     18 C           0.552000   -1.315000   -1.906000 C.2       1 <1>        -0.117200 
     19 H           0.287000   -0.341000   -2.313000 H         1 <1>         0.089700 
     20 C           0.382000   -2.477000   -2.843000 C.3       1 <1>        -0.042600 
     21 H           1.150000   -2.405000   -3.623000 H         1 <1>         0.049600 
     22 H          -0.591000   -2.402000   -3.341000 H         1 <1>         0.030500 
     23 C           0.481000   -3.833000   -2.144000 C.3       1 <1>        -0.070100 
     24 H           0.615000   -4.624000   -2.890000 H         1 <1>         0.024700 
     25 H          -0.459000   -4.046000   -1.619000 H         1 <1>         0.040800 
     26 C           1.633000   -3.853000   -1.145000 C.3       1 <1>        -0.067100 
     27 H           2.579000   -3.701000   -1.678000 H         1 <1>         0.047500 
     28 H           1.695000   -4.835000   -0.662000 H         1 <1>         0.019000 
     29 C           1.464000   -2.765000   -0.080000 C.3       1 <1>         0.036200 
     30 H           0.721000   -3.095000    0.658000 H         1 <1>         0.032400 
     31 H           2.417000   -2.658000    0.451000 H         1 <1>         0.004500 
     32 O           3.778000    2.719000    0.870000 O.2       1 <1>        -0.396200 
     33 C           1.835000    3.982000   -0.629000 C.3       1 <1>        -0.093000 
     34 H           2.903000    4.131000   -0.815000 H         1 <1>         0.096800 
     35 H           1.476000    4.825000   -0.031000 H         1 <1>         0.056300 
     36 H           1.330000    3.955000   -1.600000 H         1 <1>         0.075700 
     37 Cl         -3.961000    0.526000    0.031000 Cl        1 <1>         0.092400 
@<TRIPOS>BOND
     1    2    1 1    
     2    1    3 ar   
     3    3    4 ar   
     4    4    5 1    
     5    4    6 ar   
     6    6    7 ar   
     7    7    8 ar   
     8    8    9 1    
     9    8    1 ar   
    10    7   10 1    
    11   10   11 am   
    12   11   12 1    
    13   12   13 1    
    14   12   14 1    
    15   12   15 1    
    16   15   16 2    
    17   16    6 1    
    18   16   17 1    
    19   17   18 2    
    20   18   19 1    
    21   18   20 1    
    22   20   21 1    
    23   20   22 1    
    24   20   23 1    
    25   23   24 1    
    26   23   25 1    
    27   23   26 1    
    28   26   27 1    
    29   26   28 1    
    30   26   29 1    
    31   29   30 1    
    32   29   31 1    
    33   29   17 1    
    34   11   32 2    
    35   10   33 1    
    36   33   34 1    
    37   33   35 1    
    38   33   36 1    
    39    3   37 1    
@<TRIPOS>SUBSTRUCTURE
     1 ****        2 TEMP              0 ****  ****    0 ROOT 
@<TRIPOS>SET
UNITY_3DHIT     STATIC     ATOMS    <user>   **** Atoms matching 3D or FLEX Search
0
@<TRIPOS>UNITY_BOND_ATTR
16 1
S I
19 1
S I
