#	Name:			Triazolam
#	Creating user name:	jeff
#	Creation time:		Tue Nov  4 15:19:56 2003

#	Modifying user name:	jeff
#	Modification time:	Tue Nov  4 15:19:56 2003

@<TRIPOS>MOLECULE
Triazolam
   35    38     1     0     1
SMALL
USER_CHARGES
****
From 3DB ct
@<TRIPOS>ATOM
      1 C           0.256000    2.184000    0.076000 C.ar      1 <1>         0.170800 
      2 C           0.054000    0.789000    0.166000 C.ar      1 <1>         0.058800 
      3 C           1.175000   -0.212000    0.190000 C.2       1 <1>         0.081300 
      4 N           2.247000   -0.133000    0.911000 N.2       1 <1>        -0.379200 
      5 C           2.427000    1.030000    1.777000 C.3       1 <1>         0.171900 
      6 H           3.337000    0.876000    2.368000 H         1 <1>         0.050200 
      7 H           1.606000    1.124000    2.499000 H         1 <1>         0.018300 
      8 C           2.581000    2.253000    0.957000 C.ar      1 <1>         0.182500 
      9 N           1.555000    2.748000    0.178000 N.pl3     1 <1>        -0.335900 
     10 C           2.084000    3.899000   -0.390000 C.ar      1 <1>         0.417000 
     11 N           3.314000    4.084000    0.057000 N.ar      1 <1>        -0.258500 
     12 N           3.626000    3.053000    0.896000 N.ar      1 <1>        -0.220000 
     13 C           1.435000    4.738000   -1.429000 C.3       1 <1>        -0.428900 
     14 H           2.199000    5.252000   -2.022000 H         1 <1>         0.132800 
     15 H           0.806000    5.506000   -0.969000 H         1 <1>         0.119500 
     16 H           0.836000    4.140000   -2.121000 H         1 <1>         0.160800 
     17 C           1.049000   -1.419000   -0.679000 C.ar      1 <1>         0.346800 
     18 C           1.489000   -2.642000   -0.151000 C.ar      1 <1>        -0.297800 
     19 H           1.907000   -2.689000    0.853000 H         1 <1>         0.170000 
     20 C           1.382000   -3.810000   -0.906000 C.ar      1 <1>         0.017900 
     21 H           1.716000   -4.759000   -0.491000 H         1 <1>         0.095000 
     22 C           0.846000   -3.761000   -2.192000 C.ar      1 <1>        -0.182200 
     23 H           0.763000   -4.672000   -2.782000 H         1 <1>         0.124700 
     24 C           0.425000   -2.542000   -2.730000 C.ar      1 <1>         0.105700 
     25 H           0.023000   -2.519000   -3.741000 H         1 <1>         0.073900 
     26 C           0.529000   -1.366000   -1.980000 C.ar      1 <1>        -0.419100 
     27 Cl          0.044000    0.111000   -2.736000 Cl        1 <1>         0.060000 
     28 C          -1.256000    0.278000    0.133000 C.ar      1 <1>         0.072000 
     29 H          -1.439000   -0.791000    0.215000 H         1 <1>         0.087900 
     30 C          -2.344000    1.136000   -0.008000 C.ar      1 <1>        -0.430100 
     31 C          -2.147000    2.508000   -0.114000 C.ar      1 <1>         0.177600 
     32 H          -2.995000    3.182000   -0.213000 H         1 <1>         0.072200 
     33 C          -0.853000    3.032000   -0.068000 C.ar      1 <1>        -0.261100 
     34 H          -0.755000    4.114000   -0.091000 H         1 <1>         0.147600 
     35 Cl         -3.940000    0.494000   -0.054000 Cl        1 <1>         0.097300 
@<TRIPOS>BOND
     1    1    2 ar   
     2    2    3 1    
     3    3    4 2    
     4    4    5 1    
     5    5    6 1    
     6    5    7 1    
     7    5    8 1    
     8    8    9 ar   
     9    9    1 1    
    10    9   10 ar   
    11   10   11 ar   
    12   11   12 ar   
    13   12    8 ar   
    14   10   13 1    
    15   13   14 1    
    16   13   15 1    
    17   13   16 1    
    18    3   17 1    
    19   17   18 ar   
    20   18   19 1    
    21   18   20 ar   
    22   20   21 1    
    23   20   22 ar   
    24   22   23 1    
    25   22   24 ar   
    26   24   25 1    
    27   24   26 ar   
    28   26   17 ar   
    29   26   27 1    
    30    2   28 ar   
    31   28   29 1    
    32   28   30 ar   
    33   30   31 ar   
    34   31   32 1    
    35   31   33 ar   
    36   33   34 1    
    37   33    1 ar   
    38   30   35 1    
@<TRIPOS>SUBSTRUCTURE
     1 ****        1 TEMP              0 ****  ****    0 ROOT 
@<TRIPOS>SET
UNITY_3DHIT     STATIC     ATOMS    <user>   **** Atoms matching 3D or FLEX Search
0
@<TRIPOS>UNITY_BOND_ATTR
3 1
S I
