#	Name:			U-35005
#	Creating user name:	jeff
#	Creation time:		Tue Nov  4 15:19:56 2003

#	Modifying user name:	jeff
#	Modification time:	Tue Nov  4 15:19:56 2003

@<TRIPOS>MOLECULE
U-35005
   35    38     1     0     1
SMALL
USER_CHARGES
****
From 3DB ct
@<TRIPOS>ATOM
      1 C           0.257000    2.180000    0.067000 C.ar      1 <1>         0.067800 
      2 C           0.053000    0.787000    0.153000 C.ar      1 <1>         0.137400 
      3 C           1.172000   -0.216000    0.190000 C.2       1 <1>         0.120000 
      4 N           2.238000   -0.139000    0.921000 N.2       1 <1>        -0.375200 
      5 C           2.410000    1.024000    1.788000 C.3       1 <1>         0.149000 
      6 H           3.313000    0.870000    2.389000 H         1 <1>         0.051400 
      7 H           1.582000    1.119000    2.502000 H         1 <1>         0.025700 
      8 C           2.573000    2.247000    0.969000 C.ar      1 <1>         0.185500 
      9 N           1.554000    2.743000    0.181000 N.pl3     1 <1>        -0.315400 
     10 C           2.090000    3.894000   -0.382000 C.ar      1 <1>         0.411300 
     11 N           3.316000    4.077000    0.077000 N.ar      1 <1>        -0.262700 
     12 N           3.619000    3.046000    0.918000 N.ar      1 <1>        -0.223300 
     13 C           1.451000    4.733000   -1.426000 C.3       1 <1>        -0.418800 
     14 H           2.220000    5.246000   -2.013000 H         1 <1>         0.128500 
     15 H           0.819000    5.502000   -0.972000 H         1 <1>         0.115500 
     16 H           0.857000    4.136000   -2.123000 H         1 <1>         0.160200 
     17 C           1.052000   -1.423000   -0.680000 C.ar      1 <1>         0.285400 
     18 C           1.495000   -2.645000   -0.152000 C.ar      1 <1>        -0.299800 
     19 H           1.909000   -2.693000    0.853000 H         1 <1>         0.169700 
     20 C           1.395000   -3.811000   -0.911000 C.ar      1 <1>         0.030400 
     21 H           1.731000   -4.760000   -0.497000 H         1 <1>         0.091500 
     22 C           0.864000   -3.760000   -2.199000 C.ar      1 <1>        -0.194100 
     23 H           0.787000   -4.671000   -2.792000 H         1 <1>         0.124700 
     24 C           0.440000   -2.542000   -2.735000 C.ar      1 <1>         0.113600 
     25 H           0.043000   -2.518000   -3.748000 H         1 <1>         0.067300 
     26 C           0.537000   -1.368000   -1.982000 C.ar      1 <1>        -0.384900 
     27 Cl          0.052000    0.110000   -2.736000 Cl        1 <1>         0.054400 
     28 C          -1.259000    0.281000    0.109000 C.ar      1 <1>        -0.208900 
     29 H          -1.453000   -0.787000    0.185000 H         1 <1>         0.152600 
     30 C          -2.349000    1.137000   -0.038000 C.ar      1 <1>        -0.098900 
     31 H          -3.360000    0.733000   -0.072000 H         1 <1>         0.120000 
     32 C          -2.145000    2.508000   -0.139000 C.ar      1 <1>        -0.087900 
     33 H          -2.997000    3.179000   -0.243000 H         1 <1>         0.121700 
     34 C          -0.851000    3.030000   -0.083000 C.ar      1 <1>        -0.137100 
     35 H          -0.750000    4.112000   -0.104000 H         1 <1>         0.123300 
@<TRIPOS>BOND
     1    1    2 ar   
     2    2    3 1    
     3    3    4 2    
     4    4    5 1    
     5    5    6 1    
     6    5    7 1    
     7    5    8 1    
     8    8    9 ar   
     9    9    1 1    
    10    9   10 ar   
    11   10   11 ar   
    12   11   12 ar   
    13   12    8 ar   
    14   10   13 1    
    15   13   14 1    
    16   13   15 1    
    17   13   16 1    
    18    3   17 1    
    19   17   18 ar   
    20   18   19 1    
    21   18   20 ar   
    22   20   21 1    
    23   20   22 ar   
    24   22   23 1    
    25   22   24 ar   
    26   24   25 1    
    27   24   26 ar   
    28   26   17 ar   
    29   26   27 1    
    30    2   28 ar   
    31   28   29 1    
    32   28   30 ar   
    33   30   31 1    
    34   30   32 ar   
    35   32   33 1    
    36   32   34 ar   
    37   34   35 1    
    38   34    1 ar   
@<TRIPOS>SUBSTRUCTURE
     1 ****        1 TEMP              0 ****  ****    0 ROOT 
@<TRIPOS>SET
UNITY_3DHIT     STATIC     ATOMS    <user>   **** Atoms matching 3D or FLEX Search
0
@<TRIPOS>UNITY_BOND_ATTR
3 1
S I
