MOL_07
  Cerius2 12110214443D 1   1.00000                          
 
 29 29  0  0  0  0  0  0  0  0999 V2000
   -3.2599    0.0969    0.2572 P   0  0  0  0  0  0
   -4.4339    1.1317    0.3301 O   0  0  0  0  0  0
   -1.9793    0.7615   -0.6093 N   0  0  0  0  0  0
   -0.9182   -0.2539   -0.6400 C   0  0  0  0  0  0
   -0.6081   -0.6238   -2.0919 C   0  0  0  0  0  0
    0.3228    0.2963    0.0143 C   0  0  0  0  0  0
    0.3234    1.4234    0.4621 O   0  0  0  0  0  0
    1.4321   -0.4641    0.1018 N   0  0  0  0  0  0
    2.7057   -0.0547    0.7116 C   0  0  0  0  0  0
    3.6708   -1.2543    0.6060 C   0  0  0  0  0  0
    2.7088   -2.4617    0.4513 C   0  0  0  0  0  0
    1.5674   -1.8465   -0.3923 C   0  0  0  0  0  0
    3.2735    1.1268   -0.0318 C   0  0  0  0  0  0
    4.3323    1.6183    0.3217 O   0  0  0  0  0  0
    2.6741    1.5917   -0.9869 O   0  5  0  0  0  0
   -2.7826   -0.2545    1.7074 O   0  5  0  0  0  0
   -3.7552   -1.2052   -0.4595 O   0  5  0  0  0  0
   -2.2998    0.8748   -1.5593 H   0  0  0  0  0  0
   -1.2495   -1.1420   -0.1017 H   0  0  0  0  0  0
   -0.2768    0.2642   -2.6302 H   0  0  0  0  0  0
    0.1792   -1.3773   -2.1147 H   0  0  0  0  0  0
   -1.5057   -1.0218   -2.5651 H   0  0  0  0  0  0
    2.5491    0.2040    1.7588 H   0  0  0  0  0  0
    4.3121   -1.1574   -0.2700 H   0  0  0  0  0  0
    4.2674   -1.3503    1.5132 H   0  0  0  0  0  0
    3.1924   -3.2809   -0.0809 H   0  0  0  0  0  0
    2.3382   -2.7929    1.4214 H   0  0  0  0  0  0
    0.6412   -2.4002   -0.2387 H   0  0  0  0  0  0
    1.8366   -1.8415   -1.4486 H   0  0  0  0  0  0
  1  2  2  0  0  0
  1  3  1  0  0  0
  1 16  1  0  0  0
  1 17  1  0  0  0
  3  4  1  0  0  0
  3 18  1  0  0  0
  4  5  1  0  0  0
  4  6  1  0  0  0
  4 19  1  0  0  0
  5 20  1  0  0  0
  5 21  1  0  0  0
  5 22  1  0  0  0
  6  7  2  0  0  0
  6  8  1  0  0  0
  8  9  1  0  0  0
  8 12  1  0  0  0
  9 10  1  0  0  0
  9 13  1  0  0  0
  9 23  1  0  0  0
 10 11  1  0  0  0
 10 24  1  0  0  0
 10 25  1  0  0  0
 11 12  1  0  0  0
 11 26  1  0  0  0
 11 27  1  0  0  0
 12 28  1  0  0  0
 12 29  1  0  0  0
 13 14  2  0  0  0
 13 15  1  0  0  0
M  CHG  3  15  -1  16  -1  17  -1
M  END
>  <Activity>
6.11

>  <set>
1

>  <Min_dist>
999.9

>  <Avg_dist>
999.9

$$$$
MOL_08
  Cerius2 12110214443D 1   1.00000                          
 
 28 29  0  0  0  0  0  0  0  0999 V2000
    1.1716    0.1900    0.2879 N   0  0  0  0  0  0
    0.9812   -1.1303   -0.1880 N   0  0  0  0  0  0
    2.0832   -2.0967   -0.1896 C   0  0  0  0  0  0
    2.9629   -1.7852    0.9998 C   0  0  0  0  0  0
    3.1385   -0.5677    1.4387 C   0  0  0  0  0  0
    2.4761    0.6278    0.7930 C   0  0  0  0  0  0
    3.3240    1.1286   -0.3478 C   0  0  0  0  0  0
    4.4646    1.5069   -0.1395 O   0  0  0  0  0  0
    2.8696    1.1556   -1.4793 O   0  5  0  0  0  0
   -0.2895   -1.2304   -0.5747 C   0  0  0  0  0  0
   -0.8177   -2.2218   -1.0389 O   0  0  0  0  0  0
   -0.8897   -0.0387   -0.3605 N   0  0  0  0  0  0
    0.0057    0.8233    0.1704 C   0  0  0  0  0  0
   -0.2133    1.9779    0.4807 O   0  0  0  0  0  0
   -2.2916    0.2692   -0.6537 C   0  0  0  0  0  0
   -3.1507   -0.0485    0.5718 C   0  0  0  0  0  0
   -4.5928    0.2683    0.2701 C   0  0  0  0  0  0
   -5.4481    0.0853    1.1202 O   0  0  0  0  0  0
   -4.9047    0.7076   -0.8241 O   0  5  0  0  0  0
    1.6880   -3.1088   -0.1027 H   0  0  0  0  0  0
    2.6583   -2.0008   -1.1105 H   0  0  0  0  0  0
    3.4636   -2.5981    1.5046 H   0  0  0  0  0  0
    3.7793   -0.4095    2.2935 H   0  0  0  0  0  0
    2.3412    1.4192    1.5302 H   0  0  0  0  0  0
   -2.3874    1.3266   -0.9004 H   0  0  0  0  0  0
   -2.6268   -0.3327   -1.4984 H   0  0  0  0  0  0
   -3.0548   -1.1059    0.8185 H   0  0  0  0  0  0
   -2.8155    0.5535    1.4164 H   0  0  0  0  0  0
  1  2  1  0  0  0
  1  6  1  0  0  0
  1 13  1  0  0  0
  2  3  1  0  0  0
  2 10  1  0  0  0
  3  4  1  0  0  0
  3 20  1  0  0  0
  3 21  1  0  0  0
  4  5  2  0  0  0
  4 22  1  0  0  0
  5  6  1  0  0  0
  5 23  1  0  0  0
  6  7  1  0  0  0
  6 24  1  0  0  0
  7  8  2  0  0  0
  7  9  1  0  0  0
 10 11  2  0  0  0
 10 12  1  0  0  0
 12 13  1  0  0  0
 12 15  1  0  0  0
 13 14  2  0  0  0
 15 16  1  0  0  0
 15 25  1  0  0  0
 15 26  1  0  0  0
 16 17  1  0  0  0
 16 27  1  0  0  0
 16 28  1  0  0  0
 17 18  2  0  0  0
 17 19  1  0  0  0
M  CHG  2   9  -1  19  -1
M  END
>  <Activity>
9

>  <set>
1

>  <Min_dist>
999.9

>  <Avg_dist>
999.9

$$$$
MOL_09
  Cerius2 12110214443D 1   1.00000                          
 
 28 28  0  0  0  0  0  0  0  0999 V2000
    4.3882    0.0012    0.0024 S   0  0  0  0  0  0
    2.7660    0.6877   -0.4308 C   0  0  0  0  0  0
    1.6761   -0.3363   -0.1077 C   0  0  0  0  0  0
    0.3284    0.2340   -0.4675 C   0  0  0  0  0  0
    0.2476    1.3497   -0.9362 O   0  0  0  0  0  0
   -0.7871   -0.4958   -0.2685 N   0  0  0  0  0  0
   -2.1591   -0.0642   -0.5732 C   0  0  0  0  0  0
   -3.0988   -1.2323   -0.2074 C   0  0  0  0  0  0
   -2.1550   -2.4632   -0.2474 C   0  0  0  0  0  0
   -0.8330   -1.8614    0.2848 C   0  0  0  0  0  0
   -2.5083    1.1508    0.2472 C   0  0  0  0  0  0
   -3.6093    1.6642    0.1385 O   0  0  0  0  0  0
   -1.6900    1.6206    1.0200 O   0  5  0  0  0  0
    1.7094   -0.6623    1.3868 C   0  0  0  0  0  0
    5.1791    1.0304   -0.3503 H   0  0  0  0  0  0
    2.5914    1.5976    0.1436 H   0  0  0  0  0  0
    2.7422    0.9200   -1.4955 H   0  0  0  0  0  0
    1.8507   -1.2461   -0.6820 H   0  0  0  0  0  0
   -2.2485    0.1649   -1.6351 H   0  0  0  0  0  0
   -3.5126   -1.0960    0.7918 H   0  0  0  0  0  0
   -3.8948   -1.3326   -0.9453 H   0  0  0  0  0  0
   -2.5176   -3.2551    0.4080 H   0  0  0  0  0  0
   -2.0316   -2.8280   -1.2671 H   0  0  0  0  0  0
    0.0179   -2.4454   -0.0659 H   0  0  0  0  0  0
   -0.8450   -1.8235    1.3741 H   0  0  0  0  0  0
    1.5348    0.2475    1.9611 H   0  0  0  0  0  0
    0.9330   -1.3919    1.6169 H   0  0  0  0  0  0
    2.6842   -1.0748    1.6470 H   0  0  0  0  0  0
  1  2  1  0  0  0
  1 15  1  0  0  0
  2  3  1  0  0  0
  2 16  1  0  0  0
  2 17  1  0  0  0
  3  4  1  0  0  0
  3 14  1  0  0  0
  3 18  1  0  0  0
  4  5  2  0  0  0
  4  6  1  0  0  0
  6  7  1  0  0  0
  6 10  1  0  0  0
  7  8  1  0  0  0
  7 11  1  0  0  0
  7 19  1  0  0  0
  8  9  1  0  0  0
  8 20  1  0  0  0
  8 21  1  0  0  0
  9 10  1  0  0  0
  9 22  1  0  0  0
  9 23  1  0  0  0
 10 24  1  0  0  0
 10 25  1  0  0  0
 11 12  2  0  0  0
 11 13  1  0  0  0
 14 26  1  0  0  0
 14 27  1  0  0  0
 14 28  1  0  0  0
M  CHG  1  13  -1
M  END
>  <Activity>
7.64

>  <set>
1

>  <Min_dist>
999.9

>  <Avg_dist>
999.9

$$$$
MOL_12
  Cerius2 12110214443D 1   1.00000                          
 
 29 30  0  0  0  0  0  0  0  0999 V2000
    3.8691   -0.0733   -1.1453 S   0  0  0  0  0  0
    2.7239    0.5048    0.1372 C   0  0  0  0  0  0
    1.5022   -0.4092    0.3296 C   0  0  0  0  0  0
    1.6584   -0.1682    1.8403 C   0  0  0  0  0  0
    3.1451    0.1100    1.5626 C   0  0  0  0  0  0
    0.2286    0.1569   -0.2435 C   0  0  0  0  0  0
    0.2386    1.2385   -0.7922 O   0  0  0  0  0  0
   -0.9217   -0.5387   -0.1464 N   0  0  0  0  0  0
   -2.2302   -0.1068   -0.6590 C   0  0  0  0  0  0
   -3.2395   -1.2310   -0.3443 C   0  0  0  0  0  0
   -2.3304   -2.4771   -0.1762 C   0  0  0  0  0  0
   -1.0750   -1.8617    0.4858 C   0  0  0  0  0  0
   -2.6532    1.1679    0.0248 C   0  0  0  0  0  0
   -3.7168    1.6906   -0.2634 O   0  0  0  0  0  0
   -1.9318    1.6767    0.8664 O   0  5  0  0  0  0
    4.7994    0.8960   -1.0818 H   0  0  0  0  0  0
    2.4682    1.5592    0.0323 H   0  0  0  0  0  0
    1.6789   -1.4427    0.0317 H   0  0  0  0  0  0
    1.1115    0.7023    2.2025 H   0  0  0  0  0  0
    1.4863   -1.0589    2.4447 H   0  0  0  0  0  0
    3.7709   -0.7815    1.6018 H   0  0  0  0  0  0
    3.5502    0.9386    2.1434 H   0  0  0  0  0  0
   -2.1732    0.0493   -1.7362 H   0  0  0  0  0  0
   -3.7775   -1.0187    0.5796 H   0  0  0  0  0  0
   -3.9337   -1.3692   -1.1731 H   0  0  0  0  0  0
   -2.7962   -3.2154    0.4765 H   0  0  0  0  0  0
   -2.0833   -2.9138   -1.1438 H   0  0  0  0  0  0
   -0.2005   -2.4825    0.2911 H   0  0  0  0  0  0
   -1.2291   -1.7479    1.5588 H   0  0  0  0  0  0
  1  2  1  0  0  0
  1 16  1  0  0  0
  2  3  1  0  0  0
  2  5  1  0  0  0
  2 17  1  0  0  0
  3  4  1  0  0  0
  3  6  1  0  0  0
  3 18  1  0  0  0
  4  5  1  0  0  0
  4 19  1  0  0  0
  4 20  1  0  0  0
  5 21  1  0  0  0
  5 22  1  0  0  0
  6  7  2  0  0  0
  6  8  1  0  0  0
  8  9  1  0  0  0
  8 12  1  0  0  0
  9 10  1  0  0  0
  9 13  1  0  0  0
  9 23  1  0  0  0
 10 11  1  0  0  0
 10 24  1  0  0  0
 10 25  1  0  0  0
 11 12  1  0  0  0
 11 26  1  0  0  0
 11 27  1  0  0  0
 12 28  1  0  0  0
 12 29  1  0  0  0
 13 14  2  0  0  0
 13 15  1  0  0  0
M  CHG  1  15  -1
M  END
>  <Activity>
7.31

>  <set>
1

>  <Min_dist>
999.9

>  <Avg_dist>
999.9

$$$$
MOL_14
  Cerius2 12110214443D 1   1.00000                          
 
 45 46  0  0  0  0  0  0  0  0999 V2000
   -3.0311    0.6269    1.7665 S   0  0  0  0  0  0
   -2.4019    0.1618    0.1299 C   0  0  0  0  0  0
   -3.4021    0.5962   -0.9433 C   0  0  0  0  0  0
   -4.7250   -0.0839   -0.7018 C   0  0  0  0  0  0
   -5.6760    0.5191    0.1000 C   0  0  0  0  0  0
   -6.8895   -0.1048    0.3216 C   0  0  0  0  0  0
   -7.1522   -1.3315   -0.2591 C   0  0  0  0  0  0
   -6.2016   -1.9340   -1.0617 C   0  0  0  0  0  0
   -4.9898   -1.3081   -1.2867 C   0  0  0  0  0  0
   -1.0790    0.8419   -0.1115 C   0  0  0  0  0  0
   -1.0460    1.9360   -0.6338 O   0  0  0  0  0  0
    0.0676    0.2344    0.2529 N   0  0  0  0  0  0
    1.3536    0.8955    0.0182 C   0  0  0  0  0  0
    1.7184    1.7481    1.2351 C   0  0  0  0  0  0
    2.4205   -0.1454   -0.2039 C   0  0  0  0  0  0
    2.1347   -1.3236   -0.1694 O   0  0  0  0  0  0
    3.6922    0.2329   -0.4407 N   0  0  0  0  0  0
    4.8265   -0.6731   -0.6733 C   0  0  0  0  0  0
    6.0702    0.2051   -0.9250 C   0  0  0  0  0  0
    5.4560    1.5552   -1.3803 C   0  0  0  0  0  0
    4.1750    1.6238   -0.5158 C   0  0  0  0  0  0
    5.0476   -1.5394    0.5398 C   0  0  0  0  0  0
    5.9887   -2.4000    0.5458 O   0  0  0  0  0  0
    4.2938   -1.4118    1.5604 O   0  5  0  0  0  0
   -3.1220    1.9598    1.6117 H   0  0  0  0  0  0
   -2.2682   -0.9190    0.0858 H   0  0  0  0  0  0
   -3.5358    1.6771   -0.8991 H   0  0  0  0  0  0
   -3.0240    0.3168   -1.9267 H   0  0  0  0  0  0
   -5.4707    1.4774    0.5537 H   0  0  0  0  0  0
   -7.6322    0.3659    0.9486 H   0  0  0  0  0  0
   -8.1000   -1.8192   -0.0854 H   0  0  0  0  0  0
   -6.4067   -2.8925   -1.5151 H   0  0  0  0  0  0
   -4.2470   -1.7789   -1.9138 H   0  0  0  0  0  0
    0.0412   -0.6407    0.6706 H   0  0  0  0  0  0
    1.2790    1.5330   -0.8629 H   0  0  0  0  0  0
    1.7930    1.1107    2.1161 H   0  0  0  0  0  0
    2.6752    2.2401    1.0604 H   0  0  0  0  0  0
    0.9467    2.5011    1.3957 H   0  0  0  0  0  0
    4.6302   -1.2965   -1.5457 H   0  0  0  0  0  0
    6.6443    0.3326   -0.0072 H   0  0  0  0  0  0
    6.6906   -0.2216   -1.7131 H   0  0  0  0  0  0
    6.1261    2.3849   -1.1555 H   0  0  0  0  0  0
    5.2066    1.5329   -2.4412 H   0  0  0  0  0  0
    3.4304    2.2623   -0.9910 H   0  0  0  0  0  0
    4.4105    1.9924    0.4826 H   0  0  0  0  0  0
  1  2  1  0  0  0
  1 25  1  0  0  0
  2  3  1  0  0  0
  2 10  1  0  0  0
  2 26  1  0  0  0
  3  4  1  0  0  0
  3 27  1  0  0  0
  3 28  1  0  0  0
  4  5  1  0  0  0
  4  9  2  0  0  0
  5  6  2  0  0  0
  5 29  1  0  0  0
  6  7  1  0  0  0
  6 30  1  0  0  0
  7  8  2  0  0  0
  7 31  1  0  0  0
  8  9  1  0  0  0
  8 32  1  0  0  0
  9 33  1  0  0  0
 10 11  2  0  0  0
 10 12  1  0  0  0
 12 13  1  0  0  0
 12 34  1  0  0  0
 13 14  1  0  0  0
 13 15  1  0  0  0
 13 35  1  0  0  0
 14 36  1  0  0  0
 14 37  1  0  0  0
 14 38  1  0  0  0
 15 16  2  0  0  0
 15 17  1  0  0  0
 17 18  1  0  0  0
 17 21  1  0  0  0
 18 19  1  0  0  0
 18 22  1  0  0  0
 18 39  1  0  0  0
 19 20  1  0  0  0
 19 40  1  0  0  0
 19 41  1  0  0  0
 20 21  1  0  0  0
 20 42  1  0  0  0
 20 43  1  0  0  0
 21 44  1  0  0  0
 21 45  1  0  0  0
 22 23  2  0  0  0
 22 24  1  0  0  0
M  CHG  1  24  -1
M  END
>  <Activity>
7.3

>  <set>
1

>  <Min_dist>
999.9

>  <Avg_dist>
999.9

$$$$
MOL_15
  Cerius2 12110214443D 1   1.00000                          
 
 59 60  0  0  0  0  0  0  0  0999 V2000
    4.5852   -1.3681   -0.5715 N   0  0  0  0  0  0
    4.9905   -2.7262   -0.1803 C   0  0  0  0  0  0
    6.1703   -3.1317   -1.0888 C   0  0  0  0  0  0
    5.9974   -2.2018   -2.3188 C   0  0  0  0  0  0
    5.4694   -0.9049   -1.6563 C   0  0  0  0  0  0
    5.4276   -2.7352    1.2619 C   0  0  0  0  0  0
    5.8034   -3.7740    1.7787 O   0  0  0  0  0  0
    5.4055   -1.7036    1.9122 O   0  5  0  0  0  0
    3.5696   -0.6654   -0.0317 C   0  0  0  0  0  0
    2.9015   -1.1504    0.8567 O   0  0  0  0  0  0
    3.2643    0.7229   -0.5321 C   0  0  0  0  0  0
    2.1221    1.2711    0.2113 N   0  3  0  0  0  0
    1.3615    0.6082    0.1963 H   0  0  0  0  0  0
    2.3957    1.4474    1.1663 H   0  0  0  0  0  0
    1.6887    2.5279   -0.4138 C   0  0  0  0  0  0
    0.3106    2.9169    0.1251 C   0  0  0  0  0  0
   -0.6954    1.8114   -0.2014 C   0  0  0  0  0  0
   -2.0735    2.2004    0.3376 C   0  0  0  0  0  0
   -3.0368    1.1418    0.0249 N   0  0  0  0  0  0
   -4.3236    1.2679    0.4053 C   0  0  0  0  0  0
   -4.6848    2.2595    1.0076 O   0  0  0  0  0  0
   -5.2089    0.2951    0.1180 O   0  0  0  0  0  0
   -6.5952    0.4308    0.5277 C   0  0  0  0  0  0
   -7.3704   -0.7843    0.0879 C   0  0  0  0  0  0
   -7.4716   -1.8799    0.9248 C   0  0  0  0  0  0
   -8.1826   -2.9946    0.5213 C   0  0  0  0  0  0
   -8.7928   -3.0135   -0.7190 C   0  0  0  0  0  0
   -8.6923   -1.9176   -1.5555 C   0  0  0  0  0  0
   -7.9850   -0.8013   -1.1503 C   0  0  0  0  0  0
    2.6796    3.6168   -0.0922 C   0  0  0  0  0  0
    3.2835    3.5983    0.9673 O   0  0  0  0  0  0
    2.8777    4.5166   -0.8914 O   0  5  0  0  0  0
    4.4861    1.6201   -0.3243 C   0  0  0  0  0  0
    4.1591   -3.4166   -0.3222 H   0  0  0  0  0  0
    7.1221   -2.9419   -0.5927 H   0  0  0  0  0  0
    6.0891   -4.1783   -1.3822 H   0  0  0  0  0  0
    6.9527   -2.0268   -2.8136 H   0  0  0  0  0  0
    5.2663   -2.6094   -3.0170 H   0  0  0  0  0  0
    4.9065   -0.3125   -2.3777 H   0  0  0  0  0  0
    6.2964   -0.3230   -1.2493 H   0  0  0  0  0  0
    3.0206    0.6810   -1.5937 H   0  0  0  0  0  0
    1.6321    2.3956   -1.4943 H   0  0  0  0  0  0
    0.3671    3.0491    1.2056 H   0  0  0  0  0  0
   -0.0110    3.8494   -0.3387 H   0  0  0  0  0  0
   -0.7520    1.6791   -1.2819 H   0  0  0  0  0  0
   -0.3738    0.8789    0.2625 H   0  0  0  0  0  0
   -2.0169    2.3327    1.4181 H   0  0  0  0  0  0
   -2.3951    3.1329   -0.1263 H   0  0  0  0  0  0
   -2.7485    0.3503   -0.4559 H   0  0  0  0  0  0
   -6.6462    0.5212    1.6128 H   0  0  0  0  0  0
   -7.0243    1.3214    0.0685 H   0  0  0  0  0  0
   -6.9949   -1.8651    1.8938 H   0  0  0  0  0  0
   -8.2611   -3.8508    1.1748 H   0  0  0  0  0  0
   -9.3477   -3.8847   -1.0345 H   0  0  0  0  0  0
   -9.1688   -1.9326   -2.5247 H   0  0  0  0  0  0
   -7.9065    0.0549   -1.8038 H   0  0  0  0  0  0
    4.6165    1.8156    0.7400 H   0  0  0  0  0  0
    5.3736    1.1211   -0.7135 H   0  0  0  0  0  0
    4.3386    2.5626   -0.8515 H   0  0  0  0  0  0
  1  2  1  0  0  0
  1  5  1  0  0  0
  1  9  1  0  0  0
  2  3  1  0  0  0
  2  6  1  0  0  0
  2 34  1  0  0  0
  3  4  1  0  0  0
  3 35  1  0  0  0
  3 36  1  0  0  0
  4  5  1  0  0  0
  4 37  1  0  0  0
  4 38  1  0  0  0
  5 39  1  0  0  0
  5 40  1  0  0  0
  6  7  2  0  0  0
  6  8  1  0  0  0
  9 10  2  0  0  0
  9 11  1  0  0  0
 11 12  1  0  0  0
 11 33  1  0  0  0
 11 41  1  0  0  0
 12 13  1  0  0  0
 12 14  1  0  0  0
 12 15  1  0  0  0
 15 16  1  0  0  0
 15 30  1  0  0  0
 15 42  1  0  0  0
 16 17  1  0  0  0
 16 43  1  0  0  0
 16 44  1  0  0  0
 17 18  1  0  0  0
 17 45  1  0  0  0
 17 46  1  0  0  0
 18 19  1  0  0  0
 18 47  1  0  0  0
 18 48  1  0  0  0
 19 20  1  0  0  0
 19 49  1  0  0  0
 20 21  2  0  0  0
 20 22  1  0  0  0
 22 23  1  0  0  0
 23 24  1  0  0  0
 23 50  1  0  0  0
 23 51  1  0  0  0
 24 25  1  0  0  0
 24 29  2  0  0  0
 25 26  2  0  0  0
 25 52  1  0  0  0
 26 27  1  0  0  0
 26 53  1  0  0  0
 27 28  2  0  0  0
 27 54  1  0  0  0
 28 29  1  0  0  0
 28 55  1  0  0  0
 29 56  1  0  0  0
 30 31  2  0  0  0
 30 32  1  0  0  0
 33 57  1  0  0  0
 33 58  1  0  0  0
 33 59  1  0  0  0
M  CHG  3   8  -1  12   1  32  -1
M  END
>  <Activity>
8.54

>  <set>
1

>  <Min_dist>
999.9

>  <Avg_dist>
999.9

$$$$
MOL_16
  Cerius2 12110214443D 1   1.00000                          
 
 51 52  0  0  0  0  0  0  0  0999 V2000
    2.9455   -0.1165    0.6578 N   0  0  0  0  0  0
    1.6360    0.1380    0.7211 C   0  0  0  0  0  0
    0.8987   -0.6458    1.2805 O   0  0  0  0  0  0
    1.0634    1.3927    0.1034 C   0  0  0  0  0  0
    1.4679    2.5881    0.9702 C   0  0  0  0  0  0
    2.8724    3.0560    0.6039 C   0  0  0  0  0  0
    4.0104    2.0751    0.8560 C   0  0  0  0  0  0
    3.8574    0.8219   -0.0101 C   0  0  0  0  0  0
    5.2242    0.1604   -0.1978 C   0  0  0  0  0  0
   -0.4013    1.2936    0.0513 N   0  3  0  0  0  0
   -0.7645    1.1848    0.9864 H   0  0  0  0  0  0
   -0.7807    2.1325   -0.3614 H   0  0  0  0  0  0
   -0.7848    0.1314   -0.7612 C   0  0  0  0  0  0
   -2.3103    0.0282   -0.8155 C   0  0  0  0  0  0
   -2.8611   -0.1368    0.6023 C   0  0  0  0  0  0
   -4.3637   -0.2385    0.5488 C   0  0  0  0  0  0
   -4.9686   -1.4746    0.4187 C   0  0  0  0  0  0
   -6.3469   -1.5679    0.3696 C   0  0  0  0  0  0
   -7.1204   -0.4251    0.4511 C   0  0  0  0  0  0
   -6.5155    0.8109    0.5821 C   0  0  0  0  0  0
   -5.1374    0.9038    0.6356 C   0  0  0  0  0  0
   -0.2423    0.2939   -2.1578 C   0  0  0  0  0  0
   -0.0905    1.4600   -2.6513 O   0  0  0  0  0  0
    0.0650   -0.7348   -2.8461 O   0  5  0  0  0  0
    3.4779   -1.3390    1.2647 C   0  0  0  0  0  0
    3.4665   -2.4509    0.2476 C   0  0  0  0  0  0
    3.8719   -3.5602    0.5521 O   0  0  0  0  0  0
    3.0519   -2.2416   -0.8802 O   0  5  0  0  0  0
    1.4603    1.5194   -0.9038 H   0  0  0  0  0  0
    0.7629    3.4040    0.8111 H   0  0  0  0  0  0
    1.4475    2.2957    2.0200 H   0  0  0  0  0  0
    2.8765    3.3113   -0.4558 H   0  0  0  0  0  0
    3.0815    3.9660    1.1663 H   0  0  0  0  0  0
    4.9587    2.5588    0.6217 H   0  0  0  0  0  0
    4.0080    1.7864    1.9070 H   0  0  0  0  0  0
    3.4479    1.0984   -0.9816 H   0  0  0  0  0  0
    5.1144   -0.7317   -0.8145 H   0  0  0  0  0  0
    5.9020    0.8595   -0.6876 H   0  0  0  0  0  0
    5.6298   -0.1180    0.7749 H   0  0  0  0  0  0
   -0.3749   -0.7748   -0.3154 H   0  0  0  0  0  0
   -2.7202    0.9344   -1.2614 H   0  0  0  0  0  0
   -2.5949   -0.8342   -1.4185 H   0  0  0  0  0  0
   -2.4513   -1.0430    1.0482 H   0  0  0  0  0  0
   -2.5766    0.7256    1.2052 H   0  0  0  0  0  0
   -4.3644   -2.3675    0.3550 H   0  0  0  0  0  0
   -6.8195   -2.5336    0.2672 H   0  0  0  0  0  0
   -8.1972   -0.4979    0.4120 H   0  0  0  0  0  0
   -7.1198    1.7038    0.6455 H   0  0  0  0  0  0
   -4.6648    1.8695    0.7380 H   0  0  0  0  0  0
    4.5002   -1.1631    1.5993 H   0  0  0  0  0  0
    2.8598   -1.6202    2.1174 H   0  0  0  0  0  0
  1  2  1  0  0  0
  1  8  1  0  0  0
  1 25  1  0  0  0
  2  3  2  0  0  0
  2  4  1  0  0  0
  4  5  1  0  0  0
  4 10  1  0  0  0
  4 29  1  0  0  0
  5  6  1  0  0  0
  5 30  1  0  0  0
  5 31  1  0  0  0
  6  7  1  0  0  0
  6 32  1  0  0  0
  6 33  1  0  0  0
  7  8  1  0  0  0
  7 34  1  0  0  0
  7 35  1  0  0  0
  8  9  1  0  0  0
  8 36  1  0  0  0
  9 37  1  0  0  0
  9 38  1  0  0  0
  9 39  1  0  0  0
 10 11  1  0  0  0
 10 12  1  0  0  0
 10 13  1  0  0  0
 13 14  1  0  0  0
 13 22  1  0  0  0
 13 40  1  0  0  0
 14 15  1  0  0  0
 14 41  1  0  0  0
 14 42  1  0  0  0
 15 16  1  0  0  0
 15 43  1  0  0  0
 15 44  1  0  0  0
 16 17  1  0  0  0
 16 21  2  0  0  0
 17 18  2  0  0  0
 17 45  1  0  0  0
 18 19  1  0  0  0
 18 46  1  0  0  0
 19 20  2  0  0  0
 19 47  1  0  0  0
 20 21  1  0  0  0
 20 48  1  0  0  0
 21 49  1  0  0  0
 22 23  2  0  0  0
 22 24  1  0  0  0
 25 26  1  0  0  0
 25 50  1  0  0  0
 25 51  1  0  0  0
 26 27  2  0  0  0
 26 28  1  0  0  0
M  CHG  3  10   1  24  -1  28  -1
M  END
>  <Activity>
8.52

>  <set>
1

>  <Min_dist>
999.9

>  <Avg_dist>
999.9

$$$$
MOL_18
  Cerius2 12110214443D 1   1.00000                          
 
 48 49  0  0  0  0  0  0  0  0999 V2000
    3.1949   -0.2208   -0.6248 N   0  0  0  0  0  0
    4.2306   -1.2602   -0.5332 C   0  0  0  0  0  0
    5.5073   -0.6938   -1.1896 C   0  0  0  0  0  0
    4.9558    0.4199   -2.1184 C   0  0  0  0  0  0
    3.7731    0.9663   -1.2804 C   0  0  0  0  0  0
    4.5003   -1.5890    0.9125 C   0  0  0  0  0  0
    5.3324   -2.4328    1.2011 O   0  0  0  0  0  0
    3.8865   -1.0114    1.7941 O   0  5  0  0  0  0
    1.9254   -0.3363   -0.1872 C   0  0  0  0  0  0
    1.5552   -1.3665    0.3348 O   0  0  0  0  0  0
    0.9658    0.8148   -0.3465 C   0  0  0  0  0  0
   -0.3432    0.4410    0.2055 N   0  3  0  0  0  0
   -0.6320   -0.4440   -0.1835 H   0  0  0  0  0  0
   -0.2746    0.3610    1.2090 H   0  0  0  0  0  0
   -1.3317    1.4723   -0.1371 C   0  0  0  0  0  0
   -2.7401    0.9376    0.1299 C   0  0  0  0  0  0
   -2.9839   -0.3069   -0.7261 C   0  0  0  0  0  0
   -4.3711   -0.8336   -0.4632 C   0  0  0  0  0  0
   -5.4359   -0.3859   -1.2226 C   0  0  0  0  0  0
   -6.7084   -0.8690   -0.9814 C   0  0  0  0  0  0
   -6.9161   -1.8001    0.0190 C   0  0  0  0  0  0
   -5.8512   -2.2485    0.7778 C   0  0  0  0  0  0
   -4.5780   -1.7686    0.5337 C   0  0  0  0  0  0
   -1.0915    2.6981    0.7061 C   0  0  0  0  0  0
   -0.6281    2.5782    1.8881 O   0  0  0  0  0  0
   -1.3518    3.8553    0.2376 O   0  5  0  0  0  0
    1.5051    2.0356    0.4016 C   0  0  0  0  0  0
    3.9061   -2.1548   -1.0647 H   0  0  0  0  0  0
    6.1740   -0.2732   -0.4368 H   0  0  0  0  0  0
    6.0163   -1.4632   -1.7702 H   0  0  0  0  0  0
    5.7047    1.1936   -2.2881 H   0  0  0  0  0  0
    4.6058    0.0033   -3.0629 H   0  0  0  0  0  0
    3.0351    1.4388   -1.9287 H   0  0  0  0  0  0
    4.1324    1.6747   -0.5339 H   0  0  0  0  0  0
    0.8589    1.0549   -1.4043 H   0  0  0  0  0  0
   -1.2354    1.7320   -1.1913 H   0  0  0  0  0  0
   -2.8364    0.6780    1.1841 H   0  0  0  0  0  0
   -3.4735    1.7028   -0.1243 H   0  0  0  0  0  0
   -2.8876   -0.0472   -1.7804 H   0  0  0  0  0  0
   -2.2505   -1.0721   -0.4719 H   0  0  0  0  0  0
   -5.2736    0.3416   -2.0042 H   0  0  0  0  0  0
   -7.5404   -0.5187   -1.5742 H   0  0  0  0  0  0
   -7.9104   -2.1771    0.2079 H   0  0  0  0  0  0
   -6.0135   -2.9758    1.5596 H   0  0  0  0  0  0
   -3.7460   -2.1189    1.1265 H   0  0  0  0  0  0
    1.4357    1.8634    1.4757 H   0  0  0  0  0  0
    2.5470    2.1994    0.1264 H   0  0  0  0  0  0
    0.9167    2.9138    0.1357 H   0  0  0  0  0  0
  1  2  1  0  0  0
  1  5  1  0  0  0
  1  9  1  0  0  0
  2  3  1  0  0  0
  2  6  1  0  0  0
  2 28  1  0  0  0
  3  4  1  0  0  0
  3 29  1  0  0  0
  3 30  1  0  0  0
  4  5  1  0  0  0
  4 31  1  0  0  0
  4 32  1  0  0  0
  5 33  1  0  0  0
  5 34  1  0  0  0
  6  7  2  0  0  0
  6  8  1  0  0  0
  9 10  2  0  0  0
  9 11  1  0  0  0
 11 12  1  0  0  0
 11 27  1  0  0  0
 11 35  1  0  0  0
 12 13  1  0  0  0
 12 14  1  0  0  0
 12 15  1  0  0  0
 15 16  1  0  0  0
 15 24  1  0  0  0
 15 36  1  0  0  0
 16 17  1  0  0  0
 16 37  1  0  0  0
 16 38  1  0  0  0
 17 18  1  0  0  0
 17 39  1  0  0  0
 17 40  1  0  0  0
 18 19  1  0  0  0
 18 23  2  0  0  0
 19 20  2  0  0  0
 19 41  1  0  0  0
 20 21  1  0  0  0
 20 42  1  0  0  0
 21 22  2  0  0  0
 21 43  1  0  0  0
 22 23  1  0  0  0
 22 44  1  0  0  0
 23 45  1  0  0  0
 24 25  2  0  0  0
 24 26  1  0  0  0
 27 46  1  0  0  0
 27 47  1  0  0  0
 27 48  1  0  0  0
M  CHG  3   8  -1  12   1  26  -1
M  END
>  <Activity>
8.92

>  <set>
1

>  <Min_dist>
999.9

>  <Avg_dist>
999.9

$$$$
MOL_19
  Cerius2 12110214443D 1   1.00000                          
 
 60 61  0  0  0  0  0  0  0  0999 V2000
   -2.5348   -1.3986    0.2363 N   0  0  0  0  0  0
   -3.0708   -2.6734   -0.2629 C   0  0  0  0  0  0
   -4.3370   -2.9916    0.5599 C   0  0  0  0  0  0
   -4.1265   -2.1645    1.8556 C   0  0  0  0  0  0
   -3.4183   -0.9010    1.3064 C   0  0  0  0  0  0
   -3.4265   -2.5438   -1.7215 C   0  0  0  0  0  0
   -3.8897   -3.4981   -2.3234 O   0  0  0  0  0  0
   -3.2511   -1.4846   -2.3002 O   0  5  0  0  0  0
   -1.4177   -0.7888   -0.2070 C   0  0  0  0  0  0
   -0.7102   -1.3388   -1.0243 O   0  0  0  0  0  0
   -1.0476    0.5765    0.3128 C   0  0  0  0  0  0
    0.4079    0.7555    0.2260 N   0  3  0  0  0  0
    0.7127    0.5786   -0.7194 H   0  0  0  0  0  0
    0.6465    1.7010    0.4849 H   0  0  0  0  0  0
    1.0721   -0.1846    1.1387 C   0  0  0  0  0  0
    2.5874   -0.0986    0.9453 C   0  0  0  0  0  0
    2.9512   -0.5900   -0.4573 C   0  0  0  0  0  0
    4.4506   -0.6228   -0.6048 C   0  0  0  0  0  0
    5.1529   -1.7665   -0.2734 C   0  0  0  0  0  0
    6.5282   -1.7966   -0.4087 C   0  0  0  0  0  0
    7.2013   -0.6832   -0.8759 C   0  0  0  0  0  0
    6.4990    0.4601   -1.2082 C   0  0  0  0  0  0
    5.1232    0.4888   -1.0770 C   0  0  0  0  0  0
    0.7266    0.1685    2.5624 C   0  0  0  0  0  0
    0.4942    1.3272    2.8641 O   0  0  0  0  0  0
    0.6795   -0.7043    3.4130 O   0  5  0  0  0  0
   -1.7443    1.6483   -0.5279 C   0  0  0  0  0  0
   -1.3685    3.0344   -0.0001 C   0  0  0  0  0  0
   -2.0652    4.1063   -0.8408 C   0  0  0  0  0  0
   -1.6895    5.4924   -0.3130 C   0  0  0  0  0  0
   -2.3584    6.5215   -1.1201 N   0  3  0  0  0  0
   -2.1106    7.4356   -0.7721 H   0  0  0  0  0  0
   -2.0659    6.4372   -2.0821 H   0  0  0  0  0  0
   -3.3581    6.3985   -1.0605 H   0  0  0  0  0  0
   -2.3327   -3.4640   -0.1280 H   0  0  0  0  0  0
   -5.2323   -2.6616    0.0330 H   0  0  0  0  0  0
   -4.3921   -4.0563    0.7867 H   0  0  0  0  0  0
   -5.0812   -1.9087    2.3153 H   0  0  0  0  0  0
   -3.4861   -2.6966    2.5591 H   0  0  0  0  0  0
   -2.8317   -0.4235    2.0913 H   0  0  0  0  0  0
   -4.1499   -0.2024    0.9002 H   0  0  0  0  0  0
   -1.3635    0.6675    1.3520 H   0  0  0  0  0  0
    0.7354   -1.1988    0.9239 H   0  0  0  0  0  0
    2.9107    0.9356    1.0631 H   0  0  0  0  0  0
    3.0845   -0.7216    1.6888 H   0  0  0  0  0  0
    2.5494   -1.5921   -0.6068 H   0  0  0  0  0  0
    2.5277    0.0859   -1.2002 H   0  0  0  0  0  0
    4.6270   -2.6363    0.0916 H   0  0  0  0  0  0
    7.0770   -2.6898   -0.1491 H   0  0  0  0  0  0
    8.2760   -0.7065   -0.9810 H   0  0  0  0  0  0
    7.0249    1.3301   -1.5729 H   0  0  0  0  0  0
    4.5744    1.3820   -1.3366 H   0  0  0  0  0  0
   -1.4283    1.5573   -1.5671 H   0  0  0  0  0  0
   -2.8242    1.5155   -0.4635 H   0  0  0  0  0  0
   -1.6845    3.1255    1.0391 H   0  0  0  0  0  0
   -0.2886    3.1672   -0.0645 H   0  0  0  0  0  0
   -1.7493    4.0152   -1.8800 H   0  0  0  0  0  0
   -3.1452    3.9735   -0.7764 H   0  0  0  0  0  0
   -2.0054    5.5834    0.7262 H   0  0  0  0  0  0
   -0.6095    5.6252   -0.3774 H   0  0  0  0  0  0
  1  2  1  0  0  0
  1  5  1  0  0  0
  1  9  1  0  0  0
  2  3  1  0  0  0
  2  6  1  0  0  0
  2 35  1  0  0  0
  3  4  1  0  0  0
  3 36  1  0  0  0
  3 37  1  0  0  0
  4  5  1  0  0  0
  4 38  1  0  0  0
  4 39  1  0  0  0
  5 40  1  0  0  0
  5 41  1  0  0  0
  6  7  2  0  0  0
  6  8  1  0  0  0
  9 10  2  0  0  0
  9 11  1  0  0  0
 11 12  1  0  0  0
 11 27  1  0  0  0
 11 42  1  0  0  0
 12 13  1  0  0  0
 12 14  1  0  0  0
 12 15  1  0  0  0
 15 16  1  0  0  0
 15 24  1  0  0  0
 15 43  1  0  0  0
 16 17  1  0  0  0
 16 44  1  0  0  0
 16 45  1  0  0  0
 17 18  1  0  0  0
 17 46  1  0  0  0
 17 47  1  0  0  0
 18 19  1  0  0  0
 18 23  2  0  0  0
 19 20  2  0  0  0
 19 48  1  0  0  0
 20 21  1  0  0  0
 20 49  1  0  0  0
 21 22  2  0  0  0
 21 50  1  0  0  0
 22 23  1  0  0  0
 22 51  1  0  0  0
 23 52  1  0  0  0
 24 25  2  0  0  0
 24 26  1  0  0  0
 27 28  1  0  0  0
 27 53  1  0  0  0
 27 54  1  0  0  0
 28 29  1  0  0  0
 28 55  1  0  0  0
 28 56  1  0  0  0
 29 30  1  0  0  0
 29 57  1  0  0  0
 29 58  1  0  0  0
 30 31  1  0  0  0
 30 59  1  0  0  0
 30 60  1  0  0  0
 31 32  1  0  0  0
 31 33  1  0  0  0
 31 34  1  0  0  0
M  CHG  4   8  -1  12   1  26  -1  31   1
M  END
>  <Activity>
8.92

>  <set>
1

>  <Min_dist>
999.9

>  <Avg_dist>
999.9

$$$$
MOL_20
  Cerius2 12110214443D 1   1.00000                          
 
 54 56  0  0  0  0  0  0  0  0999 V2000
    3.8228   -0.1573   -0.6605 N   0  0  0  0  0  0
    4.7030   -1.3247   -0.8153 C   0  0  0  0  0  0
    6.0896   -0.7995   -1.2430 C   0  0  0  0  0  0
    5.7621    0.5885   -1.8542 C   0  0  0  0  0  0
    4.6005    1.0622   -0.9454 C   0  0  0  0  0  0
    4.8152   -2.0594    0.4957 C   0  0  0  0  0  0
    5.5360   -3.1081    0.5793 O   0  0  0  0  0  0
    4.1894   -1.6324    1.5216 O   0  5  0  0  0  0
    2.5193   -0.1960   -0.3201 C   0  0  0  0  0  0
    1.9780   -1.2614   -0.1129 O   0  0  0  0  0  0
    1.7343    1.0845   -0.1971 C   0  0  0  0  0  0
    0.3490    0.7752    0.1814 N   0  3  0  0  0  0
   -0.0228    0.0767   -0.4446 H   0  0  0  0  0  0
    0.3292    0.4240    1.1271 H   0  0  0  0  0  0
   -0.4661    1.9942    0.0946 C   0  0  0  0  0  0
   -1.9489    1.6214    0.1519 C   0  0  0  0  0  0
   -2.2879    0.6967   -1.0190 C   0  0  0  0  0  0
   -3.7483    0.3295   -0.9626 C   0  0  0  0  0  0
   -4.1634   -0.8091   -0.2510 C   0  0  0  0  0  0
   -5.5412   -1.1380   -0.2089 C   0  0  0  0  0  0
   -6.4659   -0.3195   -0.8800 C   0  0  0  0  0  0
   -6.0272    0.7750   -1.5595 C   0  0  0  0  0  0
   -4.6728    1.1018   -1.5958 C   0  0  0  0  0  0
   -5.9565   -2.2766    0.5026 C   0  0  0  0  0  0
   -5.0327   -3.0462    1.1401 C   0  0  0  0  0  0
   -3.6776   -2.7225    1.0992 C   0  0  0  0  0  0
   -3.2388   -1.6282    0.4194 C   0  0  0  0  0  0
   -0.1323    2.9050    1.2479 C   0  0  0  0  0  0
    0.2191    2.4107    2.3698 O   0  0  0  0  0  0
   -0.2011    4.1700    1.1021 O   0  5  0  0  0  0
    2.3701    1.9715    0.8753 C   0  0  0  0  0  0
    4.3056   -1.9895   -1.5823 H   0  0  0  0  0  0
    6.7459   -0.6953   -0.3790 H   0  0  0  0  0  0
    6.5362   -1.4547   -1.9910 H   0  0  0  0  0  0
    6.6169    1.2605   -1.7779 H   0  0  0  0  0  0
    5.4341    0.4920   -2.8892 H   0  0  0  0  0  0
    3.9831    1.7924   -1.4687 H   0  0  0  0  0  0
    4.9913    1.4876   -0.0210 H   0  0  0  0  0  0
    1.7414    1.6083   -1.1530 H   0  0  0  0  0  0
   -0.2561    2.5056   -0.8448 H   0  0  0  0  0  0
   -2.1589    1.1100    1.0913 H   0  0  0  0  0  0
   -2.5537    2.5259    0.0875 H   0  0  0  0  0  0
   -2.0778    1.2081   -1.9584 H   0  0  0  0  0  0
   -1.6830   -0.2078   -0.9546 H   0  0  0  0  0  0
   -7.5189   -0.5581   -0.8569 H   0  0  0  0  0  0
   -6.7398    1.4021   -2.0746 H   0  0  0  0  0  0
   -4.3511    1.9760   -2.1424 H   0  0  0  0  0  0
   -7.0032   -2.5393    0.5436 H   0  0  0  0  0  0
   -5.3544   -3.9207    1.6862 H   0  0  0  0  0  0
   -2.9651   -3.3497    1.6144 H   0  0  0  0  0  0
   -2.1858   -1.3897    0.3964 H   0  0  0  0  0  0
    2.1964    1.5341    1.8584 H   0  0  0  0  0  0
    3.4426    2.0468    0.6955 H   0  0  0  0  0  0
    1.9244    2.9654    0.8359 H   0  0  0  0  0  0
  1  2  1  0  0  0
  1  5  1  0  0  0
  1  9  1  0  0  0
  2  3  1  0  0  0
  2  6  1  0  0  0
  2 32  1  0  0  0
  3  4  1  0  0  0
  3 33  1  0  0  0
  3 34  1  0  0  0
  4  5  1  0  0  0
  4 35  1  0  0  0
  4 36  1  0  0  0
  5 37  1  0  0  0
  5 38  1  0  0  0
  6  7  2  0  0  0
  6  8  1  0  0  0
  9 10  2  0  0  0
  9 11  1  0  0  0
 11 12  1  0  0  0
 11 31  1  0  0  0
 11 39  1  0  0  0
 12 13  1  0  0  0
 12 14  1  0  0  0
 12 15  1  0  0  0
 15 16  1  0  0  0
 15 28  1  0  0  0
 15 40  1  0  0  0
 16 17  1  0  0  0
 16 41  1  0  0  0
 16 42  1  0  0  0
 17 18  1  0  0  0
 17 43  1  0  0  0
 17 44  1  0  0  0
 18 19  1  0  0  0
 18 23  2  0  0  0
 19 20  2  0  0  0
 19 27  1  0  0  0
 20 21  1  0  0  0
 20 24  1  0  0  0
 21 22  2  0  0  0
 21 45  1  0  0  0
 22 23  1  0  0  0
 22 46  1  0  0  0
 23 47  1  0  0  0
 24 25  2  0  0  0
 24 48  1  0  0  0
 25 26  1  0  0  0
 25 49  1  0  0  0
 26 27  2  0  0  0
 26 50  1  0  0  0
 27 51  1  0  0  0
 28 29  2  0  0  0
 28 30  1  0  0  0
 31 52  1  0  0  0
 31 53  1  0  0  0
 31 54  1  0  0  0
M  CHG  3   8  -1  12   1  30  -1
M  END
>  <Activity>
8.96

>  <set>
1

>  <Min_dist>
999.9

>  <Avg_dist>
999.9

$$$$
MOL_21
  Cerius2 12110214443D 1   1.00000                          
 
 49 50  0  0  0  0  0  0  0  0999 V2000
    3.5465   -0.3078   -0.6208 N   0  0  0  0  0  0
    4.5231   -1.4034   -0.5346 C   0  0  0  0  0  0
    5.8322   -0.9022   -1.1802 C   0  0  0  0  0  0
    5.3471    0.2488   -2.1008 C   0  0  0  0  0  0
    4.1922    0.8517   -1.2626 C   0  0  0  0  0  0
    4.7675   -1.7599    0.9091 C   0  0  0  0  0  0
    5.5505   -2.6508    1.1932 O   0  0  0  0  0  0
    4.1821   -1.1575    1.7935 O   0  5  0  0  0  0
    2.2705   -0.3573   -0.1896 C   0  0  0  0  0  0
    1.8418   -1.3704    0.3210 O   0  0  0  0  0  0
    1.3765    0.8462   -0.3421 C   0  0  0  0  0  0
    0.0463    0.5400    0.2008 N   0  3  0  0  0  0
   -0.2889   -0.3243   -0.1978 H   0  0  0  0  0  0
    0.1056    0.4471    1.2037 H   0  0  0  0  0  0
   -0.8824    1.6272   -0.1362 C   0  0  0  0  0  0
   -2.3193    1.1683    0.1197 C   0  0  0  0  0  0
   -2.6271   -0.0530   -0.7490 C   0  0  0  0  0  0
   -4.0424   -0.5050   -0.4969 C   0  0  0  0  0  0
   -5.0767    0.0085   -1.2575 C   0  0  0  0  0  0
   -6.3750   -0.4042   -1.0283 C   0  0  0  0  0  0
   -6.6406   -1.3347   -0.0342 C   0  0  0  0  0  0
   -5.6010   -1.8484    0.7275 C   0  0  0  0  0  0
   -4.3038   -1.4366    0.4907 C   0  0  0  0  0  0
   -7.9170   -1.7420    0.1935 O   0  0  0  0  0  0
   -0.5792    2.8301    0.7195 C   0  0  0  0  0  0
   -0.1287    2.6740    1.9023 O   0  0  0  0  0  0
   -0.7732    4.0041    0.2608 O   0  5  0  0  0  0
    1.9785    2.0286    0.4198 C   0  0  0  0  0  0
    4.1525   -2.2739   -1.0759 H   0  0  0  0  0  0
    6.5173   -0.5258   -0.4206 H   0  0  0  0  0  0
    6.3008   -1.6930   -1.7659 H   0  0  0  0  0  0
    6.1382    0.9815   -2.2600 H   0  0  0  0  0  0
    4.9792   -0.1393   -3.0506 H   0  0  0  0  0  0
    3.4845    1.3700   -1.9096 H   0  0  0  0  0  0
    4.5864    1.5323   -0.5080 H   0  0  0  0  0  0
    1.2879    1.1016   -1.3981 H   0  0  0  0  0  0
   -0.7669    1.8908   -1.1876 H   0  0  0  0  0  0
   -2.4347    0.9047    1.1710 H   0  0  0  0  0  0
   -3.0083    1.9750   -0.1303 H   0  0  0  0  0  0
   -2.5116    0.2107   -1.8004 H   0  0  0  0  0  0
   -1.9380   -0.8597   -0.4990 H   0  0  0  0  0  0
   -4.8694    0.7331   -2.0310 H   0  0  0  0  0  0
   -7.1826   -0.0026   -1.6224 H   0  0  0  0  0  0
   -5.8052   -2.5728    1.5021 H   0  0  0  0  0  0
   -3.4941   -1.8364    1.0831 H   0  0  0  0  0  0
   -8.0699   -2.5113   -0.3721 H   0  0  0  0  0  0
    1.8947    1.8505    1.4919 H   0  0  0  0  0  0
    3.0291    2.1373    0.1506 H   0  0  0  0  0  0
    1.4405    2.9402    0.1597 H   0  0  0  0  0  0
  1  2  1  0  0  0
  1  5  1  0  0  0
  1  9  1  0  0  0
  2  3  1  0  0  0
  2  6  1  0  0  0
  2 29  1  0  0  0
  3  4  1  0  0  0
  3 30  1  0  0  0
  3 31  1  0  0  0
  4  5  1  0  0  0
  4 32  1  0  0  0
  4 33  1  0  0  0
  5 34  1  0  0  0
  5 35  1  0  0  0
  6  7  2  0  0  0
  6  8  1  0  0  0
  9 10  2  0  0  0
  9 11  1  0  0  0
 11 12  1  0  0  0
 11 28  1  0  0  0
 11 36  1  0  0  0
 12 13  1  0  0  0
 12 14  1  0  0  0
 12 15  1  0  0  0
 15 16  1  0  0  0
 15 25  1  0  0  0
 15 37  1  0  0  0
 16 17  1  0  0  0
 16 38  1  0  0  0
 16 39  1  0  0  0
 17 18  1  0  0  0
 17 40  1  0  0  0
 17 41  1  0  0  0
 18 19  1  0  0  0
 18 23  2  0  0  0
 19 20  2  0  0  0
 19 42  1  0  0  0
 20 21  1  0  0  0
 20 43  1  0  0  0
 21 22  2  0  0  0
 21 24  1  0  0  0
 22 23  1  0  0  0
 22 44  1  0  0  0
 23 45  1  0  0  0
 24 46  1  0  0  0
 25 26  2  0  0  0
 25 27  1  0  0  0
 28 47  1  0  0  0
 28 48  1  0  0  0
 28 49  1  0  0  0
M  CHG  3   8  -1  12   1  27  -1
M  END
>  <Activity>
8.55

>  <set>
1

>  <Min_dist>
999.9

>  <Avg_dist>
999.9

$$$$
MOL_22
  Cerius2 12110214443D 1   1.00000                          
 
 50 52  0  0  0  0  0  0  0  0999 V2000
   -5.3039    0.2128    1.2356 S   0  0  0  0  0  0
   -3.7592    0.9676    0.5620 C   0  0  0  0  0  0
   -2.9261   -0.1995    0.2234 N   0  0  0  0  0  0
   -3.6050   -1.5037    0.3043 C   0  0  0  0  0  0
   -5.1446   -1.4151    0.3808 C   0  0  0  0  0  0
   -3.2317   -2.3140   -0.9102 C   0  0  0  0  0  0
   -3.0293   -3.5121   -0.8053 O   0  0  0  0  0  0
   -3.1321   -1.7716   -1.9981 O   0  5  0  0  0  0
   -1.6583   -0.1427   -0.2029 C   0  0  0  0  0  0
   -1.2606   -1.1677   -0.7149 O   0  0  0  0  0  0
   -0.6535    0.9441   -0.1634 C   0  0  0  0  0  0
   -0.6957    1.7364    1.1206 C   0  0  0  0  0  0
   -1.9383    2.5841    1.2462 C   0  0  0  0  0  0
   -3.1560    1.8224    1.6603 C   0  0  0  0  0  0
    0.6847    0.3572   -0.3136 N   0  3  0  0  0  0
    0.8967   -0.2082    0.4947 H   0  0  0  0  0  0
    0.7085   -0.2182   -1.1421 H   0  0  0  0  0  0
    1.6796    1.4312   -0.4346 C   0  0  0  0  0  0
    3.0822    0.8228   -0.4935 C   0  0  0  0  0  0
    3.3461    0.0248    0.7850 C   0  0  0  0  0  0
    4.7276   -0.5744    0.7270 C   0  0  0  0  0  0
    5.8086    0.1319    1.2204 C   0  0  0  0  0  0
    7.0759   -0.4178    1.1672 C   0  0  0  0  0  0
    7.2621   -1.6739    0.6209 C   0  0  0  0  0  0
    6.1809   -2.3806    0.1283 C   0  0  0  0  0  0
    4.9131   -1.8327    0.1855 C   0  0  0  0  0  0
    1.4197    2.2172   -1.6939 C   0  0  0  0  0  0
    0.7350    1.7374   -2.5819 O   0  0  0  0  0  0
    1.8941    3.3331   -1.8251 O   0  5  0  0  0  0
   -3.9727    1.5615   -0.3267 H   0  0  0  0  0  0
   -3.2439   -2.0278    1.1892 H   0  0  0  0  0  0
   -5.5611   -2.2234    0.9818 H   0  0  0  0  0  0
   -5.5922   -1.3892   -0.6127 H   0  0  0  0  0  0
   -0.8341    1.6199   -0.9993 H   0  0  0  0  0  0
   -0.6558    1.0446    1.9619 H   0  0  0  0  0  0
    0.1784    2.3863    1.1613 H   0  0  0  0  0  0
   -1.7518    3.3667    1.9816 H   0  0  0  0  0  0
   -2.1350    3.0565    0.2838 H   0  0  0  0  0  0
   -3.9099    2.5325    2.0001 H   0  0  0  0  0  0
   -2.8921    1.1756    2.4970 H   0  0  0  0  0  0
    1.6066    2.0930    0.4284 H   0  0  0  0  0  0
    3.1553    0.1610   -1.3565 H   0  0  0  0  0  0
    3.8205    1.6197   -0.5833 H   0  0  0  0  0  0
    3.2731    0.6867    1.6480 H   0  0  0  0  0  0
    2.6079   -0.7721    0.8747 H   0  0  0  0  0  0
    5.6632    1.1132    1.6472 H   0  0  0  0  0  0
    7.9205    0.1343    1.5521 H   0  0  0  0  0  0
    8.2522   -2.1030    0.5787 H   0  0  0  0  0  0
    6.3264   -3.3618   -0.2988 H   0  0  0  0  0  0
    4.0684   -2.3848   -0.1994 H   0  0  0  0  0  0
  1  2  1  0  0  0
  1  5  1  0  0  0
  2  3  1  0  0  0
  2 14  1  0  0  0
  2 30  1  0  0  0
  3  4  1  0  0  0
  3  9  1  0  0  0
  4  5  1  0  0  0
  4  6  1  0  0  0
  4 31  1  0  0  0
  5 32  1  0  0  0
  5 33  1  0  0  0
  6  7  2  0  0  0
  6  8  1  0  0  0
  9 10  2  0  0  0
  9 11  1  0  0  0
 11 12  1  0  0  0
 11 15  1  0  0  0
 11 34  1  0  0  0
 12 13  1  0  0  0
 12 35  1  0  0  0
 12 36  1  0  0  0
 13 14  1  0  0  0
 13 37  1  0  0  0
 13 38  1  0  0  0
 14 39  1  0  0  0
 14 40  1  0  0  0
 15 16  1  0  0  0
 15 17  1  0  0  0
 15 18  1  0  0  0
 18 19  1  0  0  0
 18 27  1  0  0  0
 18 41  1  0  0  0
 19 20  1  0  0  0
 19 42  1  0  0  0
 19 43  1  0  0  0
 20 21  1  0  0  0
 20 44  1  0  0  0
 20 45  1  0  0  0
 21 22  1  0  0  0
 21 26  2  0  0  0
 22 23  2  0  0  0
 22 46  1  0  0  0
 23 24  1  0  0  0
 23 47  1  0  0  0
 24 25  2  0  0  0
 24 48  1  0  0  0
 25 26  1  0  0  0
 25 49  1  0  0  0
 26 50  1  0  0  0
 27 28  2  0  0  0
 27 29  1  0  0  0
M  CHG  3   8  -1  15   1  29  -1
M  END
>  <Activity>
9.22

>  <set>
1

>  <Min_dist>
999.9

>  <Avg_dist>
999.9

$$$$
MOL_24
  Cerius2 12110214443D 1   1.00000                          
 
 57 59  0  0  0  0  0  0  0  0999 V2000
   -1.0184   -1.5190    0.0930 P   0  0  0  0  0  0
   -0.9487   -1.8363   -1.4175 O   0  0  0  0  0  0
   -0.9991    0.0120    0.2991 O   0  5  0  0  0  0
   -2.5573   -2.2063    0.7879 C   0  0  0  0  0  0
   -3.7425   -1.5905    0.0900 C   0  0  0  0  0  0
   -4.1985   -2.1121   -0.9054 O   0  0  0  0  0  0
   -4.2958   -0.4600    0.5721 N   0  0  0  0  0  0
   -5.4494    0.2439   -0.0070 C   0  0  0  0  0  0
   -5.7415    1.4628    0.8933 C   0  0  0  0  0  0
   -5.0924    1.0607    2.2440 C   0  0  0  0  0  0
   -3.8485    0.2720    1.7710 C   0  0  0  0  0  0
   -5.1202    0.7052   -1.4033 C   0  0  0  0  0  0
   -5.9517    1.3127   -2.0568 O   0  0  0  0  0  0
   -4.0222    0.4711   -1.8799 O   0  5  0  0  0  0
    0.4153   -2.2640    0.9372 C   0  0  0  0  0  0
    1.7069   -1.6872    0.3540 C   0  0  0  0  0  0
    1.7252   -0.2354    0.5494 N   0  0  0  0  0  0
    2.3693    0.5551   -0.3319 C   0  0  0  0  0  0
    2.9349    0.0635   -1.2889 O   0  0  0  0  0  0
    2.3878    2.0202   -0.1347 C   0  0  0  0  0  0
    3.0539    2.8417   -1.0456 C   0  0  0  0  0  0
    3.0669    4.2081   -0.8560 C   0  0  0  0  0  0
    2.4221    4.7645    0.2344 C   0  0  0  0  0  0
    1.7600    3.9559    1.1411 C   0  0  0  0  0  0
    1.7344    2.5884    0.9600 C   0  0  0  0  0  0
    2.9102   -2.3124    1.0625 C   0  0  0  0  0  0
    4.1823   -1.7443    0.4881 C   0  0  0  0  0  0
    4.7419   -0.6067    1.0391 C   0  0  0  0  0  0
    5.9088   -0.0855    0.5122 C   0  0  0  0  0  0
    6.5163   -0.7022   -0.5655 C   0  0  0  0  0  0
    5.9572   -1.8403   -1.1160 C   0  0  0  0  0  0
    4.7927   -2.3640   -0.5863 C   0  0  0  0  0  0
   -2.5710   -3.2865    0.6425 H   0  0  0  0  0  0
   -2.6065   -1.9825    1.8535 H   0  0  0  0  0  0
   -6.3153   -0.4178   -0.0275 H   0  0  0  0  0  0
   -5.2714    2.3604    0.4916 H   0  0  0  0  0  0
   -6.8156    1.6077    1.0096 H   0  0  0  0  0  0
   -4.8038    1.9422    2.8165 H   0  0  0  0  0  0
   -5.7591    0.4217    2.8230 H   0  0  0  0  0  0
   -3.5234   -0.4233    2.5449 H   0  0  0  0  0  0
   -3.0411    0.9568    1.5117 H   0  0  0  0  0  0
    0.3662   -2.0402    2.0028 H   0  0  0  0  0  0
    0.4017   -3.3442    0.7918 H   0  0  0  0  0  0
    1.7561   -1.9110   -0.7117 H   0  0  0  0  0  0
    1.2739    0.1569    1.3131 H   0  0  0  0  0  0
    3.5582    2.4086   -1.8967 H   0  0  0  0  0  0
    3.5820    4.8449   -1.5600 H   0  0  0  0  0  0
    2.4359    5.8348    0.3787 H   0  0  0  0  0  0
    1.2586    4.3964    1.9901 H   0  0  0  0  0  0
    1.2170    1.9583    1.6682 H   0  0  0  0  0  0
    2.8610   -2.0886    2.1281 H   0  0  0  0  0  0
    2.8965   -3.3926    0.9171 H   0  0  0  0  0  0
    4.2672   -0.1249    1.8811 H   0  0  0  0  0  0
    6.3455    0.8037    0.9422 H   0  0  0  0  0  0
    7.4276   -0.2946   -0.9777 H   0  0  0  0  0  0
    6.4317   -2.3219   -1.9582 H   0  0  0  0  0  0
    4.3559   -3.2531   -1.0164 H   0  0  0  0  0  0
  1  2  2  0  0  0
  1  3  1  0  0  0
  1  4  1  0  0  0
  1 15  1  0  0  0
  4  5  1  0  0  0
  4 33  1  0  0  0
  4 34  1  0  0  0
  5  6  2  0  0  0
  5  7  1  0  0  0
  7  8  1  0  0  0
  7 11  1  0  0  0
  8  9  1  0  0  0
  8 12  1  0  0  0
  8 35  1  0  0  0
  9 10  1  0  0  0
  9 36  1  0  0  0
  9 37  1  0  0  0
 10 11  1  0  0  0
 10 38  1  0  0  0
 10 39  1  0  0  0
 11 40  1  0  0  0
 11 41  1  0  0  0
 12 13  2  0  0  0
 12 14  1  0  0  0
 15 16  1  0  0  0
 15 42  1  0  0  0
 15 43  1  0  0  0
 16 17  1  0  0  0
 16 26  1  0  0  0
 16 44  1  0  0  0
 17 18  1  0  0  0
 17 45  1  0  0  0
 18 19  2  0  0  0
 18 20  1  0  0  0
 20 21  1  0  0  0
 20 25  2  0  0  0
 21 22  2  0  0  0
 21 46  1  0  0  0
 22 23  1  0  0  0
 22 47  1  0  0  0
 23 24  2  0  0  0
 23 48  1  0  0  0
 24 25  1  0  0  0
 24 49  1  0  0  0
 25 50  1  0  0  0
 26 27  1  0  0  0
 26 51  1  0  0  0
 26 52  1  0  0  0
 27 28  1  0  0  0
 27 32  2  0  0  0
 28 29  2  0  0  0
 28 53  1  0  0  0
 29 30  1  0  0  0
 29 54  1  0  0  0
 30 31  2  0  0  0
 30 55  1  0  0  0
 31 32  1  0  0  0
 31 56  1  0  0  0
 32 57  1  0  0  0
M  CHG  2   3  -1  14  -1
M  END
>  <Activity>
8

>  <set>
1

>  <Min_dist>
999.9

>  <Avg_dist>
999.9

$$$$
MOL_25
  Cerius2 12110214443D 1   1.00000                          
 
 62 64  0  0  0  0  0  0  0  0999 V2000
   -4.8502    0.2409    0.6211 N   0  0  0  0  0  0
   -6.1158   -0.5063    0.5845 C   0  0  0  0  0  0
   -7.2058    0.4093    1.1803 C   0  0  0  0  0  0
   -6.3880    1.4097    2.0393 C   0  0  0  0  0  0
   -5.1071    1.5787    1.1846 C   0  0  0  0  0  0
   -6.4630   -0.8570   -0.8394 C   0  0  0  0  0  0
   -7.4825   -1.4808   -1.0826 O   0  0  0  0  0  0
   -5.7247   -0.5169   -1.7486 O   0  5  0  0  0  0
   -3.6523   -0.2226    0.2125 C   0  0  0  0  0  0
   -3.5566   -1.3470   -0.2318 O   0  0  0  0  0  0
   -2.4320    0.6564    0.3078 C   0  0  0  0  0  0
   -1.2616   -0.0742   -0.1966 N   0  3  0  0  0  0
   -1.2067   -0.9746    0.2556 H   0  0  0  0  0  0
   -1.3497   -0.2033   -1.1934 H   0  0  0  0  0  0
   -0.0431    0.6938    0.0920 C   0  0  0  0  0  0
    1.1825   -0.1997   -0.1088 C   0  0  0  0  0  0
    2.3977    0.5663    0.1789 N   0  0  0  0  0  0
    3.5476    0.2704   -0.4587 C   0  0  0  0  0  0
    3.5765   -0.6320   -1.2726 O   0  0  0  0  0  0
    4.7740    1.0434   -0.1683 C   0  0  0  0  0  0
    5.9665    0.7395   -0.8269 C   0  0  0  0  0  0
    7.1071    1.4650   -0.5517 C   0  0  0  0  0  0
    7.0709    2.4916    0.3753 C   0  0  0  0  0  0
    5.8920    2.7979    1.0316 C   0  0  0  0  0  0
    4.7429    2.0840    0.7614 C   0  0  0  0  0  0
    1.0997   -1.3992    0.8374 C   0  0  0  0  0  0
    2.3069   -2.2793    0.6396 C   0  0  0  0  0  0
    3.4498   -2.0630    1.3864 C   0  0  0  0  0  0
    4.5572   -2.8703    1.2050 C   0  0  0  0  0  0
    4.5214   -3.8942    0.2770 C   0  0  0  0  0  0
    3.3782   -4.1111   -0.4692 C   0  0  0  0  0  0
    2.2694   -3.3066   -0.2847 C   0  0  0  0  0  0
    0.0385    1.8753   -0.8400 C   0  0  0  0  0  0
   -0.4181    1.7948   -1.9681 O   0  0  0  0  0  0
    0.5610    2.9120   -0.4661 O   0  5  0  0  0  0
   -2.6456    1.9183   -0.5306 C   0  0  0  0  0  0
   -6.0276   -1.4143    1.1811 H   0  0  0  0  0  0
   -7.7456    0.9310    0.3900 H   0  0  0  0  0  0
   -7.8920   -0.1635    1.8042 H   0  0  0  0  0  0
   -6.9159    2.3576    2.1437 H   0  0  0  0  0  0
   -6.1531    0.9854    3.0155 H   0  0  0  0  0  0
   -4.2722    1.8934    1.8106 H   0  0  0  0  0  0
   -5.2766    2.3007    0.3858 H   0  0  0  0  0  0
   -2.2654    0.9354    1.3483 H   0  0  0  0  0  0
   -0.0711    1.0458    1.1232 H   0  0  0  0  0  0
    1.2105   -0.5517   -1.1401 H   0  0  0  0  0  0
    2.3747    1.2864    0.8284 H   0  0  0  0  0  0
    5.9963   -0.0620   -1.5502 H   0  0  0  0  0  0
    8.0305    1.2310   -1.0606 H   0  0  0  0  0  0
    7.9668    3.0560    0.5876 H   0  0  0  0  0  0
    5.8704    3.6004    1.7541 H   0  0  0  0  0  0
    3.8233    2.3243    1.2742 H   0  0  0  0  0  0
    1.0717   -1.0473    1.8686 H   0  0  0  0  0  0
    0.1955   -1.9691    0.6233 H   0  0  0  0  0  0
    3.4777   -1.2630    2.1115 H   0  0  0  0  0  0
    5.4504   -2.7008    1.7880 H   0  0  0  0  0  0
    5.3868   -4.5245    0.1347 H   0  0  0  0  0  0
    3.3504   -4.9109   -1.1945 H   0  0  0  0  0  0
    1.3762   -3.4760   -0.8677 H   0  0  0  0  0  0
   -2.6218    1.6595   -1.5892 H   0  0  0  0  0  0
   -3.6125    2.3579   -0.2857 H   0  0  0  0  0  0
   -1.8547    2.6365   -0.3143 H   0  0  0  0  0  0
  1  2  1  0  0  0
  1  5  1  0  0  0
  1  9  1  0  0  0
  2  3  1  0  0  0
  2  6  1  0  0  0
  2 37  1  0  0  0
  3  4  1  0  0  0
  3 38  1  0  0  0
  3 39  1  0  0  0
  4  5  1  0  0  0
  4 40  1  0  0  0
  4 41  1  0  0  0
  5 42  1  0  0  0
  5 43  1  0  0  0
  6  7  2  0  0  0
  6  8  1  0  0  0
  9 10  2  0  0  0
  9 11  1  0  0  0
 11 12  1  0  0  0
 11 36  1  0  0  0
 11 44  1  0  0  0
 12 13  1  0  0  0
 12 14  1  0  0  0
 12 15  1  0  0  0
 15 16  1  0  0  0
 15 33  1  0  0  0
 15 45  1  0  0  0
 16 17  1  0  0  0
 16 26  1  0  0  0
 16 46  1  0  0  0
 17 18  1  0  0  0
 17 47  1  0  0  0
 18 19  2  0  0  0
 18 20  1  0  0  0
 20 21  1  0  0  0
 20 25  2  0  0  0
 21 22  2  0  0  0
 21 48  1  0  0  0
 22 23  1  0  0  0
 22 49  1  0  0  0
 23 24  2  0  0  0
 23 50  1  0  0  0
 24 25  1  0  0  0
 24 51  1  0  0  0
 25 52  1  0  0  0
 26 27  1  0  0  0
 26 53  1  0  0  0
 26 54  1  0  0  0
 27 28  1  0  0  0
 27 32  2  0  0  0
 28 29  2  0  0  0
 28 55  1  0  0  0
 29 30  1  0  0  0
 29 56  1  0  0  0
 30 31  2  0  0  0
 30 57  1  0  0  0
 31 32  1  0  0  0
 31 58  1  0  0  0
 32 59  1  0  0  0
 33 34  2  0  0  0
 33 35  1  0  0  0
 36 60  1  0  0  0
 36 61  1  0  0  0
 36 62  1  0  0  0
M  CHG  3   8  -1  12   1  35  -1
M  END
>  <Activity>
8.11

>  <set>
1

>  <Min_dist>
999.9

>  <Avg_dist>
999.9

$$$$
MOL_26
  Cerius2 12110214443D 1   1.00000                          
 
 56 58  0  0  0  0  0  0  0  0999 V2000
   -5.0919    0.2069    0.4724 N   0  0  0  0  0  0
   -6.4081   -0.2417   -0.0052 C   0  0  0  0  0  0
   -7.4730    0.6018    0.7270 C   0  0  0  0  0  0
   -6.7202    1.0888    1.9933 C   0  0  0  0  0  0
   -5.2882    1.3002    1.4417 C   0  0  0  0  0  0
   -6.5153   -0.0236   -1.4925 C   0  0  0  0  0  0
   -7.5370   -0.3333   -2.0822 O   0  0  0  0  0  0
   -5.5803    0.4625   -2.1065 O   0  5  0  0  0  0
   -3.9031   -0.3013    0.0915 C   0  0  0  0  0  0
   -3.8609   -1.2082   -0.7126 O   0  0  0  0  0  0
   -2.6264    0.2575    0.6648 C   0  0  0  0  0  0
   -1.4307   -0.4901    0.0712 C   0  0  0  0  0  0
   -0.1539    0.0686    0.6445 C   0  0  0  0  0  0
   -0.1960    0.9717    1.4452 O   0  0  0  0  0  0
    1.1753   -0.4995    0.2186 C   0  0  0  0  0  0
    2.1979    0.5474    0.2857 N   0  0  0  0  0  0
    3.2502    0.5165   -0.5559 C   0  0  0  0  0  0
    3.3508   -0.3801   -1.3705 O   0  0  0  0  0  0
    4.2822    1.5730   -0.4882 C   0  0  0  0  0  0
    5.3732    1.5439   -1.3583 C   0  0  0  0  0  0
    6.3324    2.5331   -1.2902 C   0  0  0  0  0  0
    6.2149    3.5522   -0.3618 C   0  0  0  0  0  0
    5.1359    3.5869    0.5036 C   0  0  0  0  0  0
    4.1667    2.6070    0.4422 C   0  0  0  0  0  0
    1.5608   -1.6495    1.1513 C   0  0  0  0  0  0
    2.8901   -2.2176    0.7254 C   0  0  0  0  0  0
    4.0612   -1.7051    1.2513 C   0  0  0  0  0  0
    5.2805   -2.2262    0.8606 C   0  0  0  0  0  0
    5.3286   -3.2602   -0.0556 C   0  0  0  0  0  0
    4.1574   -3.7734   -0.5808 C   0  0  0  0  0  0
    2.9379   -3.2551   -0.1868 C   0  0  0  0  0  0
   -6.5469   -1.2974    0.2278 H   0  0  0  0  0  0
   -7.7836    1.4477    0.1137 H   0  0  0  0  0  0
   -8.3306   -0.0129    1.0007 H   0  0  0  0  0  0
   -7.1394    2.0254    2.3610 H   0  0  0  0  0  0
   -6.7305    0.3258    2.7716 H   0  0  0  0  0  0
   -4.5571    1.2289    2.2471 H   0  0  0  0  0  0
   -5.2122    2.2668    0.9438 H   0  0  0  0  0  0
   -2.5508    1.3168    0.4192 H   0  0  0  0  0  0
   -2.6302    0.1351    1.7479 H   0  0  0  0  0  0
   -1.5062   -1.5494    0.3169 H   0  0  0  0  0  0
   -1.4268   -0.3677   -1.0118 H   0  0  0  0  0  0
    1.1013   -0.8701   -0.8038 H   0  0  0  0  0  0
    2.1177    1.2628    0.9358 H   0  0  0  0  0  0
    5.4664    0.7486   -2.0830 H   0  0  0  0  0  0
    7.1771    2.5118   -1.9629 H   0  0  0  0  0  0
    6.9689    4.3238   -0.3121 H   0  0  0  0  0  0
    5.0501    4.3851    1.2260 H   0  0  0  0  0  0
    3.3248    2.6354    1.1180 H   0  0  0  0  0  0
    1.6349   -1.2789    2.1737 H   0  0  0  0  0  0
    0.8000   -2.4284    1.1014 H   0  0  0  0  0  0
    4.0237   -0.8972    1.9671 H   0  0  0  0  0  0
    6.1956   -1.8252    1.2709 H   0  0  0  0  0  0
    6.2813   -3.6669   -0.3614 H   0  0  0  0  0  0
    4.1950   -4.5810   -1.2969 H   0  0  0  0  0  0
    2.0229   -3.6561   -0.5971 H   0  0  0  0  0  0
  1  2  1  0  0  0
  1  5  1  0  0  0
  1  9  1  0  0  0
  2  3  1  0  0  0
  2  6  1  0  0  0
  2 32  1  0  0  0
  3  4  1  0  0  0
  3 33  1  0  0  0
  3 34  1  0  0  0
  4  5  1  0  0  0
  4 35  1  0  0  0
  4 36  1  0  0  0
  5 37  1  0  0  0
  5 38  1  0  0  0
  6  7  2  0  0  0
  6  8  1  0  0  0
  9 10  2  0  0  0
  9 11  1  0  0  0
 11 12  1  0  0  0
 11 39  1  0  0  0
 11 40  1  0  0  0
 12 13  1  0  0  0
 12 41  1  0  0  0
 12 42  1  0  0  0
 13 14  2  0  0  0
 13 15  1  0  0  0
 15 16  1  0  0  0
 15 25  1  0  0  0
 15 43  1  0  0  0
 16 17  1  0  0  0
 16 44  1  0  0  0
 17 18  2  0  0  0
 17 19  1  0  0  0
 19 20  1  0  0  0
 19 24  2  0  0  0
 20 21  2  0  0  0
 20 45  1  0  0  0
 21 22  1  0  0  0
 21 46  1  0  0  0
 22 23  2  0  0  0
 22 47  1  0  0  0
 23 24  1  0  0  0
 23 48  1  0  0  0
 24 49  1  0  0  0
 25 26  1  0  0  0
 25 50  1  0  0  0
 25 51  1  0  0  0
 26 27  1  0  0  0
 26 31  2  0  0  0
 27 28  2  0  0  0
 27 52  1  0  0  0
 28 29  1  0  0  0
 28 53  1  0  0  0
 29 30  2  0  0  0
 29 54  1  0  0  0
 30 31  1  0  0  0
 30 55  1  0  0  0
 31 56  1  0  0  0
M  CHG  1   8  -1
M  END
>  <Activity>
7.92

>  <set>
1

>  <Min_dist>
999.9

>  <Avg_dist>
999.9

$$$$
MOL_29
  Cerius2 12110214443D 1   1.00000                          
 
 45 46  0  0  0  0  0  0  0  0999 V2000
   -1.1398   -0.8061    0.0518 P   0  0  0  0  0  0
   -0.7583   -0.5970    1.5343 O   0  0  0  0  0  0
    0.0445   -0.1281   -0.9333 N   0  0  0  0  0  0
    1.3028   -0.8164   -0.6154 C   0  0  0  0  0  0
    2.3127    0.1866   -0.1201 C   0  0  0  0  0  0
    2.0137    1.3592   -0.0399 O   0  0  0  0  0  0
    3.5482   -0.2196    0.2336 N   0  0  0  0  0  0
    4.6258    0.6481    0.7308 C   0  0  0  0  0  0
    5.8403   -0.2556    1.0307 C   0  0  0  0  0  0
    5.1945   -1.6534    1.2216 C   0  0  0  0  0  0
    4.0407   -1.6085    0.1921 C   0  0  0  0  0  0
    4.9908    1.6651   -0.3196 C   0  0  0  0  0  0
    5.8693    2.4818   -0.0986 O   0  0  0  0  0  0
    4.4077    1.6716   -1.3909 O   0  5  0  0  0  0
    1.8402   -1.5031   -1.8725 C   0  0  0  0  0  0
   -1.2510   -2.3186   -0.2430 O   0  5  0  0  0  0
   -2.7415   -0.0024   -0.2827 C   0  0  0  0  0  0
   -3.8182   -0.6187    0.6128 C   0  0  0  0  0  0
   -5.1423    0.0456    0.3364 C   0  0  0  0  0  0
   -5.9834   -0.4666   -0.6338 C   0  0  0  0  0  0
   -7.1979    0.1428   -0.8874 C   0  0  0  0  0  0
   -7.5716    1.2641   -0.1706 C   0  0  0  0  0  0
   -6.7309    1.7758    0.8001 C   0  0  0  0  0  0
   -5.5183    1.1639    1.0568 C   0  0  0  0  0  0
   -0.1904   -0.3771   -1.8824 H   0  0  0  0  0  0
    1.1231   -1.5632    0.1580 H   0  0  0  0  0  0
    4.3050    1.1524    1.6423 H   0  0  0  0  0  0
    6.5330   -0.2625    0.1892 H   0  0  0  0  0  0
    6.3433    0.0646    1.9432 H   0  0  0  0  0  0
    5.9027   -2.4469    0.9829 H   0  0  0  0  0  0
    4.8064   -1.7697    2.2335 H   0  0  0  0  0  0
    3.2508   -2.3034    0.4771 H   0  0  0  0  0  0
    4.4127   -1.8438   -0.8050 H   0  0  0  0  0  0
    2.0199   -0.7562   -2.6459 H   0  0  0  0  0  0
    2.7739   -2.0137   -1.6367 H   0  0  0  0  0  0
    1.1098   -2.2285   -2.2307 H   0  0  0  0  0  0
   -2.6631    1.0647   -0.0747 H   0  0  0  0  0  0
   -3.0107   -0.1500   -1.3286 H   0  0  0  0  0  0
   -3.8966   -1.6858    0.4049 H   0  0  0  0  0  0
   -3.5490   -0.4712    1.6587 H   0  0  0  0  0  0
   -5.6914   -1.3427   -1.1938 H   0  0  0  0  0  0
   -7.8547   -0.2570   -1.6458 H   0  0  0  0  0  0
   -8.5202    1.7407   -0.3693 H   0  0  0  0  0  0
   -7.0228    2.6521    1.3599 H   0  0  0  0  0  0
   -4.8615    1.5636    1.8152 H   0  0  0  0  0  0
  1  2  2  0  0  0
  1  3  1  0  0  0
  1 16  1  0  0  0
  1 17  1  0  0  0
  3  4  1  0  0  0
  3 25  1  0  0  0
  4  5  1  0  0  0
  4 15  1  0  0  0
  4 26  1  0  0  0
  5  6  2  0  0  0
  5  7  1  0  0  0
  7  8  1  0  0  0
  7 11  1  0  0  0
  8  9  1  0  0  0
  8 12  1  0  0  0
  8 27  1  0  0  0
  9 10  1  0  0  0
  9 28  1  0  0  0
  9 29  1  0  0  0
 10 11  1  0  0  0
 10 30  1  0  0  0
 10 31  1  0  0  0
 11 32  1  0  0  0
 11 33  1  0  0  0
 12 13  2  0  0  0
 12 14  1  0  0  0
 15 34  1  0  0  0
 15 35  1  0  0  0
 15 36  1  0  0  0
 17 18  1  0  0  0
 17 37  1  0  0  0
 17 38  1  0  0  0
 18 19  1  0  0  0
 18 39  1  0  0  0
 18 40  1  0  0  0
 19 20  1  0  0  0
 19 24  2  0  0  0
 20 21  2  0  0  0
 20 41  1  0  0  0
 21 22  1  0  0  0
 21 42  1  0  0  0
 22 23  2  0  0  0
 22 43  1  0  0  0
 23 24  1  0  0  0
 23 44  1  0  0  0
 24 45  1  0  0  0
M  CHG  2  14  -1  16  -1
M  END
>  <Activity>
8.15

>  <set>
1

>  <Min_dist>
999.9

>  <Avg_dist>
999.9

$$$$
MOL_30
  Cerius2 12110214443D 1   1.00000                          
 
 18 17  0  0  0  0  0  0  0  0999 V2000
    4.2394   -0.5317    0.0000 S   0  0  0  0  0  0
    2.7370    0.4848    0.0000 C   0  0  0  0  0  0
    1.5063   -0.4241    0.0000 C   0  0  0  0  0  0
    0.2581    0.4204    0.0000 C   0  0  0  0  0  0
    0.3445    1.6302    0.0000 O   0  0  0  0  0  0
   -0.9541   -0.1687    0.0000 N   0  0  0  0  0  0
   -2.1674    0.6523    0.0000 C   0  0  0  0  0  0
   -3.3797   -0.2429    0.0000 C   0  0  0  0  0  0
   -4.4977    0.2444    0.0000 O   0  0  0  0  0  0
   -3.2428   -1.4549    0.0000 O   0  5  0  0  0  0
    5.1752    0.4345    0.0000 H   0  0  0  0  0  0
    2.7241    1.1140    0.8900 H   0  0  0  0  0  0
    2.7241    1.1140   -0.8900 H   0  0  0  0  0  0
    1.5193   -1.0533   -0.8900 H   0  0  0  0  0  0
    1.5193   -1.0533    0.8900 H   0  0  0  0  0  0
   -1.0231   -1.1362    0.0000 H   0  0  0  0  0  0
   -2.1804    1.2815    0.8900 H   0  0  0  0  0  0
   -2.1804    1.2815   -0.8900 H   0  0  0  0  0  0
  1  2  1  0  0  0
  1 11  1  0  0  0
  2  3  1  0  0  0
  2 12  1  0  0  0
  2 13  1  0  0  0
  3  4  1  0  0  0
  3 14  1  0  0  0
  3 15  1  0  0  0
  4  5  2  0  0  0
  4  6  1  0  0  0
  6  7  1  0  0  0
  6 16  1  0  0  0
  7  8  1  0  0  0
  7 17  1  0  0  0
  7 18  1  0  0  0
  8  9  2  0  0  0
  8 10  1  0  0  0
M  CHG  1  10  -1
M  END
>  <Activity>
5.55

>  <set>
1

>  <Min_dist>
999.9

>  <Avg_dist>
999.9

$$$$
MOL_31
  Cerius2 12110214443D 1   1.00000                          
 
 21 20  0  0  0  0  0  0  0  0999 V2000
    4.4418   -0.4593   -0.1277 S   0  0  0  0  0  0
    2.8971    0.3797    0.3200 C   0  0  0  0  0  0
    1.7110   -0.3883   -0.2666 C   0  0  0  0  0  0
    0.4277    0.3088    0.1054 C   0  0  0  0  0  0
    0.4588    1.3203    0.7739 O   0  0  0  0  0  0
   -0.7545   -0.1918   -0.3048 N   0  0  0  0  0  0
   -2.0020    0.4858    0.0568 C   0  0  0  0  0  0
   -2.3545    1.5141   -1.0200 C   0  0  0  0  0  0
   -3.1113   -0.5283    0.1653 C   0  0  0  0  0  0
   -4.2908   -0.1528    0.4722 O   0  0  0  0  0  0
   -2.8707   -1.7621   -0.0498 O   0  5  0  0  0  0
    5.3311    0.3545    0.4689 H   0  0  0  0  0  0
    2.8051    0.4166    1.4055 H   0  0  0  0  0  0
    2.9060    1.3942   -0.0785 H   0  0  0  0  0  0
    1.8030   -0.4251   -1.3521 H   0  0  0  0  0  0
    1.7021   -1.4028    0.1319 H   0  0  0  0  0  0
   -0.7793   -1.0008   -0.8395 H   0  0  0  0  0  0
   -1.8766    0.9911    1.0145 H   0  0  0  0  0  0
   -2.4798    1.0088   -1.9776 H   0  0  0  0  0  0
   -3.2826    2.0182   -0.7509 H   0  0  0  0  0  0
   -1.5521    2.2476   -1.0984 H   0  0  0  0  0  0
  1  2  1  0  0  0
  1 12  1  0  0  0
  2  3  1  0  0  0
  2 13  1  0  0  0
  2 14  1  0  0  0
  3  4  1  0  0  0
  3 15  1  0  0  0
  3 16  1  0  0  0
  4  5  2  0  0  0
  4  6  1  0  0  0
  6  7  1  0  0  0
  6 17  1  0  0  0
  7  8  1  0  0  0
  7  9  1  0  0  0
  7 18  1  0  0  0
  8 19  1  0  0  0
  8 20  1  0  0  0
  8 21  1  0  0  0
  9 10  2  0  0  0
  9 11  1  0  0  0
M  CHG  1  11  -1
M  END
>  <Activity>
6.07

>  <set>
1

>  <Min_dist>
999.9

>  <Avg_dist>
999.9

$$$$
MOL_33
  Cerius2 12110214443D 1   1.00000                          
 
 31 31  0  0  0  0  0  0  0  0999 V2000
    4.9039    1.3619   -0.1672 S   0  0  0  0  0  0
    3.5256    0.4643    0.5979 C   0  0  0  0  0  0
    2.3859    0.3221   -0.4130 C   0  0  0  0  0  0
    1.2409   -0.4236    0.2226 C   0  0  0  0  0  0
    1.3279   -0.8039    1.3709 O   0  0  0  0  0  0
    0.1203   -0.6679   -0.4852 N   0  0  0  0  0  0
   -0.9929   -1.3928    0.1327 C   0  0  0  0  0  0
   -2.3118   -0.9254   -0.4860 C   0  0  0  0  0  0
   -2.4819    0.5530   -0.2488 C   0  0  0  0  0  0
   -1.9951    1.4614   -1.1701 C   0  0  0  0  0  0
   -2.1511    2.8175   -0.9525 C   0  0  0  0  0  0
   -2.7942    3.2654    0.1862 C   0  0  0  0  0  0
   -3.2817    2.3571    1.1071 C   0  0  0  0  0  0
   -3.1296    1.0008    0.8874 C   0  0  0  0  0  0
   -0.8228   -2.8713   -0.1045 C   0  0  0  0  0  0
   -0.2299   -3.2845   -1.1552 O   0  0  0  0  0  0
   -1.2719   -3.7092    0.7455 O   0  5  0  0  0  0
    5.7721    1.3763    0.8600 H   0  0  0  0  0  0
    3.8631   -0.5252    0.9065 H   0  0  0  0  0  0
    3.1719    1.0156    1.4690 H   0  0  0  0  0  0
    2.0485    1.3115   -0.7216 H   0  0  0  0  0  0
    2.7396   -0.2293   -1.2842 H   0  0  0  0  0  0
    0.0507   -0.3638   -1.4036 H   0  0  0  0  0  0
   -1.0044   -1.1958    1.2047 H   0  0  0  0  0  0
   -2.3003   -1.1225   -1.5579 H   0  0  0  0  0  0
   -3.1400   -1.4648   -0.0263 H   0  0  0  0  0  0
   -1.4927    1.1115   -2.0598 H   0  0  0  0  0  0
   -1.7702    3.5272   -1.6720 H   0  0  0  0  0  0
   -2.9154    4.3250    0.3566 H   0  0  0  0  0  0
   -3.7839    2.7070    1.9970 H   0  0  0  0  0  0
   -3.5105    0.2911    1.6069 H   0  0  0  0  0  0
  1  2  1  0  0  0
  1 18  1  0  0  0
  2  3  1  0  0  0
  2 19  1  0  0  0
  2 20  1  0  0  0
  3  4  1  0  0  0
  3 21  1  0  0  0
  3 22  1  0  0  0
  4  5  2  0  0  0
  4  6  1  0  0  0
  6  7  1  0  0  0
  6 23  1  0  0  0
  7  8  1  0  0  0
  7 15  1  0  0  0
  7 24  1  0  0  0
  8  9  1  0  0  0
  8 25  1  0  0  0
  8 26  1  0  0  0
  9 10  1  0  0  0
  9 14  2  0  0  0
 10 11  2  0  0  0
 10 27  1  0  0  0
 11 12  1  0  0  0
 11 28  1  0  0  0
 12 13  2  0  0  0
 12 29  1  0  0  0
 13 14  1  0  0  0
 13 30  1  0  0  0
 14 31  1  0  0  0
 15 16  2  0  0  0
 15 17  1  0  0  0
M  CHG  1  17  -1
M  END
>  <Activity>
6.37

>  <set>
1

>  <Min_dist>
999.9

>  <Avg_dist>
999.9

$$$$
MOL_34
  Cerius2 12110214443D 1   1.00000                          
 
 25 25  0  0  0  0  0  0  0  0999 V2000
    4.5009   -0.1025    0.2390 S   0  0  0  0  0  0
    2.9024    0.5793   -0.2810 C   0  0  0  0  0  0
    1.7880   -0.4083    0.0707 C   0  0  0  0  0  0
    0.4600    0.1581   -0.3612 C   0  0  0  0  0  0
    0.4098    1.2447   -0.8976 O   0  0  0  0  0  0
   -0.6719   -0.5429   -0.1516 N   0  0  0  0  0  0
   -2.0279   -0.1113   -0.5210 C   0  0  0  0  0  0
   -2.9956   -1.2423   -0.1137 C   0  0  0  0  0  0
   -2.0703   -2.4863   -0.0531 C   0  0  0  0  0  0
   -0.7546   -1.8722    0.4805 C   0  0  0  0  0  0
   -2.3810    1.1553    0.2152 C   0  0  0  0  0  0
   -3.4704    1.6765    0.0443 O   0  0  0  0  0  0
   -1.5775    1.6592    0.9820 O   0  5  0  0  0  0
    5.3173    0.8927   -0.1512 H   0  0  0  0  0  0
    2.7259    1.5243    0.2329 H   0  0  0  0  0  0
    2.9122    0.7477   -1.3578 H   0  0  0  0  0  0
    1.9645   -1.3532   -0.4431 H   0  0  0  0  0  0
    1.7782   -0.5767    1.1476 H   0  0  0  0  0  0
   -2.0838    0.0549   -1.5968 H   0  0  0  0  0  0
   -3.4352   -1.0406    0.8632 H   0  0  0  0  0  0
   -3.7720   -1.3755   -0.8671 H   0  0  0  0  0  0
   -2.4635   -3.2324    0.6375 H   0  0  0  0  0  0
   -1.9241   -2.9132   -1.0453 H   0  0  0  0  0  0
    0.0966   -2.4878    0.1899 H   0  0  0  0  0  0
   -0.7965   -1.7689    1.5648 H   0  0  0  0  0  0
  1  2  1  0  0  0
  1 14  1  0  0  0
  2  3  1  0  0  0
  2 15  1  0  0  0
  2 16  1  0  0  0
  3  4  1  0  0  0
  3 17  1  0  0  0
  3 18  1  0  0  0
  4  5  2  0  0  0
  4  6  1  0  0  0
  6  7  1  0  0  0
  6 10  1  0  0  0
  7  8  1  0  0  0
  7 11  1  0  0  0
  7 19  1  0  0  0
  8  9  1  0  0  0
  8 20  1  0  0  0
  8 21  1  0  0  0
  9 10  1  0  0  0
  9 22  1  0  0  0
  9 23  1  0  0  0
 10 24  1  0  0  0
 10 25  1  0  0  0
 11 12  2  0  0  0
 11 13  1  0  0  0
M  CHG  1  13  -1
M  END
>  <Activity>
6.7

>  <set>
1

>  <Min_dist>
999.9

>  <Avg_dist>
999.9

$$$$
MOL_37
  Cerius2 12110214443D 1   1.00000                          
 
 19 18  0  0  0  0  0  0  0  0999 V2000
    1.2430   -0.1331    0.0000 N   0  0  0  0  0  0
    0.0420    0.4784    0.0000 C   0  0  0  0  0  0
   -0.0219    1.6895    0.0000 O   0  0  0  0  0  0
   -1.2216   -0.3428    0.0000 C   0  0  0  0  0  0
   -2.4353    0.5888    0.0000 C   0  0  0  0  0  0
   -3.6989   -0.2325    0.0000 C   0  0  0  0  0  0
   -4.7858    0.3209    0.0000 O   0  0  0  0  0  0
   -3.6347   -1.4504    0.0000 O   0  5  0  0  0  0
    2.4714    0.6653    0.0000 C   0  0  0  0  0  0
    3.6669   -0.2523    0.0000 C   0  0  0  0  0  0
    4.7937    0.2143    0.0000 O   0  0  0  0  0  0
    3.5075   -1.4615   -0.0001 O   0  5  0  0  0  0
    1.2941   -1.1017    0.0040 H   0  0  0  0  0  0
   -1.2463   -0.9716   -0.8900 H   0  0  0  0  0  0
   -1.2463   -0.9717    0.8899 H   0  0  0  0  0  0
   -2.4107    1.2176    0.8900 H   0  0  0  0  0  0
   -2.4107    1.2176   -0.8900 H   0  0  0  0  0  0
    2.4960    1.2941   -0.8900 H   0  0  0  0  0  0
    2.4961    1.2941    0.8900 H   0  0  0  0  0  0
  1  2  1  0  0  0
  1  9  1  0  0  0
  1 13  1  0  0  0
  2  3  2  0  0  0
  2  4  1  0  0  0
  4  5  1  0  0  0
  4 14  1  0  0  0
  4 15  1  0  0  0
  5  6  1  0  0  0
  5 16  1  0  0  0
  5 17  1  0  0  0
  6  7  2  0  0  0
  6  8  1  0  0  0
  9 10  1  0  0  0
  9 18  1  0  0  0
  9 19  1  0  0  0
 10 11  2  0  0  0
 10 12  1  0  0  0
M  CHG  2   8  -1  12  -1
M  END
>  <Activity>
2.7

>  <set>
1

>  <Min_dist>
999.9

>  <Avg_dist>
999.9

$$$$
MOL_38
  Cerius2 12110214443D 1   1.00000                          
 
 22 21  0  0  0  0  0  0  0  0999 V2000
    1.0328   -0.1979    0.2684 N   0  0  0  0  0  0
   -0.1389    0.3699   -0.0798 C   0  0  0  0  0  0
   -0.1498    1.4561   -0.6192 O   0  0  0  0  0  0
   -1.4355   -0.3450    0.2009 C   0  0  0  0  0  0
   -2.6058    0.5098   -0.2896 C   0  0  0  0  0  0
   -3.9024   -0.2050   -0.0089 C   0  0  0  0  0  0
   -4.9627    0.3088   -0.3241 O   0  0  0  0  0  0
   -3.8914   -1.2974    0.5335 O   0  5  0  0  0  0
    2.2933    0.4971   -0.0045 C   0  0  0  0  0  0
    2.6586    1.3791    1.1911 C   0  0  0  0  0  0
    3.3856   -0.5154   -0.2342 C   0  0  0  0  0  0
    4.5726   -0.1258   -0.4901 O   0  0  0  0  0  0
    3.1229   -1.7618   -0.1727 O   0  5  0  0  0  0
    1.0413   -1.0648    0.7034 H   0  0  0  0  0  0
   -1.4422   -1.3029   -0.3191 H   0  0  0  0  0  0
   -1.5329   -0.5131    1.2735 H   0  0  0  0  0  0
   -2.5990    1.4678    0.2304 H   0  0  0  0  0  0
   -2.5084    0.6780   -1.3622 H   0  0  0  0  0  0
    2.1807    1.1181   -0.8932 H   0  0  0  0  0  0
    2.7711    0.7581    2.0798 H   0  0  0  0  0  0
    3.5964    1.8962    0.9881 H   0  0  0  0  0  0
    1.8685    2.1114    1.3573 H   0  0  0  0  0  0
  1  2  1  0  0  0
  1  9  1  0  0  0
  1 14  1  0  0  0
  2  3  2  0  0  0
  2  4  1  0  0  0
  4  5  1  0  0  0
  4 15  1  0  0  0
  4 16  1  0  0  0
  5  6  1  0  0  0
  5 17  1  0  0  0
  5 18  1  0  0  0
  6  7  2  0  0  0
  6  8  1  0  0  0
  9 10  1  0  0  0
  9 11  1  0  0  0
  9 19  1  0  0  0
 10 20  1  0  0  0
 10 21  1  0  0  0
 10 22  1  0  0  0
 11 12  2  0  0  0
 11 13  1  0  0  0
M  CHG  2   8  -1  13  -1
M  END
>  <Activity>
2.87

>  <set>
1

>  <Min_dist>
999.9

>  <Avg_dist>
999.9

$$$$
MOL_41
  Cerius2 12110214443D 1   1.00000                          
 
 28 28  0  0  0  0  0  0  0  0999 V2000
    4.2257    0.2674   -0.5967 S   0  0  0  0  0  0
    2.5961    0.8252   -0.0277 C   0  0  0  0  0  0
    1.6560   -0.3768    0.0840 C   0  0  0  0  0  0
    0.3021    0.0866    0.5567 C   0  0  0  0  0  0
    0.2143    1.0307    1.3130 O   0  0  0  0  0  0
   -0.8111   -0.5480    0.1390 N   0  0  0  0  0  0
   -2.1922   -0.1364    0.4297 C   0  0  0  0  0  0
   -3.1273   -1.1726   -0.2287 C   0  0  0  0  0  0
   -2.2163   -2.4201   -0.3739 C   0  0  0  0  0  0
   -0.8455   -1.7664   -0.6903 C   0  0  0  0  0  0
   -2.4525    1.2301   -0.1498 C   0  0  0  0  0  0
   -3.5969    1.7749   -0.0092 O   0  0  0  0  0  0
   -1.5283    1.8417   -0.7809 O   0  5  0  0  0  0
    2.2294   -1.3814    1.0854 C   0  0  0  0  0  0
    4.8781    1.4432   -0.6256 H   0  0  0  0  0  0
    2.6951    1.3009    0.9480 H   0  0  0  0  0  0
    2.1875    1.5409   -0.7411 H   0  0  0  0  0  0
    1.5569   -0.8525   -0.8917 H   0  0  0  0  0  0
   -2.3556   -0.1216    1.5073 H   0  0  0  0  0  0
   -3.9782   -1.3895    0.4171 H   0  0  0  0  0  0
   -3.4623   -0.8239   -1.2056 H   0  0  0  0  0  0
   -2.1775   -2.9860    0.5569 H   0  0  0  0  0  0
   -2.5462   -3.0509   -1.1993 H   0  0  0  0  0  0
   -0.7812   -1.5133   -1.7486 H   0  0  0  0  0  0
   -0.0322   -2.4356   -0.4094 H   0  0  0  0  0  0
    2.4227   -0.8795    2.0334 H   0  0  0  0  0  0
    1.5134   -2.1884    1.2409 H   0  0  0  0  0  0
    3.1606   -1.7921    0.6952 H   0  0  0  0  0  0
  1  2  1  0  0  0
  1 15  1  0  0  0
  2  3  1  0  0  0
  2 16  1  0  0  0
  2 17  1  0  0  0
  3  4  1  0  0  0
  3 14  1  0  0  0
  3 18  1  0  0  0
  4  5  2  0  0  0
  4  6  1  0  0  0
  6  7  1  0  0  0
  6 10  1  0  0  0
  7  8  1  0  0  0
  7 11  1  0  0  0
  7 19  1  0  0  0
  8  9  1  0  0  0
  8 20  1  0  0  0
  8 21  1  0  0  0
  9 10  1  0  0  0
  9 22  1  0  0  0
  9 23  1  0  0  0
 10 24  1  0  0  0
 10 25  1  0  0  0
 11 12  2  0  0  0
 11 13  1  0  0  0
 14 26  1  0  0  0
 14 27  1  0  0  0
 14 28  1  0  0  0
M  CHG  1  13  -1
M  END
>  <Activity>
4.96

>  <set>
1

>  <Min_dist>
999.9

>  <Avg_dist>
999.9

$$$$
MOL_42
  Cerius2 12110214443D 1   1.00000                          
 
 25 25  0  0  0  0  0  0  0  0999 V2000
    4.5022   -0.0968   -0.2362 S   0  0  0  0  0  0
    2.9021    0.5804    0.2852 C   0  0  0  0  0  0
    1.7899   -0.4088   -0.0687 C   0  0  0  0  0  0
    0.4607    0.1538    0.3645 C   0  0  0  0  0  0
    0.4081    1.2391    0.9033 O   0  0  0  0  0  0
   -0.6697   -0.5491    0.1532 N   0  0  0  0  0  0
   -2.0267   -0.1213    0.5236 C   0  0  0  0  0  0
   -2.9922   -1.2526    0.1120 C   0  0  0  0  0  0
   -2.0646   -2.4947    0.0474 C   0  0  0  0  0  0
   -0.7510   -1.8715   -0.4934 C   0  0  0  0  0  0
   -2.3818    1.1472   -0.2084 C   0  0  0  0  0  0
   -3.5219    1.6895   -0.0283 O   0  0  0  0  0  0
   -1.5422    1.6784   -1.0080 O   0  5  0  0  0  0
    5.3164    0.8992    0.1563 H   0  0  0  0  0  0
    2.9115    0.7463    1.3625 H   0  0  0  0  0  0
    2.7237    1.5261   -0.2265 H   0  0  0  0  0  0
    1.7805   -0.5747   -1.1460 H   0  0  0  0  0  0
    1.9683   -1.3545    0.4430 H   0  0  0  0  0  0
   -2.0833    0.0411    1.5999 H   0  0  0  0  0  0
   -3.7686   -1.3898    0.8646 H   0  0  0  0  0  0
   -3.4317   -1.0484   -0.8643 H   0  0  0  0  0  0
   -1.9180   -2.9248    1.0382 H   0  0  0  0  0  0
   -2.4562   -3.2392   -0.6458 H   0  0  0  0  0  0
   -0.7986   -1.7674   -1.5773 H   0  0  0  0  0  0
    0.1048   -2.4830   -0.2075 H   0  0  0  0  0  0
  1  2  1  0  0  0
  1 14  1  0  0  0
  2  3  1  0  0  0
  2 15  1  0  0  0
  2 16  1  0  0  0
  3  4  1  0  0  0
  3 17  1  0  0  0
  3 18  1  0  0  0
  4  5  2  0  0  0
  4  6  1  0  0  0
  6  7  1  0  0  0
  6 10  1  0  0  0
  7  8  1  0  0  0
  7 11  1  0  0  0
  7 19  1  0  0  0
  8  9  1  0  0  0
  8 20  1  0  0  0
  8 21  1  0  0  0
  9 10  1  0  0  0
  9 22  1  0  0  0
  9 23  1  0  0  0
 10 24  1  0  0  0
 10 25  1  0  0  0
 11 12  2  0  0  0
 11 13  1  0  0  0
M  CHG  1  13  -1
M  END
>  <Activity>
2.74

>  <set>
1

>  <Min_dist>
999.9

>  <Avg_dist>
999.9

$$$$
MOL_43
  Cerius2 12110214443D 1   1.00000                          
 
 28 27  0  0  0  0  0  0  0  0999 V2000
    0.6194   -0.3639   -0.4168 N   0  0  0  0  0  0
   -0.5023   -0.0082    0.2404 C   0  0  0  0  0  0
   -0.4252    0.5280    1.3255 O   0  0  0  0  0  0
   -1.8523   -0.2768   -0.3732 C   0  0  0  0  0  0
   -2.9493    0.2203    0.5703 C   0  0  0  0  0  0
   -4.2993   -0.0483   -0.0432 C   0  0  0  0  0  0
   -5.3144    0.2736    0.5514 O   0  0  0  0  0  0
   -4.3768   -0.5875   -1.1344 O   0  5  0  0  0  0
    1.9318   -0.1028    0.1797 C   0  0  0  0  0  0
    2.9259   -1.1671   -0.2892 C   0  0  0  0  0  0
    4.2965   -0.8944    0.3337 C   0  0  0  0  0  0
    2.4348   -2.5498    0.1440 C   0  0  0  0  0  0
    2.4155    1.2592   -0.2470 C   0  0  0  0  0  0
    2.0803    1.7144   -1.3277 O   0  0  0  0  0  0
    3.1422    1.9063    0.4884 O   0  5  0  0  0  0
    0.5576   -0.7964   -1.2828 H   0  0  0  0  0  0
   -1.9286    0.2461   -1.3266 H   0  0  0  0  0  0
   -1.9708   -1.3481   -0.5358 H   0  0  0  0  0  0
   -2.8730   -0.3025    1.5237 H   0  0  0  0  0  0
   -2.8308    1.2916    0.7330 H   0  0  0  0  0  0
    1.8501   -0.1354    1.2661 H   0  0  0  0  0  0
    3.0076   -1.1344   -1.3756 H   0  0  0  0  0  0
    5.0048   -1.6526   -0.0003 H   0  0  0  0  0  0
    4.6464    0.0907    0.0251 H   0  0  0  0  0  0
    4.2148   -0.9270    1.4202 H   0  0  0  0  0  0
    2.3531   -2.5825    1.2304 H   0  0  0  0  0  0
    1.4584   -2.7441   -0.2998 H   0  0  0  0  0  0
    3.1431   -3.3080   -0.1901 H   0  0  0  0  0  0
  1  2  1  0  0  0
  1  9  1  0  0  0
  1 16  1  0  0  0
  2  3  2  0  0  0
  2  4  1  0  0  0
  4  5  1  0  0  0
  4 17  1  0  0  0
  4 18  1  0  0  0
  5  6  1  0  0  0
  5 19  1  0  0  0
  5 20  1  0  0  0
  6  7  2  0  0  0
  6  8  1  0  0  0
  9 10  1  0  0  0
  9 13  1  0  0  0
  9 21  1  0  0  0
 10 11  1  0  0  0
 10 12  1  0  0  0
 10 22  1  0  0  0
 11 23  1  0  0  0
 11 24  1  0  0  0
 11 25  1  0  0  0
 12 26  1  0  0  0
 12 27  1  0  0  0
 12 28  1  0  0  0
 13 14  2  0  0  0
 13 15  1  0  0  0
M  CHG  2   8  -1  15  -1
M  END
>  <Activity>
2.96

>  <set>
1

>  <Min_dist>
999.9

>  <Avg_dist>
999.9

$$$$
MOL_45
  Cerius2 12110214443D 1   1.00000                          
 
 31 30  0  0  0  0  0  0  0  0999 V2000
    0.3093   -0.2251   -0.4012 N   0  0  0  0  0  0
   -0.8377    0.0623    0.2454 C   0  0  0  0  0  0
   -0.8037    0.6201    1.3218 O   0  0  0  0  0  0
   -2.1626   -0.3094   -0.3691 C   0  0  0  0  0  0
   -3.2964    0.1254    0.5617 C   0  0  0  0  0  0
   -4.6213   -0.2464   -0.0528 C   0  0  0  0  0  0
   -5.6593    0.0137    0.5324 O   0  0  0  0  0  0
   -4.6555   -0.8073   -1.1352 O   0  5  0  0  0  0
    1.5973    0.1363    0.1961 C   0  0  0  0  0  0
    2.6654   -0.8637   -0.2511 C   0  0  0  0  0  0
    4.0105   -0.4862    0.3727 C   0  0  0  0  0  0
    5.0786   -1.4862   -0.0745 C   0  0  0  0  0  0
    2.2694   -2.2700    0.2029 C   0  0  0  0  0  0
    1.9874    1.5216   -0.2511 C   0  0  0  0  0  0
    1.6269    1.9348   -1.3405 O   0  0  0  0  0  0
    2.6635    2.2295    0.4765 O   0  5  0  0  0  0
    0.2823   -0.6748   -1.2603 H   0  0  0  0  0  0
   -2.2701    0.1913   -1.3313 H   0  0  0  0  0  0
   -2.2056   -1.3889   -0.5144 H   0  0  0  0  0  0
   -3.1889   -0.3754    1.5239 H   0  0  0  0  0  0
   -3.2534    1.2048    0.7071 H   0  0  0  0  0  0
    1.5124    0.1157    1.2826 H   0  0  0  0  0  0
    2.7502   -0.8430   -1.3376 H   0  0  0  0  0  0
    4.2926    0.5157    0.0493 H   0  0  0  0  0  0
    3.9257   -0.5069    1.4592 H   0  0  0  0  0  0
    6.0369   -1.2173    0.3699 H   0  0  0  0  0  0
    4.7965   -2.4881    0.2489 H   0  0  0  0  0  0
    5.1635   -1.4656   -1.1610 H   0  0  0  0  0  0
    2.1845   -2.2907    1.2894 H   0  0  0  0  0  0
    1.3111   -2.5389   -0.2416 H   0  0  0  0  0  0
    3.0303   -2.9825   -0.1158 H   0  0  0  0  0  0
  1  2  1  0  0  0
  1  9  1  0  0  0
  1 17  1  0  0  0
  2  3  2  0  0  0
  2  4  1  0  0  0
  4  5  1  0  0  0
  4 18  1  0  0  0
  4 19  1  0  0  0
  5  6  1  0  0  0
  5 20  1  0  0  0
  5 21  1  0  0  0
  6  7  2  0  0  0
  6  8  1  0  0  0
  9 10  1  0  0  0
  9 14  1  0  0  0
  9 22  1  0  0  0
 10 11  1  0  0  0
 10 13  1  0  0  0
 10 23  1  0  0  0
 11 12  1  0  0  0
 11 24  1  0  0  0
 11 25  1  0  0  0
 12 26  1  0  0  0
 12 27  1  0  0  0
 12 28  1  0  0  0
 13 29  1  0  0  0
 13 30  1  0  0  0
 13 31  1  0  0  0
 14 15  2  0  0  0
 14 16  1  0  0  0
M  CHG  2   8  -1  16  -1
M  END
>  <Activity>
2.98

>  <set>
1

>  <Min_dist>
999.9

>  <Avg_dist>
999.9

$$$$
MOL_46
  Cerius2 12110214443D 1   1.00000                          
 
 32 32  0  0  0  0  0  0  0  0999 V2000
    0.1544    0.7198   -0.4741 N   0  0  0  0  0  0
   -0.9776    0.5765    0.2431 C   0  0  0  0  0  0
   -1.0253    0.9759    1.3873 O   0  0  0  0  0  0
   -2.1843   -0.0800   -0.3766 C   0  0  0  0  0  0
   -3.3249   -0.1164    0.6425 C   0  0  0  0  0  0
   -4.5315   -0.7729    0.0227 C   0  0  0  0  0  0
   -5.5559   -0.9026    0.6718 O   0  0  0  0  0  0
   -4.4836   -1.1746   -1.1279 O   0  5  0  0  0  0
    1.3274    1.3580    0.1284 C   0  0  0  0  0  0
    2.5994    0.7768   -0.4923 C   0  0  0  0  0  0
    2.6492   -0.7077   -0.2382 C   0  0  0  0  0  0
    2.0833   -1.5837   -1.1456 C   0  0  0  0  0  0
    2.1290   -2.9454   -0.9126 C   0  0  0  0  0  0
    2.7410   -3.4313    0.2277 C   0  0  0  0  0  0
    3.3077   -2.5555    1.1347 C   0  0  0  0  0  0
    3.2658   -1.1939    0.8995 C   0  0  0  0  0  0
    1.2775    2.8426   -0.1257 C   0  0  0  0  0  0
    0.7133    3.2909   -1.1779 O   0  0  0  0  0  0
    1.7996    3.6507    0.7114 O   0  5  0  0  0  0
    0.1938    0.3968   -1.3879 H   0  0  0  0  0  0
   -2.4975    0.4885   -1.2524 H   0  0  0  0  0  0
   -1.9312   -1.0973   -0.6753 H   0  0  0  0  0  0
   -3.0116   -0.6848    1.5182 H   0  0  0  0  0  0
   -3.5779    0.9009    0.9411 H   0  0  0  0  0  0
    1.3300    1.1732    1.2026 H   0  0  0  0  0  0
    2.5967    0.9617   -1.5665 H   0  0  0  0  0  0
    3.4721    1.2517   -0.0440 H   0  0  0  0  0  0
    1.6052   -1.2040   -2.0365 H   0  0  0  0  0  0
    1.6863   -3.6297   -1.6212 H   0  0  0  0  0  0
    2.7761   -4.4952    0.4102 H   0  0  0  0  0  0
    3.7855   -2.9351    2.0258 H   0  0  0  0  0  0
    3.7085   -0.5096    1.6081 H   0  0  0  0  0  0
  1  2  1  0  0  0
  1  9  1  0  0  0
  1 20  1  0  0  0
  2  3  2  0  0  0
  2  4  1  0  0  0
  4  5  1  0  0  0
  4 21  1  0  0  0
  4 22  1  0  0  0
  5  6  1  0  0  0
  5 23  1  0  0  0
  5 24  1  0  0  0
  6  7  2  0  0  0
  6  8  1  0  0  0
  9 10  1  0  0  0
  9 17  1  0  0  0
  9 25  1  0  0  0
 10 11  1  0  0  0
 10 26  1  0  0  0
 10 27  1  0  0  0
 11 12  1  0  0  0
 11 16  2  0  0  0
 12 13  2  0  0  0
 12 28  1  0  0  0
 13 14  1  0  0  0
 13 29  1  0  0  0
 14 15  2  0  0  0
 14 30  1  0  0  0
 15 16  1  0  0  0
 15 31  1  0  0  0
 16 32  1  0  0  0
 17 18  2  0  0  0
 17 19  1  0  0  0
M  CHG  2   8  -1  19  -1
M  END
>  <Activity>
3.26

>  <set>
1

>  <Min_dist>
999.9

>  <Avg_dist>
999.9

$$$$
MOL_47
  Cerius2 12110214443D 1   1.00000                          
 
 23 23  0  0  0  0  0  0  0  0999 V2000
    0.1598    0.5548    0.0885 N   0  0  0  0  0  0
   -1.1552    0.0932    0.5570 C   0  0  0  0  0  0
   -2.1770    1.1981    0.2156 C   0  0  0  0  0  0
   -1.2891    2.4635    0.0826 C   0  0  0  0  0  0
   -0.0016    1.8753   -0.5468 C   0  0  0  0  0  0
   -1.5296   -1.1861   -0.1461 C   0  0  0  0  0  0
   -2.5907   -1.7322    0.1054 O   0  0  0  0  0  0
   -0.7714   -1.6754   -0.9667 O   0  5  0  0  0  0
    1.3212   -0.1156    0.2229 C   0  0  0  0  0  0
    1.3370   -1.1977    0.7702 O   0  0  0  0  0  0
    2.6003    0.4795   -0.3070 C   0  0  0  0  0  0
    3.7154   -0.4384   -0.0386 N   0  0  0  0  0  0
   -1.1293   -0.0676    1.6347 H   0  0  0  0  0  0
   -2.6808    0.9799   -0.7260 H   0  0  0  0  0  0
   -2.9000    1.3174    1.0225 H   0  0  0  0  0  0
   -1.7491    3.1956   -0.5810 H   0  0  0  0  0  0
   -1.0821    2.9000    1.0597 H   0  0  0  0  0  0
    0.8549    2.5112   -0.3228 H   0  0  0  0  0  0
   -0.1221    1.7656   -1.6245 H   0  0  0  0  0  0
    2.5099    0.6369   -1.3818 H   0  0  0  0  0  0
    2.7885    1.4336    0.1853 H   0  0  0  0  0  0
    4.5462   -0.0013   -0.4085 H   0  0  0  0  0  0
    3.8277   -0.4730    0.9635 H   0  0  0  0  0  0
  1  2  1  0  0  0
  1  5  1  0  0  0
  1  9  1  0  0  0
  2  3  1  0  0  0
  2  6  1  0  0  0
  2 13  1  0  0  0
  3  4  1  0  0  0
  3 14  1  0  0  0
  3 15  1  0  0  0
  4  5  1  0  0  0
  4 16  1  0  0  0
  4 17  1  0  0  0
  5 18  1  0  0  0
  5 19  1  0  0  0
  6  7  2  0  0  0
  6  8  1  0  0  0
  9 10  2  0  0  0
  9 11  1  0  0  0
 11 12  1  0  0  0
 11 20  1  0  0  0
 11 21  1  0  0  0
 12 22  1  0  0  0
 12 23  1  0  0  0
M  CHG  1   8  -1
M  END
>  <Activity>
3.35

>  <set>
1

>  <Min_dist>
999.9

>  <Avg_dist>
999.9

$$$$
MOL_49
  Cerius2 12110214443D 1   1.00000                          
 
 32 32  0  0  0  0  0  0  0  0999 V2000
   -0.5825    0.6153    0.2787 N   0  0  0  0  0  0
   -1.9699    0.1680    0.4704 C   0  0  0  0  0  0
   -2.8862    1.2240   -0.1829 C   0  0  0  0  0  0
   -1.9911    2.4910   -0.2111 C   0  0  0  0  0  0
   -0.5939    1.8788   -0.4808 C   0  0  0  0  0  0
   -2.1738   -1.1691   -0.1944 C   0  0  0  0  0  0
   -3.3142   -1.7377   -0.1463 O   0  0  0  0  0  0
   -1.2058   -1.7318   -0.8049 O   0  5  0  0  0  0
    0.5172   -0.0213    0.7279 C   0  0  0  0  0  0
    0.4070   -1.0568    1.3496 O   0  0  0  0  0  0
    1.8838    0.5535    0.4576 C   0  0  0  0  0  0
    2.7960    0.1807    1.5470 N   0  0  0  0  0  0
    2.4170    0.0009   -0.8657 C   0  0  0  0  0  0
    3.8044    0.5845   -1.1401 C   0  0  0  0  0  0
    2.5128   -1.5237   -0.7800 C   0  0  0  0  0  0
   -2.1913    0.0926    1.5350 H   0  0  0  0  0  0
   -3.1612    0.9235   -1.1939 H   0  0  0  0  0  0
   -3.7746    1.3930    0.4255 H   0  0  0  0  0  0
   -2.2868    3.1604   -1.0189 H   0  0  0  0  0  0
   -2.0131    3.0064    0.7491 H   0  0  0  0  0  0
    0.1888    2.5458   -0.1192 H   0  0  0  0  0  0
   -0.4646    1.6828   -1.5452 H   0  0  0  0  0  0
    1.8155    1.6397    0.3966 H   0  0  0  0  0  0
    2.8281   -0.8276    1.5661 H   0  0  0  0  0  0
    3.7156    0.4950    1.2755 H   0  0  0  0  0  0
    1.7401    0.2775   -1.6740 H   0  0  0  0  0  0
    4.1843    0.1908   -2.0828 H   0  0  0  0  0  0
    3.7361    1.6707   -1.2011 H   0  0  0  0  0  0
    4.4813    0.3079   -0.3317 H   0  0  0  0  0  0
    3.1897   -1.8003    0.0283 H   0  0  0  0  0  0
    1.5244   -1.9395   -0.5846 H   0  0  0  0  0  0
    2.8927   -1.9174   -1.7228 H   0  0  0  0  0  0
  1  2  1  0  0  0
  1  5  1  0  0  0
  1  9  1  0  0  0
  2  3  1  0  0  0
  2  6  1  0  0  0
  2 16  1  0  0  0
  3  4  1  0  0  0
  3 17  1  0  0  0
  3 18  1  0  0  0
  4  5  1  0  0  0
  4 19  1  0  0  0
  4 20  1  0  0  0
  5 21  1  0  0  0
  5 22  1  0  0  0
  6  7  2  0  0  0
  6  8  1  0  0  0
  9 10  2  0  0  0
  9 11  1  0  0  0
 11 12  1  0  0  0
 11 13  1  0  0  0
 11 23  1  0  0  0
 12 24  1  0  0  0
 12 25  1  0  0  0
 13 14  1  0  0  0
 13 15  1  0  0  0
 13 26  1  0  0  0
 14 27  1  0  0  0
 14 28  1  0  0  0
 14 29  1  0  0  0
 15 30  1  0  0  0
 15 31  1  0  0  0
 15 32  1  0  0  0
M  CHG  1   8  -1
M  END
>  <Activity>
3.38

>  <set>
1

>  <Min_dist>
999.9

>  <Avg_dist>
999.9

$$$$
MOL_50
  Cerius2 12110214443D 1   1.00000                          
 
 35 35  0  0  0  0  0  0  0  0999 V2000
   -0.9041    0.6069    0.3258 N   0  0  0  0  0  0
   -2.3035    0.1563    0.3297 C   0  0  0  0  0  0
   -3.1289    1.2183   -0.4268 C   0  0  0  0  0  0
   -2.2408    2.4864   -0.3246 C   0  0  0  0  0  0
   -0.8189    1.8783   -0.4155 C   0  0  0  0  0  0
   -2.4156   -1.1739   -0.3697 C   0  0  0  0  0  0
   -3.5017   -1.7192   -0.4725 O   0  0  0  0  0  0
   -1.4203   -1.7050   -0.8331 O   0  5  0  0  0  0
    0.1289   -0.0334    0.9084 C   0  0  0  0  0  0
   -0.0592   -1.0755    1.4997 O   0  0  0  0  0  0
    1.5178    0.5456    0.8252 C   0  0  0  0  0  0
    2.2806    0.1621    2.0207 N   0  0  0  0  0  0
    2.2208    0.0074   -0.4226 C   0  0  0  0  0  0
    3.6308    0.5952   -0.5071 C   0  0  0  0  0  0
    4.3338    0.0570   -1.7549 C   0  0  0  0  0  0
    2.3081   -1.5179   -0.3409 C   0  0  0  0  0  0
   -2.6621    0.0695    1.3554 H   0  0  0  0  0  0
   -3.2687    0.9282   -1.4682 H   0  0  0  0  0  0
   -4.0898    1.3800    0.0618 H   0  0  0  0  0  0
   -2.4299    3.1640   -1.1572 H   0  0  0  0  0  0
   -2.3894    2.9916    0.6297 H   0  0  0  0  0  0
   -0.0918    2.5422    0.0522 H   0  0  0  0  0  0
   -0.5511    1.6937   -1.4559 H   0  0  0  0  0  0
    1.4556    1.6322    0.7670 H   0  0  0  0  0  0
    2.3122   -0.8463    2.0333 H   0  0  0  0  0  0
    3.2270    0.4801    1.8751 H   0  0  0  0  0  0
    1.6548    0.2919   -1.3096 H   0  0  0  0  0  0
    3.5686    1.6818   -0.5653 H   0  0  0  0  0  0
    4.1968    0.3107    0.3800 H   0  0  0  0  0  0
    5.3384    0.4758   -1.8151 H   0  0  0  0  0  0
    4.3960   -1.0296   -1.6967 H   0  0  0  0  0  0
    3.7678    0.3415   -2.6420 H   0  0  0  0  0  0
    2.8741   -1.8024    0.5461 H   0  0  0  0  0  0
    1.3036   -1.9367   -0.2807 H   0  0  0  0  0  0
    2.8089   -1.9013   -1.2299 H   0  0  0  0  0  0
  1  2  1  0  0  0
  1  5  1  0  0  0
  1  9  1  0  0  0
  2  3  1  0  0  0
  2  6  1  0  0  0
  2 17  1  0  0  0
  3  4  1  0  0  0
  3 18  1  0  0  0
  3 19  1  0  0  0
  4  5  1  0  0  0
  4 20  1  0  0  0
  4 21  1  0  0  0
  5 22  1  0  0  0
  5 23  1  0  0  0
  6  7  2  0  0  0
  6  8  1  0  0  0
  9 10  2  0  0  0
  9 11  1  0  0  0
 11 12  1  0  0  0
 11 13  1  0  0  0
 11 24  1  0  0  0
 12 25  1  0  0  0
 12 26  1  0  0  0
 13 14  1  0  0  0
 13 16  1  0  0  0
 13 27  1  0  0  0
 14 15  1  0  0  0
 14 28  1  0  0  0
 14 29  1  0  0  0
 15 30  1  0  0  0
 15 31  1  0  0  0
 15 32  1  0  0  0
 16 33  1  0  0  0
 16 34  1  0  0  0
 16 35  1  0  0  0
M  CHG  1   8  -1
M  END
>  <Activity>
3.89

>  <set>
1

>  <Min_dist>
999.9

>  <Avg_dist>
999.9

$$$$
MOL_51
  Cerius2 12110214443D 1   1.00000                          
 
 29 29  0  0  0  0  0  0  0  0999 V2000
    0.9103   -0.2459    0.5235 N   0  0  0  0  0  0
    1.5173   -1.2515   -0.1374 C   0  0  0  0  0  0
    1.8632   -1.0981   -1.2897 O   0  0  0  0  0  0
    1.7662   -2.5664    0.5554 C   0  0  0  0  0  0
    2.4353   -3.4892   -0.3713 N   0  0  0  0  0  0
    0.6683    1.0324   -0.1500 C   0  0  0  0  0  0
   -0.5885    1.6845    0.4298 C   0  0  0  0  0  0
   -1.7703    0.7736    0.2181 C   0  0  0  0  0  0
   -2.0974   -0.1680    1.1759 C   0  0  0  0  0  0
   -3.1814   -1.0035    0.9818 C   0  0  0  0  0  0
   -3.9385   -0.8972   -0.1699 C   0  0  0  0  0  0
   -3.6119    0.0450   -1.1273 C   0  0  0  0  0  0
   -2.5305    0.8834   -0.9311 C   0  0  0  0  0  0
    1.8500    1.9433    0.0616 C   0  0  0  0  0  0
    2.5483    1.8455    1.1242 O   0  0  0  0  0  0
    2.1518    2.8120   -0.8220 O   0  5  0  0  0  0
    0.6300   -0.3699    1.4438 H   0  0  0  0  0  0
    2.4002   -2.4036    1.4270 H   0  0  0  0  0  0
    0.8158   -2.9956    0.8725 H   0  0  0  0  0  0
    2.5810   -4.3511    0.1326 H   0  0  0  0  0  0
    1.7746   -3.6914   -1.1066 H   0  0  0  0  0  0
    0.5289    0.8602   -1.2173 H   0  0  0  0  0  0
   -0.4491    1.8568    1.4970 H   0  0  0  0  0  0
   -0.7686    2.6356   -0.0713 H   0  0  0  0  0  0
   -1.5059   -0.2510    2.0757 H   0  0  0  0  0  0
   -3.4366   -1.7397    1.7297 H   0  0  0  0  0  0
   -4.7850   -1.5505   -0.3219 H   0  0  0  0  0  0
   -4.2032    0.1278   -2.0272 H   0  0  0  0  0  0
   -2.2753    1.6196   -1.6791 H   0  0  0  0  0  0
  1  2  1  0  0  0
  1  6  1  0  0  0
  1 17  1  0  0  0
  2  3  2  0  0  0
  2  4  1  0  0  0
  4  5  1  0  0  0
  4 18  1  0  0  0
  4 19  1  0  0  0
  5 20  1  0  0  0
  5 21  1  0  0  0
  6  7  1  0  0  0
  6 14  1  0  0  0
  6 22  1  0  0  0
  7  8  1  0  0  0
  7 23  1  0  0  0
  7 24  1  0  0  0
  8  9  1  0  0  0
  8 13  2  0  0  0
  9 10  2  0  0  0
  9 25  1  0  0  0
 10 11  1  0  0  0
 10 26  1  0  0  0
 11 12  2  0  0  0
 11 27  1  0  0  0
 12 13  1  0  0  0
 12 28  1  0  0  0
 13 29  1  0  0  0
 14 15  2  0  0  0
 14 16  1  0  0  0
M  CHG  1  16  -1
M  END
>  <Activity>
3.22

>  <set>
1

>  <Min_dist>
999.9

>  <Avg_dist>
999.9

$$$$
MOL_52
  Cerius2 12110214443D 1   1.00000                          
 
 32 32  0  0  0  0  0  0  0  0999 V2000
    0.7823   -0.0148    0.3589 N   0  0  0  0  0  0
    1.4972   -0.8448   -0.4263 C   0  0  0  0  0  0
    1.7330   -0.5389   -1.5759 O   0  0  0  0  0  0
    2.0035   -2.1531    0.1243 C   0  0  0  0  0  0
    2.7476   -2.8689   -0.9206 N   0  0  0  0  0  0
    2.9272   -1.8825    1.3137 C   0  0  0  0  0  0
    0.2901    1.2570   -0.1764 C   0  0  0  0  0  0
   -1.0126    1.6376    0.5300 C   0  0  0  0  0  0
   -2.0427    0.5625    0.2976 C   0  0  0  0  0  0
   -2.1456   -0.4981    1.1783 C   0  0  0  0  0  0
   -3.0905   -1.4843    0.9651 C   0  0  0  0  0  0
   -3.9327   -1.4098   -0.1285 C   0  0  0  0  0  0
   -3.8304   -0.3487   -1.0087 C   0  0  0  0  0  0
   -2.8884    0.6397   -0.7931 C   0  0  0  0  0  0
    1.3202    2.3321    0.0560 C   0  0  0  0  0  0
    2.0970    2.2636    1.0651 O   0  0  0  0  0  0
    1.4152    3.3105   -0.7564 O   0  5  0  0  0  0
    0.5904   -0.2613    1.2772 H   0  0  0  0  0  0
    1.1596   -2.7609    0.4506 H   0  0  0  0  0  0
    3.0658   -3.7336   -0.5092 H   0  0  0  0  0  0
    2.0791   -3.1163   -1.6347 H   0  0  0  0  0  0
    3.7711   -1.2747    0.9874 H   0  0  0  0  0  0
    2.3750   -1.3513    2.0890 H   0  0  0  0  0  0
    3.2934   -2.8288    1.7119 H   0  0  0  0  0  0
    0.1069    1.1545   -1.2460 H   0  0  0  0  0  0
   -0.8294    1.7401    1.5996 H   0  0  0  0  0  0
   -1.3788    2.5838    0.1317 H   0  0  0  0  0  0
   -1.4876   -0.5563    2.0327 H   0  0  0  0  0  0
   -3.1704   -2.3133    1.6527 H   0  0  0  0  0  0
   -4.6705   -2.1807   -0.2955 H   0  0  0  0  0  0
   -4.4882   -0.2907   -1.8632 H   0  0  0  0  0  0
   -2.8085    1.4687   -1.4807 H   0  0  0  0  0  0
  1  2  1  0  0  0
  1  7  1  0  0  0
  1 18  1  0  0  0
  2  3  2  0  0  0
  2  4  1  0  0  0
  4  5  1  0  0  0
  4  6  1  0  0  0
  4 19  1  0  0  0
  5 20  1  0  0  0
  5 21  1  0  0  0
  6 22  1  0  0  0
  6 23  1  0  0  0
  6 24  1  0  0  0
  7  8  1  0  0  0
  7 15  1  0  0  0
  7 25  1  0  0  0
  8  9  1  0  0  0
  8 26  1  0  0  0
  8 27  1  0  0  0
  9 10  1  0  0  0
  9 14  2  0  0  0
 10 11  2  0  0  0
 10 28  1  0  0  0
 11 12  1  0  0  0
 11 29  1  0  0  0
 12 13  2  0  0  0
 12 30  1  0  0  0
 13 14  1  0  0  0
 13 31  1  0  0  0
 14 32  1  0  0  0
 15 16  2  0  0  0
 15 17  1  0  0  0
M  CHG  1  17  -1
M  END
>  <Activity>
3.72

>  <set>
1

>  <Min_dist>
999.9

>  <Avg_dist>
999.9

$$$$
MOL_53
  Cerius2 12110214443D 1   1.00000                          
 
 38 38  0  0  0  0  0  0  0  0999 V2000
   -0.2697    0.3281   -0.3506 N   0  0  0  0  0  0
   -1.1623   -0.2501    0.4773 C   0  0  0  0  0  0
   -1.2779    0.1472    1.6173 O   0  0  0  0  0  0
   -2.0168   -1.3902   -0.0137 C   0  0  0  0  0  0
   -2.3358   -2.2820    1.1093 N   0  0  0  0  0  0
   -3.3128   -0.8366   -0.6093 C   0  0  0  0  0  0
   -4.1803   -1.9941   -1.1077 C   0  0  0  0  0  0
   -4.0735   -0.0541    0.4631 C   0  0  0  0  0  0
    0.5610    1.4364    0.1266 C   0  0  0  0  0  0
    1.9001    1.4256   -0.6135 C   0  0  0  0  0  0
    2.6069    0.1202   -0.3541 C   0  0  0  0  0  0
    2.3975   -0.9579   -1.1936 C   0  0  0  0  0  0
    3.0458   -2.1554   -0.9557 C   0  0  0  0  0  0
    3.9039   -2.2746    0.1215 C   0  0  0  0  0  0
    4.1141   -1.1962    0.9605 C   0  0  0  0  0  0
    3.4691    0.0026    0.7200 C   0  0  0  0  0  0
   -0.1458    2.7418   -0.1327 C   0  0  0  0  0  0
   -0.9372    2.8519   -1.1267 O   0  0  0  0  0  0
    0.0474    3.7364    0.6417 O   0  5  0  0  0  0
   -0.1744    0.0077   -1.2612 H   0  0  0  0  0  0
   -1.4749   -1.9477   -0.7777 H   0  0  0  0  0  0
   -2.8342   -1.7263    1.7882 H   0  0  0  0  0  0
   -2.9890   -2.9667    0.7593 H   0  0  0  0  0  0
   -3.0761   -0.1749   -1.4425 H   0  0  0  0  0  0
   -5.1036   -1.5996   -1.5320 H   0  0  0  0  0  0
   -3.6384   -2.5515   -1.8717 H   0  0  0  0  0  0
   -4.4170   -2.6557   -0.2745 H   0  0  0  0  0  0
   -4.3101   -0.7158    1.2964 H   0  0  0  0  0  0
   -3.4554    0.7705    0.8182 H   0  0  0  0  0  0
   -4.9968    0.3403    0.0388 H   0  0  0  0  0  0
    0.7364    1.3245    1.1966 H   0  0  0  0  0  0
    1.7247    1.5375   -1.6834 H   0  0  0  0  0  0
    2.5181    2.2503   -0.2584 H   0  0  0  0  0  0
    1.7270   -0.8647   -2.0352 H   0  0  0  0  0  0
    2.8816   -2.9979   -1.6111 H   0  0  0  0  0  0
    4.4099   -3.2104    0.3078 H   0  0  0  0  0  0
    4.7842   -1.2895    1.8022 H   0  0  0  0  0  0
    3.6332    0.8451    1.3755 H   0  0  0  0  0  0
  1  2  1  0  0  0
  1  9  1  0  0  0
  1 20  1  0  0  0
  2  3  2  0  0  0
  2  4  1  0  0  0
  4  5  1  0  0  0
  4  6  1  0  0  0
  4 21  1  0  0  0
  5 22  1  0  0  0
  5 23  1  0  0  0
  6  7  1  0  0  0
  6  8  1  0  0  0
  6 24  1  0  0  0
  7 25  1  0  0  0
  7 26  1  0  0  0
  7 27  1  0  0  0
  8 28  1  0  0  0
  8 29  1  0  0  0
  8 30  1  0  0  0
  9 10  1  0  0  0
  9 17  1  0  0  0
  9 31  1  0  0  0
 10 11  1  0  0  0
 10 32  1  0  0  0
 10 33  1  0  0  0
 11 12  1  0  0  0
 11 16  2  0  0  0
 12 13  2  0  0  0
 12 34  1  0  0  0
 13 14  1  0  0  0
 13 35  1  0  0  0
 14 15  2  0  0  0
 14 36  1  0  0  0
 15 16  1  0  0  0
 15 37  1  0  0  0
 16 38  1  0  0  0
 17 18  2  0  0  0
 17 19  1  0  0  0
M  CHG  1  19  -1
M  END
>  <Activity>
4.28

>  <set>
1

>  <Min_dist>
999.9

>  <Avg_dist>
999.9

$$$$
MOL_56
  Cerius2 12110214443D 1   1.00000                          
 
 32 32  0  0  0  0  0  0  0  0999 V2000
    5.0514    0.7997    0.2926 S   0  0  0  0  0  0
    3.3517    1.0238   -0.3004 C   0  0  0  0  0  0
    2.5080   -0.1882    0.0998 C   0  0  0  0  0  0
    1.0960   -0.0020   -0.3928 C   0  0  0  0  0  0
    0.7943    1.0012   -1.0038 O   0  0  0  0  0  0
    0.1686   -0.9504   -0.1544 N   0  0  0  0  0  0
   -1.2390   -0.8975   -0.5758 C   0  0  0  0  0  0
   -1.9069   -2.2076   -0.1077 C   0  0  0  0  0  0
   -0.7030   -3.1728    0.0546 C   0  0  0  0  0  0
    0.3990   -2.2155    0.5666 C   0  0  0  0  0  0
   -1.9218    0.2832    0.0649 C   0  0  0  0  0  0
   -1.3017    1.0131    0.8016 O   0  0  0  0  0  0
   -3.2189    0.5241   -0.1828 O   0  0  0  0  0  0
   -3.8768    1.6618    0.4346 C   0  0  0  0  0  0
   -5.3400    1.7078   -0.0100 C   0  0  0  0  0  0
    5.6062    1.9416   -0.1516 H   0  0  0  0  0  0
    2.9277    1.9243    0.1438 H   0  0  0  0  0  0
    3.3556    1.1213   -1.3860 H   0  0  0  0  0  0
    2.9320   -1.0887   -0.3444 H   0  0  0  0  0  0
    2.5042   -0.2857    1.1854 H   0  0  0  0  0  0
   -1.2982   -0.8185   -1.6613 H   0  0  0  0  0  0
   -2.4156   -2.0621    0.8453 H   0  0  0  0  0  0
   -2.5995   -2.5787   -0.8631 H   0  0  0  0  0  0
   -0.9205   -3.9489    0.7883 H   0  0  0  0  0  0
   -0.4213   -3.6106   -0.9031 H   0  0  0  0  0  0
    1.3863   -2.6144    0.3338 H   0  0  0  0  0  0
    0.2960   -2.0582    1.6403 H   0  0  0  0  0  0
   -3.8295    1.5644    1.5192 H   0  0  0  0  0  0
   -3.3755    2.5806    0.1302 H   0  0  0  0  0  0
   -5.8339    2.5619    0.4534 H   0  0  0  0  0  0
   -5.3873    1.8053   -1.0946 H   0  0  0  0  0  0
   -5.8413    0.7891    0.2944 H   0  0  0  0  0  0
  1  2  1  0  0  0
  1 16  1  0  0  0
  2  3  1  0  0  0
  2 17  1  0  0  0
  2 18  1  0  0  0
  3  4  1  0  0  0
  3 19  1  0  0  0
  3 20  1  0  0  0
  4  5  2  0  0  0
  4  6  1  0  0  0
  6  7  1  0  0  0
  6 10  1  0  0  0
  7  8  1  0  0  0
  7 11  1  0  0  0
  7 21  1  0  0  0
  8  9  1  0  0  0
  8 22  1  0  0  0
  8 23  1  0  0  0
  9 10  1  0  0  0
  9 24  1  0  0  0
  9 25  1  0  0  0
 10 26  1  0  0  0
 10 27  1  0  0  0
 11 12  2  0  0  0
 11 13  1  0  0  0
 13 14  1  0  0  0
 14 15  1  0  0  0
 14 28  1  0  0  0
 14 29  1  0  0  0
 15 30  1  0  0  0
 15 31  1  0  0  0
 15 32  1  0  0  0
M  END
>  <Activity>
4.77

>  <set>
1

>  <Min_dist>
999.9

>  <Avg_dist>
999.9

$$$$
MOL_57
  Cerius2 12110214443D 1   1.00000                          
 
 20 19  0  0  0  0  0  0  0  0999 V2000
    4.2975   -0.3794    0.0000 S   0  0  0  0  0  0
    2.8304    0.6875    0.0000 C   0  0  0  0  0  0
    1.5696   -0.1791    0.0000 C   0  0  0  0  0  0
    0.3322    0.7208    0.0000 C   0  0  0  0  0  0
   -0.9287   -0.1458    0.0000 C   0  0  0  0  0  0
   -2.1661    0.7541    0.0000 C   0  0  0  0  0  0
   -3.4080   -0.0995    0.0000 C   0  0  0  0  0  0
   -4.5089    0.4255    0.0000 O   0  0  0  0  0  0
   -3.3123   -1.3154    0.0000 O   0  5  0  0  0  0
    5.2655    0.5544    0.0000 H   0  0  0  0  0  0
    2.8388    1.3168    0.8900 H   0  0  0  0  0  0
    2.8388    1.3168   -0.8900 H   0  0  0  0  0  0
    1.5612   -0.8084   -0.8900 H   0  0  0  0  0  0
    1.5612   -0.8084    0.8900 H   0  0  0  0  0  0
    0.3406    1.3501    0.8900 H   0  0  0  0  0  0
    0.3406    1.3500   -0.8900 H   0  0  0  0  0  0
   -0.9371   -0.7751   -0.8900 H   0  0  0  0  0  0
   -0.9371   -0.7751    0.8900 H   0  0  0  0  0  0
   -2.1577    1.3833    0.8900 H   0  0  0  0  0  0
   -2.1577    1.3833   -0.8900 H   0  0  0  0  0  0
  1  2  1  0  0  0
  1 10  1  0  0  0
  2  3  1  0  0  0
  2 11  1  0  0  0
  2 12  1  0  0  0
  3  4  1  0  0  0
  3 13  1  0  0  0
  3 14  1  0  0  0
  4  5  1  0  0  0
  4 15  1  0  0  0
  4 16  1  0  0  0
  5  6  1  0  0  0
  5 17  1  0  0  0
  5 18  1  0  0  0
  6  7  1  0  0  0
  6 19  1  0  0  0
  6 20  1  0  0  0
  7  8  2  0  0  0
  7  9  1  0  0  0
M  CHG  1   9  -1
M  END
>  <Activity>
2.96

>  <set>
1

>  <Min_dist>
999.9

>  <Avg_dist>
999.9

$$$$
MOL_59
  Cerius2 12110214443D 1   1.00000                          
 
 25 25  0  0  0  0  0  0  0  0999 V2000
    4.3770   -0.2337    0.5251 S   0  0  0  0  0  0
    2.9360   -0.4614   -0.5529 C   0  0  0  0  0  0
    1.6993    0.1441    0.1141 C   0  0  0  0  0  0
    0.4839   -0.0479   -0.7951 C   0  0  0  0  0  0
   -0.7102    0.4827   -0.1326 N   0  0  0  0  0  0
   -1.6510   -0.3264    0.6511 C   0  0  0  0  0  0
   -2.9306    0.5306    0.7717 C   0  0  0  0  0  0
   -2.3672    1.9621    0.6157 C   0  0  0  0  0  0
   -1.0819    1.7742   -0.1598 C   0  0  0  0  0  0
   -0.4786    2.6588   -0.7294 O   0  0  0  0  0  0
   -1.9530   -1.6165   -0.0667 C   0  0  0  0  0  0
   -2.4113   -2.5643    0.5492 O   0  0  0  0  0  0
   -1.7393   -1.7129   -1.2636 O   0  5  0  0  0  0
    5.3261   -0.8192   -0.2269 H   0  0  0  0  0  0
    3.1139    0.0348   -1.5070 H   0  0  0  0  0  0
    2.7731   -1.5259   -0.7218 H   0  0  0  0  0  0
    1.5214   -0.3521    1.0682 H   0  0  0  0  0  0
    1.8621    1.2086    0.2830 H   0  0  0  0  0  0
    0.6447    0.4825   -1.7336 H   0  0  0  0  0  0
    0.3455   -1.1101   -0.9971 H   0  0  0  0  0  0
   -1.2397   -0.5312    1.6396 H   0  0  0  0  0  0
   -3.6325    0.2983   -0.0292 H   0  0  0  0  0  0
   -3.3974    0.3994    1.7478 H   0  0  0  0  0  0
   -3.0643    2.5879    0.0584 H   0  0  0  0  0  0
   -2.1585    2.3985    1.5925 H   0  0  0  0  0  0
  1  2  1  0  0  0
  1 14  1  0  0  0
  2  3  1  0  0  0
  2 15  1  0  0  0
  2 16  1  0  0  0
  3  4  1  0  0  0
  3 17  1  0  0  0
  3 18  1  0  0  0
  4  5  1  0  0  0
  4 19  1  0  0  0
  4 20  1  0  0  0
  5  6  1  0  0  0
  5  9  1  0  0  0
  6  7  1  0  0  0
  6 11  1  0  0  0
  6 21  1  0  0  0
  7  8  1  0  0  0
  7 22  1  0  0  0
  7 23  1  0  0  0
  8  9  1  0  0  0
  8 24  1  0  0  0
  8 25  1  0  0  0
  9 10  2  0  0  0
 11 12  2  0  0  0
 11 13  1  0  0  0
M  CHG  1  13  -1
M  END
>  <Activity>
3.19

>  <set>
1

>  <Min_dist>
999.9

>  <Avg_dist>
999.9

$$$$
MOL_63
  Cerius2 12110214443D 1   1.00000                          
 
 26 26  0  0  0  0  0  0  0  0999 V2000
   -0.9259    0.5180    0.1865 N   0  0  0  0  0  0
   -2.2884    0.0802    0.5234 C   0  0  0  0  0  0
   -3.2442    1.2354    0.1582 C   0  0  0  0  0  0
   -2.3098    2.4741    0.1621 C   0  0  0  0  0  0
   -0.9938    1.8726   -0.3911 C   0  0  0  0  0  0
   -2.6431   -1.1495   -0.2722 C   0  0  0  0  0  0
   -3.7376   -1.6698   -0.1350 O   0  0  0  0  0  0
   -1.8356   -1.6244   -1.0532 O   0  5  0  0  0  0
    0.1995   -0.1983    0.3792 C   0  0  0  0  0  0
    0.1369   -1.3056    0.8698 O   0  0  0  0  0  0
    1.5355    0.3769   -0.0150 C   0  0  0  0  0  0
    2.6400   -0.6315    0.3076 C   0  0  0  0  0  0
    3.9760   -0.0563   -0.0866 C   0  0  0  0  0  0
    5.0408   -0.7340    0.0957 O   0  0  0  0  0  0
    4.0418    1.1081   -0.6025 O   0  5  0  0  0  0
   -2.3559   -0.1336    1.5901 H   0  0  0  0  0  0
   -3.6756    1.0809   -0.8308 H   0  0  0  0  0  0
   -4.0270    1.3405    0.9094 H   0  0  0  0  0  0
   -2.6911    3.2532   -0.4980 H   0  0  0  0  0  0
   -2.1703    2.8550    1.1738 H   0  0  0  0  0  0
   -0.1394    2.4666   -0.0667 H   0  0  0  0  0  0
   -1.0289    1.8197   -1.4793 H   0  0  0  0  0  0
    1.5384    0.5894   -1.0841 H   0  0  0  0  0  0
    1.7119    1.2988    0.5392 H   0  0  0  0  0  0
    2.6371   -0.8440    1.3767 H   0  0  0  0  0  0
    2.4636   -1.5533   -0.2466 H   0  0  0  0  0  0
  1  2  1  0  0  0
  1  5  1  0  0  0
  1  9  1  0  0  0
  2  3  1  0  0  0
  2  6  1  0  0  0
  2 16  1  0  0  0
  3  4  1  0  0  0
  3 17  1  0  0  0
  3 18  1  0  0  0
  4  5  1  0  0  0
  4 19  1  0  0  0
  4 20  1  0  0  0
  5 21  1  0  0  0
  5 22  1  0  0  0
  6  7  2  0  0  0
  6  8  1  0  0  0
  9 10  2  0  0  0
  9 11  1  0  0  0
 11 12  1  0  0  0
 11 23  1  0  0  0
 11 24  1  0  0  0
 12 13  1  0  0  0
 12 25  1  0  0  0
 12 26  1  0  0  0
 13 14  2  0  0  0
 13 15  1  0  0  0
M  CHG  2   8  -1  15  -1
M  END
>  <Activity>
3.48

>  <set>
1

>  <Min_dist>
999.9

>  <Avg_dist>
999.9

$$$$
MOL_65
  Cerius2 12110214443D 1   1.00000                          
 
 32 32  0  0  0  0  0  0  0  0999 V2000
   -1.5189    0.5170    0.2811 N   0  0  0  0  0  0
   -2.7982   -0.1331    0.6006 C   0  0  0  0  0  0
   -3.9135    0.9050    0.3557 C   0  0  0  0  0  0
   -3.1578    2.2566    0.4541 C   0  0  0  0  0  0
   -1.7884    1.8936   -0.1725 C   0  0  0  0  0  0
   -3.0040   -1.3274   -0.2951 C   0  0  0  0  0  0
   -4.0125   -2.0047   -0.1864 O   0  0  0  0  0  0
   -2.1621   -1.6168   -1.1288 O   0  5  0  0  0  0
   -0.3009   -0.0497    0.3903 C   0  0  0  0  0  0
   -0.1969   -1.1930    0.7815 O   0  0  0  0  0  0
    0.9317    0.7372    0.0265 C   0  0  0  0  0  0
    2.1729   -0.1318    0.2394 C   0  0  0  0  0  0
    3.4243    0.6672   -0.1300 C   0  0  0  0  0  0
    4.6468   -0.1887    0.0798 C   0  0  0  0  0  0
    5.8054    0.2826   -0.1686 O   0  0  0  0  0  0
    4.5227   -1.3843    0.5057 O   0  5  0  0  0  0
    0.8515    1.1608   -1.4415 C   0  0  0  0  0  0
   -2.8049   -0.4450    1.6451 H   0  0  0  0  0  0
   -4.3481    0.7775   -0.6357 H   0  0  0  0  0  0
   -4.6812    0.8354    1.1264 H   0  0  0  0  0  0
   -3.6612    3.0289   -0.1276 H   0  0  0  0  0  0
   -3.0426    2.5650    1.4931 H   0  0  0  0  0  0
   -1.0144    2.5705    0.1890 H   0  0  0  0  0  0
   -1.8474    1.9298   -1.2603 H   0  0  0  0  0  0
    0.9962    1.6237    0.6574 H   0  0  0  0  0  0
    2.2300   -0.4335    1.2853 H   0  0  0  0  0  0
    2.1084   -1.0182   -0.3915 H   0  0  0  0  0  0
    3.3671    0.9690   -1.1758 H   0  0  0  0  0  0
    3.4888    1.5537    0.5010 H   0  0  0  0  0  0
    0.7870    0.2743   -2.0725 H   0  0  0  0  0  0
   -0.0328    1.7798   -1.5933 H   0  0  0  0  0  0
    1.7430    1.7300   -1.7047 H   0  0  0  0  0  0
  1  2  1  0  0  0
  1  5  1  0  0  0
  1  9  1  0  0  0
  2  3  1  0  0  0
  2  6  1  0  0  0
  2 18  1  0  0  0
  3  4  1  0  0  0
  3 19  1  0  0  0
  3 20  1  0  0  0
  4  5  1  0  0  0
  4 21  1  0  0  0
  4 22  1  0  0  0
  5 23  1  0  0  0
  5 24  1  0  0  0
  6  7  2  0  0  0
  6  8  1  0  0  0
  9 10  2  0  0  0
  9 11  1  0  0  0
 11 12  1  0  0  0
 11 17  1  0  0  0
 11 25  1  0  0  0
 12 13  1  0  0  0
 12 26  1  0  0  0
 12 27  1  0  0  0
 13 14  1  0  0  0
 13 28  1  0  0  0
 13 29  1  0  0  0
 14 15  2  0  0  0
 14 16  1  0  0  0
 17 30  1  0  0  0
 17 31  1  0  0  0
 17 32  1  0  0  0
M  CHG  2   8  -1  16  -1
M  END
>  <Activity>
5.31

>  <set>
1

>  <Min_dist>
999.9

>  <Avg_dist>
999.9

$$$$
MOL_66
  Cerius2 12110214443D 1   1.00000                          
 
 32 32  0  0  0  0  0  0  0  0999 V2000
   -1.5075    0.5231    0.2796 N   0  0  0  0  0  0
   -2.7884   -0.1220    0.6032 C   0  0  0  0  0  0
   -3.9010    0.9182    0.3548 C   0  0  0  0  0  0
   -3.1415    2.2680    0.4465 C   0  0  0  0  0  0
   -1.7737    1.8984   -0.1798 C   0  0  0  0  0  0
   -2.9984   -1.3197   -0.2871 C   0  0  0  0  0  0
   -4.0548   -2.0243   -0.1693 O   0  0  0  0  0  0
   -2.1197   -1.6285   -1.1582 O   0  5  0  0  0  0
   -0.2911   -0.0465    0.3902 C   0  0  0  0  0  0
   -0.1899   -1.1884    0.7863 O   0  0  0  0  0  0
    0.9434    0.7353    0.0218 C   0  0  0  0  0  0
    2.1329   -0.1014    0.2288 N   0  3  0  0  0  0
    2.1860   -0.3766    1.1981 H   0  0  0  0  0  0
    2.0704   -0.9244   -0.3516 H   0  0  0  0  0  0
    3.3363    0.6608   -0.1304 C   0  0  0  0  0  0
    4.5566   -0.1976    0.0820 C   0  0  0  0  0  0
    5.7163    0.2694   -0.1696 O   0  0  0  0  0  0
    4.4295   -1.3910    0.5133 O   0  5  0  0  0  0
    0.8629    1.1527   -1.4480 C   0  0  0  0  0  0
   -2.7950   -0.4293    1.6490 H   0  0  0  0  0  0
   -4.3369    0.7875   -0.6357 H   0  0  0  0  0  0
   -4.6681    0.8541    1.1265 H   0  0  0  0  0  0
   -3.6432    3.0391   -0.1380 H   0  0  0  0  0  0
   -3.0244    2.5807    1.4841 H   0  0  0  0  0  0
   -0.9974    2.5748    0.1781 H   0  0  0  0  0  0
   -1.8336    1.9301   -1.2676 H   0  0  0  0  0  0
    1.0110    1.6244    0.6487 H   0  0  0  0  0  0
    3.2790    0.9581   -1.1775 H   0  0  0  0  0  0
    3.4038    1.5498    0.4966 H   0  0  0  0  0  0
    0.7954    0.2636   -2.0750 H   0  0  0  0  0  0
   -0.0197    1.7736   -1.6016 H   0  0  0  0  0  0
    1.7558    1.7182   -1.7145 H   0  0  0  0  0  0
  1  2  1  0  0  0
  1  5  1  0  0  0
  1  9  1  0  0  0
  2  3  1  0  0  0
  2  6  1  0  0  0
  2 20  1  0  0  0
  3  4  1  0  0  0
  3 21  1  0  0  0
  3 22  1  0  0  0
  4  5  1  0  0  0
  4 23  1  0  0  0
  4 24  1  0  0  0
  5 25  1  0  0  0
  5 26  1  0  0  0
  6  7  2  0  0  0
  6  8  1  0  0  0
  9 10  2  0  0  0
  9 11  1  0  0  0
 11 12  1  0  0  0
 11 19  1  0  0  0
 11 27  1  0  0  0
 12 13  1  0  0  0
 12 14  1  0  0  0
 12 15  1  0  0  0
 15 16  1  0  0  0
 15 28  1  0  0  0
 15 29  1  0  0  0
 16 17  2  0  0  0
 16 18  1  0  0  0
 19 30  1  0  0  0
 19 31  1  0  0  0
 19 32  1  0  0  0
M  CHG  3   8  -1  12   1  18  -1
M  END
>  <Activity>
5.62

>  <set>
1

>  <Min_dist>
999.9

>  <Avg_dist>
999.9

$$$$
MOL_68
  Cerius2 12110214443D 1   1.00000                          
 
 27 27  0  0  0  0  0  0  0  0999 V2000
   -3.5914   -0.0384    0.0652 P   0  0  0  0  0  0
   -4.6986   -1.0713   -0.3369 O   0  0  0  0  0  0
   -3.8550    1.3213   -0.6670 O   0  5  0  0  0  0
   -3.6261    0.1876    1.6150 O   0  5  0  0  0  0
   -1.9557   -0.6819   -0.4186 C   0  0  0  0  0  0
   -0.8744    0.3268   -0.0259 C   0  0  0  0  0  0
    0.4777   -0.2052   -0.4258 C   0  0  0  0  0  0
    0.5676   -1.2847   -0.9711 O   0  0  0  0  0  0
    1.5871    0.5188   -0.1774 N   0  0  0  0  0  0
    2.9624    0.1216   -0.5126 C   0  0  0  0  0  0
    3.8923    1.2698   -0.0671 C   0  0  0  0  0  0
    2.9377    2.4920   -0.0205 C   0  0  0  0  0  0
    1.6219    1.8430    0.4697 C   0  0  0  0  0  0
    3.3234   -1.1444    0.2208 C   0  0  0  0  0  0
    4.4287   -1.6392    0.0756 O   0  0  0  0  0  0
    2.5104   -1.6741    0.9597 O   0  5  0  0  0  0
   -1.7723   -1.6279    0.0908 H   0  0  0  0  0  0
   -1.9316   -0.8392   -1.4969 H   0  0  0  0  0  0
   -1.0578    1.2728   -0.5353 H   0  0  0  0  0  0
   -0.8986    0.4841    1.0524 H   0  0  0  0  0  0
    3.0521   -0.0321   -1.5880 H   0  0  0  0  0  0
    4.3088    1.0678    0.9197 H   0  0  0  0  0  0
    4.6863    1.4282   -0.7970 H   0  0  0  0  0  0
    3.2944    3.2395    0.6882 H   0  0  0  0  0  0
    2.8096    2.9258   -1.0122 H   0  0  0  0  0  0
    0.7653    2.4424    0.1612 H   0  0  0  0  0  0
    1.6358    1.7293    1.5537 H   0  0  0  0  0  0
  1  2  2  0  0  0
  1  3  1  0  0  0
  1  4  1  0  0  0
  1  5  1  0  0  0
  5  6  1  0  0  0
  5 17  1  0  0  0
  5 18  1  0  0  0
  6  7  1  0  0  0
  6 19  1  0  0  0
  6 20  1  0  0  0
  7  8  2  0  0  0
  7  9  1  0  0  0
  9 10  1  0  0  0
  9 13  1  0  0  0
 10 11  1  0  0  0
 10 14  1  0  0  0
 10 21  1  0  0  0
 11 12  1  0  0  0
 11 22  1  0  0  0
 11 23  1  0  0  0
 12 13  1  0  0  0
 12 24  1  0  0  0
 12 25  1  0  0  0
 13 26  1  0  0  0
 13 27  1  0  0  0
 14 15  2  0  0  0
 14 16  1  0  0  0
M  CHG  3   3  -1   4  -1  16  -1
M  END
>  <Activity>
4.32

>  <set>
1

>  <Min_dist>
999.9

>  <Avg_dist>
999.9

$$$$
COO_23A
  Cerius2 12110214443D 1   1.00000                          
 
 69 70  0  0  0  0  0  0  0  0999 V2000
   -5.2671    0.8179   -0.5222 N   0  0  0  0  0  0
   -6.6127    1.3921   -0.3769 C   0  0  0  0  0  0
   -6.6116    2.7524   -1.1057 C   0  0  0  0  0  0
   -5.1066    3.1283   -1.1376 C   0  0  0  0  0  0
   -4.4434    1.7408   -1.3241 C   0  0  0  0  0  0
   -7.6315    0.4756   -1.0038 C   0  0  0  0  0  0
   -8.8135    0.7756   -0.9876 O   0  0  0  0  0  0
   -7.2739   -0.5663   -1.5275 O   0  5  0  0  0  0
   -4.8534   -0.3551   -0.0032 C   0  0  0  0  0  0
   -5.6190   -1.0337    0.6481 O   0  0  0  0  0  0
   -3.4394   -0.8235   -0.2322 C   0  0  0  0  0  0
   -3.2310   -2.1728    0.4582 C   0  0  0  0  0  0
   -1.7955   -2.6483    0.2257 C   0  0  0  0  0  0
   -0.8600   -1.6666    0.7800 N   0  0  0  0  0  0
    0.3578   -1.5079    0.2247 C   0  0  0  0  0  0
    0.6792   -2.1778   -0.7338 O   0  0  0  0  0  0
    1.3200   -0.4979    0.7949 C   0  0  0  0  0  0
    2.5637   -0.5173    0.0209 N   0  0  0  0  0  0
    3.7331   -0.2106    0.6167 C   0  0  0  0  0  0
    3.7558    0.0819    1.7959 O   0  0  0  0  0  0
    4.8761   -0.2284   -0.0946 O   0  0  0  0  0  0
    6.1359    0.1020    0.5473 C   0  0  0  0  0  0
    7.2528    0.0079   -0.4600 C   0  0  0  0  0  0
    7.6069    1.1173   -1.2049 C   0  0  0  0  0  0
    8.6314    1.0310   -2.1290 C   0  0  0  0  0  0
    9.3020   -0.1645   -2.3078 C   0  0  0  0  0  0
    8.9485   -1.2736   -1.5623 C   0  0  0  0  0  0
    7.9269   -1.1861   -0.6351 C   0  0  0  0  0  0
    0.6966    0.8974    0.7235 C   0  0  0  0  0  0
    1.6735    1.9228    1.3024 C   0  0  0  0  0  0
    1.0501    3.3182    1.2310 C   0  0  0  0  0  0
    2.0270    4.3435    1.8098 C   0  0  0  0  0  0
    1.4284    5.6833    1.7413 N   0  3  0  0  0  0
    2.0727    6.3595    2.1230 H   0  0  0  0  0  0
    1.2296    5.9140    0.7793 H   0  0  0  0  0  0
    0.5718    5.6966    2.2743 H   0  0  0  0  0  0
   -1.5902   -3.9774    0.9057 C   0  0  0  0  0  0
   -1.1821   -4.0196    2.1132 O   0  0  0  0  0  0
   -1.8246   -5.0600    0.2737 O   0  5  0  0  0  0
   -6.8418    1.5374    0.6788 H   0  0  0  0  0  0
   -7.0046    2.6483   -2.1171 H   0  0  0  0  0  0
   -7.1819    3.4917   -0.5433 H   0  0  0  0  0  0
   -4.8853    3.7835   -1.9801 H   0  0  0  0  0  0
   -4.7981    3.5856   -0.1975 H   0  0  0  0  0  0
   -3.4192    1.7567   -0.9513 H   0  0  0  0  0  0
   -4.4612    1.4500   -2.3745 H   0  0  0  0  0  0
   -3.2612   -0.9314   -1.3021 H   0  0  0  0  0  0
   -2.7434   -0.0930    0.1802 H   0  0  0  0  0  0
   -3.4092   -2.0649    1.5281 H   0  0  0  0  0  0
   -3.9270   -2.9033    0.0458 H   0  0  0  0  0  0
   -1.6173   -2.7563   -0.8442 H   0  0  0  0  0  0
   -1.1171   -1.1307    1.5466 H   0  0  0  0  0  0
    1.5349   -0.7471    1.8341 H   0  0  0  0  0  0
    2.5456   -0.7508   -0.9204 H   0  0  0  0  0  0
    6.0873    1.1168    0.9422 H   0  0  0  0  0  0
    6.3224   -0.5967    1.3628 H   0  0  0  0  0  0
    7.0830    2.0513   -1.0652 H   0  0  0  0  0  0
    8.9076    1.8975   -2.7115 H   0  0  0  0  0  0
   10.1020   -0.2321   -3.0303 H   0  0  0  0  0  0
    9.4722   -2.2076   -1.7022 H   0  0  0  0  0  0
    7.6507   -2.0526   -0.0527 H   0  0  0  0  0  0
    0.4817    1.1467   -0.3157 H   0  0  0  0  0  0
   -0.2288    0.9119    1.2994 H   0  0  0  0  0  0
    1.8884    1.6736    2.3415 H   0  0  0  0  0  0
    2.5989    1.9084    0.7265 H   0  0  0  0  0  0
    0.8352    3.5674    0.1918 H   0  0  0  0  0  0
    0.1247    3.3326    1.8068 H   0  0  0  0  0  0
    2.2419    4.0943    2.8490 H   0  0  0  0  0  0
    2.9524    4.3291    1.2340 H   0  0  0  0  0  0
  1  2  1  0  0  0
  1  5  1  0  0  0
  1  9  1  0  0  0
  2  3  1  0  0  0
  2  6  1  0  0  0
  2 40  1  0  0  0
  3  4  1  0  0  0
  3 41  1  0  0  0
  3 42  1  0  0  0
  4  5  1  0  0  0
  4 43  1  0  0  0
  4 44  1  0  0  0
  5 45  1  0  0  0
  5 46  1  0  0  0
  6  7  2  0  0  0
  6  8  1  0  0  0
  9 10  2  0  0  0
  9 11  1  0  0  0
 11 12  1  0  0  0
 11 47  1  0  0  0
 11 48  1  0  0  0
 12 13  1  0  0  0
 12 49  1  0  0  0
 12 50  1  0  0  0
 13 14  1  0  0  0
 13 37  1  0  0  0
 13 51  1  0  0  0
 14 15  1  0  0  0
 14 52  1  0  0  0
 15 16  2  0  0  0
 15 17  1  0  0  0
 17 18  1  0  0  0
 17 29  1  0  0  0
 17 53  1  0  0  0
 18 19  1  0  0  0
 18 54  1  0  0  0
 19 20  2  0  0  0
 19 21  1  0  0  0
 21 22  1  0  0  0
 22 23  1  0  0  0
 22 55  1  0  0  0
 22 56  1  0  0  0
 23 24  1  0  0  0
 23 28  2  0  0  0
 24 25  2  0  0  0
 24 57  1  0  0  0
 25 26  1  0  0  0
 25 58  1  0  0  0
 26 27  2  0  0  0
 26 59  1  0  0  0
 27 28  1  0  0  0
 27 60  1  0  0  0
 28 61  1  0  0  0
 29 30  1  0  0  0
 29 62  1  0  0  0
 29 63  1  0  0  0
 30 31  1  0  0  0
 30 64  1  0  0  0
 30 65  1  0  0  0
 31 32  1  0  0  0
 31 66  1  0  0  0
 31 67  1  0  0  0
 32 33  1  0  0  0
 32 68  1  0  0  0
 32 69  1  0  0  0
 33 34  1  0  0  0
 33 35  1  0  0  0
 33 36  1  0  0  0
 37 38  2  0  0  0
 37 39  1  0  0  0
M  CHG  3   8  -1  33   1  39  -1
M  END
>  <Activity>
7.92

>  <set>
1

>  <Min_dist>
999.9

>  <Avg_dist>
999.9

$$$$
COO_23J
  Cerius2 12110214443D 1   1.00000                          
 
 57 58  0  0  0  0  0  0  0  0999 V2000
   -5.1040    1.2180    0.0399 N   0  0  0  0  0  0
   -6.4702    1.6690    0.3427 C   0  0  0  0  0  0
   -6.5073    3.1964    0.1247 C   0  0  0  0  0  0
   -5.0159    3.6028    0.2579 C   0  0  0  0  0  0
   -4.3032    2.3832   -0.3779 C   0  0  0  0  0  0
   -7.4495    0.9952   -0.5836 C   0  0  0  0  0  0
   -8.6412    1.2379   -0.4924 O   0  0  0  0  0  0
   -7.0502    0.2071   -1.4245 O   0  5  0  0  0  0
   -4.6563   -0.0497    0.1344 C   0  0  0  0  0  0
   -5.4057   -0.9321    0.4959 O   0  0  0  0  0  0
   -3.2245   -0.3707   -0.2091 C   0  0  0  0  0  0
   -2.9779   -1.8686   -0.0187 C   0  0  0  0  0  0
   -1.5243   -2.1946   -0.3675 C   0  0  0  0  0  0
   -0.6296   -1.4369    0.5110 N   0  0  0  0  0  0
    0.5884   -1.0627    0.0717 C   0  0  0  0  0  0
    0.9438   -1.3533   -1.0508 O   0  0  0  0  0  0
    1.5086   -0.2833    0.9754 C   0  0  0  0  0  0
    2.7612   -0.0004    0.2702 N   0  0  0  0  0  0
    3.9123    0.1159    0.9615 C   0  0  0  0  0  0
    3.9112   -0.0139    2.1697 O   0  0  0  0  0  0
    5.0635    0.3758    0.3135 O   0  0  0  0  0  0
    6.3036    0.5011    1.0582 C   0  0  0  0  0  0
    7.4347    0.7904    0.1054 C   0  0  0  0  0  0
    7.7592    2.0977   -0.2056 C   0  0  0  0  0  0
    8.7967    2.3631   -1.0796 C   0  0  0  0  0  0
    9.5101    1.3213   -1.6423 C   0  0  0  0  0  0
    9.1862    0.0140   -1.3306 C   0  0  0  0  0  0
    8.1515   -0.2512   -0.4532 C   0  0  0  0  0  0
    0.8385    1.0335    1.3727 C   0  0  0  0  0  0
   -1.2814   -3.6700   -0.1800 C   0  0  0  0  0  0
   -0.8861   -4.1128    0.9487 O   0  0  0  0  0  0
   -1.4710   -4.4758   -1.1501 O   0  5  0  0  0  0
   -6.7164    1.4363    1.3787 H   0  0  0  0  0  0
   -6.8847    3.4350   -0.8696 H   0  0  0  0  0  0
   -7.1093    3.6811    0.8934 H   0  0  0  0  0  0
   -4.8075    4.5135   -0.3035 H   0  0  0  0  0  0
   -4.7343    3.7178    1.3046 H   0  0  0  0  0  0
   -3.2847    2.2990    0.0009 H   0  0  0  0  0  0
   -4.2987    2.4704   -1.4644 H   0  0  0  0  0  0
   -3.0302   -0.0995   -1.2468 H   0  0  0  0  0  0
   -2.5589    0.1930    0.4445 H   0  0  0  0  0  0
   -3.1722   -2.1399    1.0189 H   0  0  0  0  0  0
   -3.6435   -2.4324   -0.6724 H   0  0  0  0  0  0
   -1.3300   -1.9233   -1.4052 H   0  0  0  0  0  0
   -0.9139   -1.2045    1.4088 H   0  0  0  0  0  0
    1.7198   -0.8681    1.8707 H   0  0  0  0  0  0
    2.7621    0.1031   -0.6942 H   0  0  0  0  0  0
    6.2155    1.3167    1.7760 H   0  0  0  0  0  0
    6.5045   -0.4297    1.5887 H   0  0  0  0  0  0
    7.2018    2.9116    0.2340 H   0  0  0  0  0  0
    9.0498    3.3844   -1.3232 H   0  0  0  0  0  0
   10.3203    1.5286   -2.3257 H   0  0  0  0  0  0
    9.7434   -0.7999   -1.7704 H   0  0  0  0  0  0
    7.8984   -1.2725   -0.2096 H   0  0  0  0  0  0
    0.6273    1.6183    0.4774 H   0  0  0  0  0  0
   -0.0935    0.8230    1.8974 H   0  0  0  0  0  0
    1.5041    1.5972    2.0263 H   0  0  0  0  0  0
  1  2  1  0  0  0
  1  5  1  0  0  0
  1  9  1  0  0  0
  2  3  1  0  0  0
  2  6  1  0  0  0
  2 33  1  0  0  0
  3  4  1  0  0  0
  3 34  1  0  0  0
  3 35  1  0  0  0
  4  5  1  0  0  0
  4 36  1  0  0  0
  4 37  1  0  0  0
  5 38  1  0  0  0
  5 39  1  0  0  0
  6  7  2  0  0  0
  6  8  1  0  0  0
  9 10  2  0  0  0
  9 11  1  0  0  0
 11 12  1  0  0  0
 11 40  1  0  0  0
 11 41  1  0  0  0
 12 13  1  0  0  0
 12 42  1  0  0  0
 12 43  1  0  0  0
 13 14  1  0  0  0
 13 30  1  0  0  0
 13 44  1  0  0  0
 14 15  1  0  0  0
 14 45  1  0  0  0
 15 16  2  0  0  0
 15 17  1  0  0  0
 17 18  1  0  0  0
 17 29  1  0  0  0
 17 46  1  0  0  0
 18 19  1  0  0  0
 18 47  1  0  0  0
 19 20  2  0  0  0
 19 21  1  0  0  0
 21 22  1  0  0  0
 22 23  1  0  0  0
 22 48  1  0  0  0
 22 49  1  0  0  0
 23 24  1  0  0  0
 23 28  2  0  0  0
 24 25  2  0  0  0
 24 50  1  0  0  0
 25 26  1  0  0  0
 25 51  1  0  0  0
 26 27  2  0  0  0
 26 52  1  0  0  0
 27 28  1  0  0  0
 27 53  1  0  0  0
 28 54  1  0  0  0
 29 55  1  0  0  0
 29 56  1  0  0  0
 29 57  1  0  0  0
 30 31  2  0  0  0
 30 32  1  0  0  0
M  CHG  2   8  -1  32  -1
M  END
>  <Activity>
6.41

>  <set>
1

>  <Min_dist>
999.9

>  <Avg_dist>
999.9

$$$$
COO_24C
  Cerius2 12110214443D 1   1.00000                          
 
 71 74  0  0  0  0  0  0  0  0999 V2000
   -5.1987    0.5343   -0.0562 N   0  0  0  0  0  0
   -6.5454    1.0206    0.2558 C   0  0  0  0  0  0
   -6.5751    2.4742   -0.2440 C   0  0  0  0  0  0
   -5.1964    2.7070   -0.8200 C   0  0  0  0  0  0
   -4.4564    1.5439   -0.6768 C   0  0  0  0  0  0
   -3.1395    1.5172   -1.1390 C   0  0  0  0  0  0
   -2.5869    2.6343   -1.7289 C   0  0  0  0  0  0
   -3.3333    3.7898   -1.8666 C   0  0  0  0  0  0
   -4.6387    3.8236   -1.4120 C   0  0  0  0  0  0
   -7.5792    0.1975   -0.4687 C   0  0  0  0  0  0
   -8.8185    0.4630   -0.3281 O   0  0  0  0  0  0
   -7.2147   -0.7646   -1.2222 O   0  5  0  0  0  0
   -4.7407   -0.7028    0.2198 C   0  0  0  0  0  0
   -5.4631   -1.5087    0.7674 O   0  0  0  0  0  0
   -3.3312   -1.0849   -0.1520 C   0  0  0  0  0  0
   -3.0671   -2.5320    0.2688 C   0  0  0  0  0  0
   -1.6361   -2.9198   -0.1087 C   0  0  0  0  0  0
   -0.6928   -2.0324    0.5761 N   0  0  0  0  0  0
    0.4946   -1.7435    0.0077 C   0  0  0  0  0  0
    0.7823   -2.2182   -1.0706 O   0  0  0  0  0  0
    1.4649   -0.8305    0.7121 C   0  0  0  0  0  0
    2.6710   -0.6759   -0.1049 N   0  0  0  0  0  0
    3.8616   -0.4535    0.4864 C   0  0  0  0  0  0
    3.9345   -0.3812    1.6972 O   0  0  0  0  0  0
    4.9700   -0.3114   -0.2644 O   0  0  0  0  0  0
    6.2526   -0.0718    0.3726 C   0  0  0  0  0  0
    7.3225    0.0488   -0.6819 C   0  0  0  0  0  0
    7.6220    1.2845   -1.2245 C   0  0  0  0  0  0
    8.6033    1.3952   -2.1917 C   0  0  0  0  0  0
    9.2855    0.2702   -2.6161 C   0  0  0  0  0  0
    8.9866   -0.9653   -2.0729 C   0  0  0  0  0  0
    8.0083   -1.0753   -1.1025 C   0  0  0  0  0  0
    0.8146    0.5378    0.9255 C   0  0  0  0  0  0
    1.7849    1.4508    1.6299 C   0  0  0  0  0  0
    2.6534    2.2358    0.8949 C   0  0  0  0  0  0
    3.5435    3.0731    1.5410 C   0  0  0  0  0  0
    3.5646    3.1258    2.9222 C   0  0  0  0  0  0
    2.6955    2.3415    3.6573 C   0  0  0  0  0  0
    1.8025    1.5074    3.0110 C   0  0  0  0  0  0
   -1.3760   -4.3452    0.3057 C   0  0  0  0  0  0
   -0.9110   -4.5971    1.4662 O   0  0  0  0  0  0
   -1.6210   -5.2995   -0.5040 O   0  5  0  0  0  0
   -6.7198    0.9869    1.3312 H   0  0  0  0  0  0
   -7.3350    2.5953   -1.0160 H   0  0  0  0  0  0
   -6.7613    3.1574    0.5846 H   0  0  0  0  0  0
   -2.5509    0.6179   -1.0338 H   0  0  0  0  0  0
   -1.5674    2.6065   -2.0842 H   0  0  0  0  0  0
   -2.8979    4.6638   -2.3280 H   0  0  0  0  0  0
   -5.2233    4.7254   -1.5191 H   0  0  0  0  0  0
   -3.2015   -0.9905   -1.2301 H   0  0  0  0  0  0
   -2.6294   -0.4245    0.3575 H   0  0  0  0  0  0
   -3.1968   -2.6263    1.3469 H   0  0  0  0  0  0
   -3.7689   -3.1923   -0.2407 H   0  0  0  0  0  0
   -1.5064   -2.8255   -1.1868 H   0  0  0  0  0  0
   -0.9229   -1.6527    1.4385 H   0  0  0  0  0  0
    1.7326   -1.2601    1.6775 H   0  0  0  0  0  0
    2.6128   -0.7337   -1.0714 H   0  0  0  0  0  0
    6.2050    0.8519    0.9492 H   0  0  0  0  0  0
    6.4893   -0.9030    1.0369 H   0  0  0  0  0  0
    7.0890    2.1633   -0.8929 H   0  0  0  0  0  0
    8.8368    2.3604   -2.6162 H   0  0  0  0  0  0
   10.0517    0.3566   -3.3723 H   0  0  0  0  0  0
    9.5194   -1.8442   -2.4047 H   0  0  0  0  0  0
    7.7748   -2.0406   -0.6781 H   0  0  0  0  0  0
    0.5469    0.9674   -0.0398 H   0  0  0  0  0  0
   -0.0828    0.4228    1.5334 H   0  0  0  0  0  0
    2.6369    2.1946   -0.1842 H   0  0  0  0  0  0
    4.2225    3.6859    0.9668 H   0  0  0  0  0  0
    4.2605    3.7795    3.4270 H   0  0  0  0  0  0
    2.7123    2.3825    4.7363 H   0  0  0  0  0  0
    1.1234    0.8946    3.5853 H   0  0  0  0  0  0
  1  2  1  0  0  0
  1  5  1  0  0  0
  1 13  1  0  0  0
  2  3  1  0  0  0
  2 10  1  0  0  0
  2 43  1  0  0  0
  3  4  1  0  0  0
  3 44  1  0  0  0
  3 45  1  0  0  0
  4  5  1  0  0  0
  4  9  2  0  0  0
  5  6  2  0  0  0
  6  7  1  0  0  0
  6 46  1  0  0  0
  7  8  2  0  0  0
  7 47  1  0  0  0
  8  9  1  0  0  0
  8 48  1  0  0  0
  9 49  1  0  0  0
 10 11  2  0  0  0
 10 12  1  0  0  0
 13 14  2  0  0  0
 13 15  1  0  0  0
 15 16  1  0  0  0
 15 50  1  0  0  0
 15 51  1  0  0  0
 16 17  1  0  0  0
 16 52  1  0  0  0
 16 53  1  0  0  0
 17 18  1  0  0  0
 17 40  1  0  0  0
 17 54  1  0  0  0
 18 19  1  0  0  0
 18 55  1  0  0  0
 19 20  2  0  0  0
 19 21  1  0  0  0
 21 22  1  0  0  0
 21 33  1  0  0  0
 21 56  1  0  0  0
 22 23  1  0  0  0
 22 57  1  0  0  0
 23 24  2  0  0  0
 23 25  1  0  0  0
 25 26  1  0  0  0
 26 27  1  0  0  0
 26 58  1  0  0  0
 26 59  1  0  0  0
 27 28  1  0  0  0
 27 32  2  0  0  0
 28 29  2  0  0  0
 28 60  1  0  0  0
 29 30  1  0  0  0
 29 61  1  0  0  0
 30 31  2  0  0  0
 30 62  1  0  0  0
 31 32  1  0  0  0
 31 63  1  0  0  0
 32 64  1  0  0  0
 33 34  1  0  0  0
 33 65  1  0  0  0
 33 66  1  0  0  0
 34 35  1  0  0  0
 34 39  2  0  0  0
 35 36  2  0  0  0
 35 67  1  0  0  0
 36 37  1  0  0  0
 36 68  1  0  0  0
 37 38  2  0  0  0
 37 69  1  0  0  0
 38 39  1  0  0  0
 38 70  1  0  0  0
 39 71  1  0  0  0
 40 41  2  0  0  0
 40 42  1  0  0  0
M  CHG  2  12  -1  42  -1
M  END
>  <Activity>
9.6

>  <set>
1

>  <Min_dist>
999.9

>  <Avg_dist>
999.9

$$$$
COO_25A
  Cerius2 12110214443D 1   1.00000                          
 
 79 81  0  0  0  0  0  0  0  0999 V2000
   -4.9757   -0.0510   -1.0950 N   0  0  0  0  0  0
   -6.3689    0.4014   -1.0579 C   0  0  0  0  0  0
   -6.3127    1.9327   -1.2088 C   0  0  0  0  0  0
   -5.1677    2.0733   -2.2583 C   0  0  0  0  0  0
   -4.1947    0.9446   -1.8510 C   0  0  0  0  0  0
   -3.0968    1.5024   -0.9824 C   0  0  0  0  0  0
   -2.3457    2.3567   -1.4224 O   0  0  0  0  0  0
   -2.9594    1.0997    0.1606 O   0  5  0  0  0  0
   -5.8051    2.5816    0.0807 C   0  0  0  0  0  0
   -6.6522    2.1456    1.2737 C   0  0  0  0  0  0
   -6.5260    0.6270    1.4364 C   0  0  0  0  0  0
   -7.1013   -0.0421    0.1881 C   0  0  0  0  0  0
   -4.4924   -1.1761   -0.5320 C   0  0  0  0  0  0
   -5.2359   -1.9190    0.0731 O   0  0  0  0  0  0
   -3.0282   -1.5110   -0.6545 C   0  0  0  0  0  0
   -2.7446   -2.8298    0.0675 C   0  0  0  0  0  0
   -1.2580   -3.1698   -0.0569 C   0  0  0  0  0  0
   -0.4602   -2.1004    0.5482 N   0  0  0  0  0  0
    0.7739   -1.8319    0.0778 C   0  0  0  0  0  0
    1.2240   -2.4755   -0.8463 O   0  0  0  0  0  0
    1.5946   -0.7319    0.7002 C   0  0  0  0  0  0
    2.8867   -0.6397    0.0160 N   0  0  0  0  0  0
    3.9769   -0.2201    0.6882 C   0  0  0  0  0  0
    3.8881    0.0818    1.8619 O   0  0  0  0  0  0
    5.1644   -0.1354    0.0594 O   0  0  0  0  0  0
    6.3388    0.3166    0.7837 C   0  0  0  0  0  0
    7.5286    0.3208   -0.1412 C   0  0  0  0  0  0
    7.8299    1.4532   -0.8747 C   0  0  0  0  0  0
    8.9213    1.4570   -1.7231 C   0  0  0  0  0  0
    9.7116    0.3287   -1.8377 C   0  0  0  0  0  0
    9.4108   -0.8034   -1.1036 C   0  0  0  0  0  0
    8.3220   -0.8058   -0.2519 C   0  0  0  0  0  0
    0.8504    0.5981    0.5658 C   0  0  0  0  0  0
    1.6836    1.7150    1.1977 C   0  0  0  0  0  0
    0.9393    3.0450    1.0633 C   0  0  0  0  0  0
    1.7726    4.1618    1.6952 C   0  0  0  0  0  0
    1.0580    5.4388    1.5662 N   0  3  0  0  0  0
    1.6075    6.1753    1.9829 H   0  0  0  0  0  0
    0.9075    5.6428    0.5895 H   0  0  0  0  0  0
    0.1680    5.3753    2.0374 H   0  0  0  0  0  0
   -0.9787   -4.4688    0.6542 C   0  0  0  0  0  0
   -0.6696   -4.4639    1.8341 O   0  0  0  0  0  0
   -1.0616   -5.5250    0.0499 O   0  5  0  0  0  0
   -6.8896   -0.0121   -1.9217 H   0  0  0  0  0  0
   -7.2563    2.3547   -1.5546 H   0  0  0  0  0  0
   -5.5465    1.9118   -3.2676 H   0  0  0  0  0  0
   -4.6857    3.0475   -2.1765 H   0  0  0  0  0  0
   -3.7682    0.4831   -2.7416 H   0  0  0  0  0  0
   -4.7696    2.2854    0.2482 H   0  0  0  0  0  0
   -5.8561    3.6659   -0.0188 H   0  0  0  0  0  0
   -6.2950    2.6410    2.1765 H   0  0  0  0  0  0
   -7.6951    2.4090    1.0975 H   0  0  0  0  0  0
   -5.4761    0.3559    1.5473 H   0  0  0  0  0  0
   -7.0836    0.3045    2.3157 H   0  0  0  0  0  0
   -8.1550    0.2207    0.0956 H   0  0  0  0  0  0
   -7.0116   -1.1237    0.2892 H   0  0  0  0  0  0
   -2.7649   -1.6094   -1.7077 H   0  0  0  0  0  0
   -2.4346   -0.7154   -0.2043 H   0  0  0  0  0  0
   -3.0079   -2.7314    1.1206 H   0  0  0  0  0  0
   -3.3382   -3.6255   -0.3827 H   0  0  0  0  0  0
   -0.9947   -3.2682   -1.1100 H   0  0  0  0  0  0
   -0.8202   -1.5857    1.2873 H   0  0  0  0  0  0
    1.7571   -0.9523    1.7553 H   0  0  0  0  0  0
    2.9577   -0.8807   -0.9210 H   0  0  0  0  0  0
    6.1677    1.3251    1.1601 H   0  0  0  0  0  0
    6.5311   -0.3556    1.6199 H   0  0  0  0  0  0
    7.2125    2.3347   -0.7851 H   0  0  0  0  0  0
    9.1563    2.3414   -2.2966 H   0  0  0  0  0  0
   10.5638    0.3314   -2.5011 H   0  0  0  0  0  0
   10.0281   -1.6850   -1.1934 H   0  0  0  0  0  0
    8.0870   -1.6902    0.3216 H   0  0  0  0  0  0
    0.6879    0.8186   -0.4892 H   0  0  0  0  0  0
   -0.1110    0.5296    1.0749 H   0  0  0  0  0  0
    1.8461    1.4946    2.2528 H   0  0  0  0  0  0
    2.6450    1.7835    0.6886 H   0  0  0  0  0  0
    0.7768    3.2654    0.0083 H   0  0  0  0  0  0
   -0.0220    2.9764    1.5724 H   0  0  0  0  0  0
    1.9350    3.9414    2.7503 H   0  0  0  0  0  0
    2.7339    4.2304    1.1861 H   0  0  0  0  0  0
  1  2  1  0  0  0
  1  5  1  0  0  0
  1 13  1  0  0  0
  2  3  1  0  0  0
  2 12  1  0  0  0
  2 44  1  0  0  0
  3  4  1  0  0  0
  3  9  1  0  0  0
  3 45  1  0  0  0
  4  5  1  0  0  0
  4 46  1  0  0  0
  4 47  1  0  0  0
  5  6  1  0  0  0
  5 48  1  0  0  0
  6  7  2  0  0  0
  6  8  1  0  0  0
  9 10  1  0  0  0
  9 49  1  0  0  0
  9 50  1  0  0  0
 10 11  1  0  0  0
 10 51  1  0  0  0
 10 52  1  0  0  0
 11 12  1  0  0  0
 11 53  1  0  0  0
 11 54  1  0  0  0
 12 55  1  0  0  0
 12 56  1  0  0  0
 13 14  2  0  0  0
 13 15  1  0  0  0
 15 16  1  0  0  0
 15 57  1  0  0  0
 15 58  1  0  0  0
 16 17  1  0  0  0
 16 59  1  0  0  0
 16 60  1  0  0  0
 17 18  1  0  0  0
 17 41  1  0  0  0
 17 61  1  0  0  0
 18 19  1  0  0  0
 18 62  1  0  0  0
 19 20  2  0  0  0
 19 21  1  0  0  0
 21 22  1  0  0  0
 21 33  1  0  0  0
 21 63  1  0  0  0
 22 23  1  0  0  0
 22 64  1  0  0  0
 23 24  2  0  0  0
 23 25  1  0  0  0
 25 26  1  0  0  0
 26 27  1  0  0  0
 26 65  1  0  0  0
 26 66  1  0  0  0
 27 28  1  0  0  0
 27 32  2  0  0  0
 28 29  2  0  0  0
 28 67  1  0  0  0
 29 30  1  0  0  0
 29 68  1  0  0  0
 30 31  2  0  0  0
 30 69  1  0  0  0
 31 32  1  0  0  0
 31 70  1  0  0  0
 32 71  1  0  0  0
 33 34  1  0  0  0
 33 72  1  0  0  0
 33 73  1  0  0  0
 34 35  1  0  0  0
 34 74  1  0  0  0
 34 75  1  0  0  0
 35 36  1  0  0  0
 35 76  1  0  0  0
 35 77  1  0  0  0
 36 37  1  0  0  0
 36 78  1  0  0  0
 36 79  1  0  0  0
 37 38  1  0  0  0
 37 39  1  0  0  0
 37 40  1  0  0  0
 41 42  2  0  0  0
 41 43  1  0  0  0
M  CHG  3   8  -1  37   1  43  -1
M  END
>  <Activity>
8.46

>  <set>
1

>  <Min_dist>
999.9

>  <Avg_dist>
999.9

$$$$
COO_25E
  Cerius2 12110214443D 1   1.00000                          
 
 71 74  0  0  0  0  0  0  0  0999 V2000
   -5.1475   -0.1340   -0.7910 N   0  0  0  0  0  0
   -6.6021   -0.1251   -0.6148 C   0  0  0  0  0  0
   -6.9934    1.3566   -0.4651 C   0  0  0  0  0  0
   -6.0362    2.0104   -1.5085 C   0  0  0  0  0  0
   -4.7516    1.1642   -1.3660 C   0  0  0  0  0  0
   -3.7799    1.8577   -0.4462 C   0  0  0  0  0  0
   -3.3435    2.9586   -0.7381 O   0  0  0  0  0  0
   -3.4299    1.3181    0.5901 O   0  5  0  0  0  0
   -6.5725    1.8879    0.9067 C   0  0  0  0  0  0
   -7.1488    1.0188    2.0218 C   0  0  0  0  0  0
   -6.5857   -0.3993    1.8796 C   0  0  0  0  0  0
   -7.0618   -0.9768    0.5467 C   0  0  0  0  0  0
   -4.3172   -1.1482   -0.4772 C   0  0  0  0  0  0
   -4.7624   -2.1714   -0.0020 O   0  0  0  0  0  0
   -2.8358   -1.0108   -0.7168 C   0  0  0  0  0  0
   -2.1270   -2.2937   -0.2777 C   0  0  0  0  0  0
   -0.6229   -2.1543   -0.5209 C   0  0  0  0  0  0
   -0.1062   -1.0219    0.2517 N   0  0  0  0  0  0
    0.9536   -0.3239   -0.2023 C   0  0  0  0  0  0
    1.4795   -0.6332   -1.2504 O   0  0  0  0  0  0
    1.4851    0.8409    0.5926 C   0  0  0  0  0  0
    2.9239    1.0047    0.3384 N   0  0  0  0  0  0
    3.1492    2.3299   -0.2670 C   0  0  0  0  0  0
    1.9394    3.1842    0.1872 C   0  0  0  0  0  0
    0.7894    2.1434    0.1441 C   0  0  0  0  0  0
    3.8788    0.0944    0.6139 C   0  0  0  0  0  0
    3.5768   -0.9700    1.1163 O   0  0  0  0  0  0
    5.1675    0.3644    0.3325 O   0  0  0  0  0  0
    6.1963   -0.6163    0.6293 C   0  0  0  0  0  0
    7.5413   -0.0726    0.2215 C   0  0  0  0  0  0
    8.2966    0.6520    1.1244 C   0  0  0  0  0  0
    9.5303    1.1508    0.7503 C   0  0  0  0  0  0
   10.0089    0.9246   -0.5267 C   0  0  0  0  0  0
    9.2540    0.1993   -1.4294 C   0  0  0  0  0  0
    8.0222   -0.3032   -1.0539 C   0  0  0  0  0  0
    0.0752   -3.4178   -0.0884 C   0  0  0  0  0  0
    0.4961   -3.5357    1.1096 O   0  0  0  0  0  0
    0.2450   -4.3693   -0.9205 O   0  5  0  0  0  0
   -7.0626   -0.5142   -1.5229 H   0  0  0  0  0  0
   -8.0454    1.5366   -0.6867 H   0  0  0  0  0  0
   -6.4454    1.9253   -2.5151 H   0  0  0  0  0  0
   -5.8425    3.0528   -1.2555 H   0  0  0  0  0  0
   -4.2963    1.0131   -2.3448 H   0  0  0  0  0  0
   -5.4846    1.8845    0.9747 H   0  0  0  0  0  0
   -6.9356    2.9090    1.0232 H   0  0  0  0  0  0
   -6.8639    1.4300    2.9903 H   0  0  0  0  0  0
   -8.2353    0.9908    1.9392 H   0  0  0  0  0  0
   -5.4964   -0.3650    1.8965 H   0  0  0  0  0  0
   -6.9464   -1.0213    2.6988 H   0  0  0  0  0  0
   -8.1509   -1.0233    0.5463 H   0  0  0  0  0  0
   -6.6623   -1.9843    0.4309 H   0  0  0  0  0  0
   -2.6536   -0.8401   -1.7778 H   0  0  0  0  0  0
   -2.4513   -0.1683   -0.1419 H   0  0  0  0  0  0
   -2.3092   -2.4645    0.7833 H   0  0  0  0  0  0
   -2.5115   -3.1362   -0.8526 H   0  0  0  0  0  0
   -0.4408   -1.9835   -1.5820 H   0  0  0  0  0  0
   -0.5268   -0.7745    1.0900 H   0  0  0  0  0  0
    1.3132    0.6733    1.6558 H   0  0  0  0  0  0
    4.0790    2.7625    0.1023 H   0  0  0  0  0  0
    3.1716    2.2516   -1.3539 H   0  0  0  0  0  0
    2.0861    3.5626    1.1988 H   0  0  0  0  0  0
    1.7537    4.0007   -0.5106 H   0  0  0  0  0  0
    0.3981    2.0428   -0.8683 H   0  0  0  0  0  0
   -0.0039    2.4162    0.8400 H   0  0  0  0  0  0
    6.1990   -0.8278    1.6986 H   0  0  0  0  0  0
    5.9931   -1.5343    0.0779 H   0  0  0  0  0  0
    7.9227    0.8286    2.1221 H   0  0  0  0  0  0
   10.1202    1.7175    1.4555 H   0  0  0  0  0  0
   10.9725    1.3150   -0.8193 H   0  0  0  0  0  0
    9.6277    0.0229   -2.4272 H   0  0  0  0  0  0
    7.4323   -0.8699   -1.7591 H   0  0  0  0  0  0
  1  2  1  0  0  0
  1  5  1  0  0  0
  1 13  1  0  0  0
  2  3  1  0  0  0
  2 12  1  0  0  0
  2 39  1  0  0  0
  3  4  1  0  0  0
  3  9  1  0  0  0
  3 40  1  0  0  0
  4  5  1  0  0  0
  4 41  1  0  0  0
  4 42  1  0  0  0
  5  6  1  0  0  0
  5 43  1  0  0  0
  6  7  2  0  0  0
  6  8  1  0  0  0
  9 10  1  0  0  0
  9 44  1  0  0  0
  9 45  1  0  0  0
 10 11  1  0  0  0
 10 46  1  0  0  0
 10 47  1  0  0  0
 11 12  1  0  0  0
 11 48  1  0  0  0
 11 49  1  0  0  0
 12 50  1  0  0  0
 12 51  1  0  0  0
 13 14  2  0  0  0
 13 15  1  0  0  0
 15 16  1  0  0  0
 15 52  1  0  0  0
 15 53  1  0  0  0
 16 17  1  0  0  0
 16 54  1  0  0  0
 16 55  1  0  0  0
 17 18  1  0  0  0
 17 36  1  0  0  0
 17 56  1  0  0  0
 18 19  1  0  0  0
 18 57  1  0  0  0
 19 20  2  0  0  0
 19 21  1  0  0  0
 21 22  1  0  0  0
 21 25  1  0  0  0
 21 58  1  0  0  0
 22 23  1  0  0  0
 22 26  1  0  0  0
 23 24  1  0  0  0
 23 59  1  0  0  0
 23 60  1  0  0  0
 24 25  1  0  0  0
 24 61  1  0  0  0
 24 62  1  0  0  0
 25 63  1  0  0  0
 25 64  1  0  0  0
 26 27  2  0  0  0
 26 28  1  0  0  0
 28 29  1  0  0  0
 29 30  1  0  0  0
 29 65  1  0  0  0
 29 66  1  0  0  0
 30 31  1  0  0  0
 30 35  2  0  0  0
 31 32  2  0  0  0
 31 67  1  0  0  0
 32 33  1  0  0  0
 32 68  1  0  0  0
 33 34  2  0  0  0
 33 69  1  0  0  0
 34 35  1  0  0  0
 34 70  1  0  0  0
 35 71  1  0  0  0
 36 37  2  0  0  0
 36 38  1  0  0  0
M  CHG  2   8  -1  38  -1
M  END
>  <Activity>
7.82

>  <set>
1

>  <Min_dist>
999.9

>  <Avg_dist>
999.9

$$$$
COO_26A
  Cerius2 12110214443D 1   1.00000                          
 
 64 65  0  0  0  0  0  0  0  0999 V2000
   -2.9873   -0.0921   -0.7617 N   0  0  0  0  0  0
   -4.3998    0.2487   -0.5734 C   0  0  0  0  0  0
   -4.4595    1.7874   -0.5740 C   0  0  0  0  0  0
   -3.4180    2.1120   -1.6884 C   0  0  0  0  0  0
   -2.3407    1.0262   -1.4716 C   0  0  0  0  0  0
   -1.2143    1.5804   -0.6378 C   0  0  0  0  0  0
   -0.5616    2.5263   -1.0460 O   0  0  0  0  0  0
   -0.9555    1.0830    0.4453 O   0  5  0  0  0  0
   -3.8912    2.3479    0.7314 C   0  0  0  0  0  0
   -4.6049    1.7388    1.9359 C   0  0  0  0  0  0
   -4.3636    0.2255    1.9357 C   0  0  0  0  0  0
   -4.9944   -0.3641    0.6742 C   0  0  0  0  0  0
   -2.3842   -1.2259   -0.3527 C   0  0  0  0  0  0
   -3.0230   -2.0764    0.2299 O   0  0  0  0  0  0
   -0.9160   -1.4369   -0.6194 C   0  0  0  0  0  0
   -0.4852   -2.7929   -0.0568 C   0  0  0  0  0  0
    1.0054   -3.0070   -0.3276 C   0  0  0  0  0  0
    1.7770   -1.9427    0.3189 N   0  0  0  0  0  0
    2.9468   -1.5390   -0.2150 C   0  0  0  0  0  0
    3.3607   -2.0569   -1.2306 O   0  0  0  0  0  0
    3.7406   -0.4441    0.4500 C   0  0  0  0  0  0
    5.1717   -0.6497    0.1901 N   0  3  0  0  0  0
    5.3391   -0.6298   -0.8048 H   0  0  0  0  0  0
    5.7031    0.0833    0.6353 H   0  0  0  0  0  0
    5.4558   -1.5440    0.5611 H   0  0  0  0  0  0
    3.3097    0.9119   -0.1125 C   0  0  0  0  0  0
    4.1156    2.0235    0.5626 C   0  0  0  0  0  0
    3.6847    3.3795    0.0000 C   0  0  0  0  0  0
    4.4906    4.4911    0.6752 C   0  0  0  0  0  0
    4.0769    5.7931    0.1350 N   0  3  0  0  0  0
    4.6084    6.5261    0.5803 H   0  0  0  0  0  0
    4.2443    5.8130   -0.8598 H   0  0  0  0  0  0
    3.0939    5.9343    0.3136 H   0  0  0  0  0  0
    1.4297   -4.3427    0.2265 C   0  0  0  0  0  0
    1.8349   -4.4260    1.3739 O   0  0  0  0  0  0
    1.3681   -5.3403   -0.4724 O   0  5  0  0  0  0
   -4.9616   -0.1192   -1.4320 H   0  0  0  0  0  0
   -5.4549    2.1680   -0.8029 H   0  0  0  0  0  0
   -3.8676    2.0185   -2.6770 H   0  0  0  0  0  0
   -2.9975    3.1076   -1.5465 H   0  0  0  0  0  0
   -1.9597    0.6842   -2.4338 H   0  0  0  0  0  0
   -2.8278    2.1159    0.7890 H   0  0  0  0  0  0
   -4.0232    3.4298    0.7452 H   0  0  0  0  0  0
   -4.2079    2.1723    2.8539 H   0  0  0  0  0  0
   -5.6742    1.9386    1.8670 H   0  0  0  0  0  0
   -3.2922    0.0247    1.9385 H   0  0  0  0  0  0
   -4.8231   -0.2196    2.8182 H   0  0  0  0  0  0
   -6.0675   -0.1736    0.6891 H   0  0  0  0  0  0
   -4.8240   -1.4406    0.6594 H   0  0  0  0  0  0
   -0.7352   -1.4153   -1.6941 H   0  0  0  0  0  0
   -0.3419   -0.6449   -0.1384 H   0  0  0  0  0  0
   -0.6660   -2.8144    1.0178 H   0  0  0  0  0  0
   -1.0593   -3.5848   -0.5378 H   0  0  0  0  0  0
    1.1862   -2.9855   -1.4023 H   0  0  0  0  0  0
    1.4459   -1.5285    1.1311 H   0  0  0  0  0  0
    3.5598   -0.4657    1.5247 H   0  0  0  0  0  0
    3.4905    0.9334   -1.1872 H   0  0  0  0  0  0
    2.2478    1.0645    0.0804 H   0  0  0  0  0  0
    3.9348    2.0019    1.6373 H   0  0  0  0  0  0
    5.1775    1.8709    0.3697 H   0  0  0  0  0  0
    3.8656    3.4011   -1.0746 H   0  0  0  0  0  0
    2.6228    3.5321    0.1929 H   0  0  0  0  0  0
    4.3098    4.4696    1.7499 H   0  0  0  0  0  0
    5.5525    4.3385    0.4823 H   0  0  0  0  0  0
  1  2  1  0  0  0
  1  5  1  0  0  0
  1 13  1  0  0  0
  2  3  1  0  0  0
  2 12  1  0  0  0
  2 37  1  0  0  0
  3  4  1  0  0  0
  3  9  1  0  0  0
  3 38  1  0  0  0
  4  5  1  0  0  0
  4 39  1  0  0  0
  4 40  1  0  0  0
  5  6  1  0  0  0
  5 41  1  0  0  0
  6  7  2  0  0  0
  6  8  1  0  0  0
  9 10  1  0  0  0
  9 42  1  0  0  0
  9 43  1  0  0  0
 10 11  1  0  0  0
 10 44  1  0  0  0
 10 45  1  0  0  0
 11 12  1  0  0  0
 11 46  1  0  0  0
 11 47  1  0  0  0
 12 48  1  0  0  0
 12 49  1  0  0  0
 13 14  2  0  0  0
 13 15  1  0  0  0
 15 16  1  0  0  0
 15 50  1  0  0  0
 15 51  1  0  0  0
 16 17  1  0  0  0
 16 52  1  0  0  0
 16 53  1  0  0  0
 17 18  1  0  0  0
 17 34  1  0  0  0
 17 54  1  0  0  0
 18 19  1  0  0  0
 18 55  1  0  0  0
 19 20  2  0  0  0
 19 21  1  0  0  0
 21 22  1  0  0  0
 21 26  1  0  0  0
 21 56  1  0  0  0
 22 23  1  0  0  0
 22 24  1  0  0  0
 22 25  1  0  0  0
 26 27  1  0  0  0
 26 57  1  0  0  0
 26 58  1  0  0  0
 27 28  1  0  0  0
 27 59  1  0  0  0
 27 60  1  0  0  0
 28 29  1  0  0  0
 28 61  1  0  0  0
 28 62  1  0  0  0
 29 30  1  0  0  0
 29 63  1  0  0  0
 29 64  1  0  0  0
 30 31  1  0  0  0
 30 32  1  0  0  0
 30 33  1  0  0  0
 34 35  2  0  0  0
 34 36  1  0  0  0
M  CHG  4   8  -1  22   1  30   1  36  -1
M  END
>  <Activity>
7.92

>  <set>
1

>  <Min_dist>
999.9

>  <Avg_dist>
999.9

$$$$
COO_26C
  Cerius2 12110214443D 1   1.00000                          
 
 62 64  0  0  0  0  0  0  0  0999 V2000
   -3.3342    0.0872   -0.7146 N   0  0  0  0  0  0
   -4.7033    0.5526   -0.4784 C   0  0  0  0  0  0
   -4.6529    2.0844   -0.6276 C   0  0  0  0  0  0
   -3.6664    2.2210   -1.8277 C   0  0  0  0  0  0
   -2.6575    1.0803   -1.5681 C   0  0  0  0  0  0
   -1.4420    1.6216   -0.8606 C   0  0  0  0  0  0
   -0.7517    2.4715   -1.3979 O   0  0  0  0  0  0
   -1.1486    1.2098    0.2493 O   0  5  0  0  0  0
   -3.9613    2.7196    0.5806 C   0  0  0  0  0  0
   -4.6358    2.2837    1.8791 C   0  0  0  0  0  0
   -4.5038    0.7630    2.0142 C   0  0  0  0  0  0
   -5.2568    0.1079    0.8563 C   0  0  0  0  0  0
   -2.7880   -1.0464   -0.2316 C   0  0  0  0  0  0
   -3.4462   -1.7862    0.4687 O   0  0  0  0  0  0
   -1.3594   -1.3946   -0.5617 C   0  0  0  0  0  0
   -0.9904   -2.7209    0.1059 C   0  0  0  0  0  0
    0.4600   -3.0744   -0.2292 C   0  0  0  0  0  0
    1.3465   -2.0168    0.2626 N   0  0  0  0  0  0
    2.5045   -1.7570   -0.3762 C   0  0  0  0  0  0
    2.8126   -2.3987   -1.3581 O   0  0  0  0  0  0
    3.4165   -0.6692    0.1298 C   0  0  0  0  0  0
    4.8090   -1.0086   -0.1920 N   0  3  0  0  0  0
    4.9116   -1.0954   -1.1920 H   0  0  0  0  0  0
    5.4196   -0.2802    0.1467 H   0  0  0  0  0  0
    5.0524   -1.8832    0.2482 H   0  0  0  0  0  0
    3.0475    0.6571   -0.5378 C   0  0  0  0  0  0
    3.9594    1.7450   -0.0319 C   0  0  0  0  0  0
    5.1472    2.0114   -0.6870 C   0  0  0  0  0  0
    5.9837    3.0093   -0.2230 C   0  0  0  0  0  0
    5.6323    3.7410    0.8960 C   0  0  0  0  0  0
    4.4441    3.4751    1.5506 C   0  0  0  0  0  0
    3.6056    2.4802    1.0839 C   0  0  0  0  0  0
    0.8234   -4.3807    0.4283 C   0  0  0  0  0  0
    1.3177   -4.3870    1.6039 O   0  0  0  0  0  0
    0.6367   -5.4799   -0.1908 O   0  5  0  0  0  0
   -5.3452    0.1501   -1.2620 H   0  0  0  0  0  0
   -5.6315    2.5177   -0.8342 H   0  0  0  0  0  0
   -4.1857    2.0699   -2.7741 H   0  0  0  0  0  0
   -3.1674    3.1899   -1.8097 H   0  0  0  0  0  0
   -2.3660    0.6206   -2.5125 H   0  0  0  0  0  0
   -2.9157    2.4123    0.5984 H   0  0  0  0  0  0
   -4.0145    3.8050    0.4951 H   0  0  0  0  0  0
   -4.1494    2.7696    2.7249 H   0  0  0  0  0  0
   -5.6903    2.5584    1.8535 H   0  0  0  0  0  0
   -3.4517    0.4810    1.9740 H   0  0  0  0  0  0
   -4.9349    0.4400    2.9618 H   0  0  0  0  0  0
   -6.3102    0.3815    0.9151 H   0  0  0  0  0  0
   -5.1650   -0.9752    0.9379 H   0  0  0  0  0  0
   -1.2486   -1.4884   -1.6420 H   0  0  0  0  0  0
   -0.6998   -0.6077   -0.1958 H   0  0  0  0  0  0
   -1.1012   -2.6270    1.1862 H   0  0  0  0  0  0
   -1.6500   -3.5077   -0.2600 H   0  0  0  0  0  0
    0.5707   -3.1682   -1.3095 H   0  0  0  0  0  0
    1.1001   -1.5036    1.0479 H   0  0  0  0  0  0
    3.3057   -0.5754    1.2100 H   0  0  0  0  0  0
    3.1583    0.5633   -1.6181 H   0  0  0  0  0  0
    2.0142    0.9090   -0.2991 H   0  0  0  0  0  0
    5.4217    1.4398   -1.5613 H   0  0  0  0  0  0
    6.9120    3.2170   -0.7344 H   0  0  0  0  0  0
    6.2862    4.5201    1.2590 H   0  0  0  0  0  0
    4.1698    4.0465    2.4250 H   0  0  0  0  0  0
    2.6773    2.2725    1.5954 H   0  0  0  0  0  0
  1  2  1  0  0  0
  1  5  1  0  0  0
  1 13  1  0  0  0
  2  3  1  0  0  0
  2 12  1  0  0  0
  2 36  1  0  0  0
  3  4  1  0  0  0
  3  9  1  0  0  0
  3 37  1  0  0  0
  4  5  1  0  0  0
  4 38  1  0  0  0
  4 39  1  0  0  0
  5  6  1  0  0  0
  5 40  1  0  0  0
  6  7  2  0  0  0
  6  8  1  0  0  0
  9 10  1  0  0  0
  9 41  1  0  0  0
  9 42  1  0  0  0
 10 11  1  0  0  0
 10 43  1  0  0  0
 10 44  1  0  0  0
 11 12  1  0  0  0
 11 45  1  0  0  0
 11 46  1  0  0  0
 12 47  1  0  0  0
 12 48  1  0  0  0
 13 14  2  0  0  0
 13 15  1  0  0  0
 15 16  1  0  0  0
 15 49  1  0  0  0
 15 50  1  0  0  0
 16 17  1  0  0  0
 16 51  1  0  0  0
 16 52  1  0  0  0
 17 18  1  0  0  0
 17 33  1  0  0  0
 17 53  1  0  0  0
 18 19  1  0  0  0
 18 54  1  0  0  0
 19 20  2  0  0  0
 19 21  1  0  0  0
 21 22  1  0  0  0
 21 26  1  0  0  0
 21 55  1  0  0  0
 22 23  1  0  0  0
 22 24  1  0  0  0
 22 25  1  0  0  0
 26 27  1  0  0  0
 26 56  1  0  0  0
 26 57  1  0  0  0
 27 28  1  0  0  0
 27 32  2  0  0  0
 28 29  2  0  0  0
 28 58  1  0  0  0
 29 30  1  0  0  0
 29 59  1  0  0  0
 30 31  2  0  0  0
 30 60  1  0  0  0
 31 32  1  0  0  0
 31 61  1  0  0  0
 32 62  1  0  0  0
 33 34  2  0  0  0
 33 35  1  0  0  0
M  CHG  3   8  -1  22   1  35  -1
M  END
>  <Activity>
7

>  <set>
1

>  <Min_dist>
999.9

>  <Avg_dist>
999.9

$$$$
COO_26H
  Cerius2 12110214443D 1   1.00000                          
 
 62 64  0  0  0  0  0  0  0  0999 V2000
   -3.7217   -0.0864   -0.5157 N   0  0  0  0  0  0
   -5.0933    0.2542   -0.1291 C   0  0  0  0  0  0
   -5.2583    1.7495   -0.4575 C   0  0  0  0  0  0
   -4.4710    1.8343   -1.8011 C   0  0  0  0  0  0
   -3.2997    0.8540   -1.5695 C   0  0  0  0  0  0
   -2.0772    1.6124   -1.1207 C   0  0  0  0  0  0
   -1.5804    2.4546   -1.8497 O   0  0  0  0  0  0
   -1.5846    1.3839   -0.0286 O   0  5  0  0  0  0
   -4.4938    2.6090    0.5515 C   0  0  0  0  0  0
   -4.9232    2.2762    1.9784 C   0  0  0  0  0  0
   -4.5822    0.8097    2.2641 C   0  0  0  0  0  0
   -5.3977   -0.0695    1.3159 C   0  0  0  0  0  0
   -2.9752   -1.0807    0.0046 C   0  0  0  0  0  0
   -3.4321   -1.7896    0.8761 O   0  0  0  0  0  0
   -1.5729   -1.3115   -0.4967 C   0  0  0  0  0  0
   -0.9508   -2.4909    0.2537 C   0  0  0  0  0  0
    0.4730   -2.7253   -0.2552 C   0  0  0  0  0  0
    1.2773   -1.5223   -0.0271 N   0  0  0  0  0  0
    2.2945   -1.2239   -0.8594 C   0  0  0  0  0  0
    2.5439   -1.9513   -1.7973 O   0  0  0  0  0  0
    3.1219    0.0136   -0.6248 C   0  0  0  0  0  0
    3.6227    0.5187   -1.9101 N   0  3  0  0  0  0
    4.1923   -0.1882   -2.3504 H   0  0  0  0  0  0
    2.8431    0.7441   -2.5097 H   0  0  0  0  0  0
    4.1767    1.3473   -1.7530 H   0  0  0  0  0  0
    4.3041   -0.3282    0.2844 C   0  0  0  0  0  0
    5.1315    0.9093    0.5190 C   0  0  0  0  0  0
    4.8472    1.7384    1.5880 C   0  0  0  0  0  0
    5.6062    2.8736    1.8032 C   0  0  0  0  0  0
    6.6497    3.1794    0.9497 C   0  0  0  0  0  0
    6.9345    2.3498   -0.1188 C   0  0  0  0  0  0
    6.1783    1.2123   -0.3314 C   0  0  0  0  0  0
    1.0857   -3.8869    0.4839 C   0  0  0  0  0  0
    1.7333   -3.6853    1.5639 O   0  0  0  0  0  0
    0.9567   -5.0714    0.0294 O   0  5  0  0  0  0
   -5.7803   -0.3150   -0.7554 H   0  0  0  0  0  0
   -6.3030    2.0430   -0.5612 H   0  0  0  0  0  0
   -5.0918    1.5049   -2.6343 H   0  0  0  0  0  0
   -4.1012    2.8457   -1.9693 H   0  0  0  0  0  0
   -3.0846    0.3091   -2.4887 H   0  0  0  0  0  0
   -3.4252    2.4223    0.4453 H   0  0  0  0  0  0
   -4.6953    3.6615    0.3522 H   0  0  0  0  0  0
   -4.3909    2.9187    2.6798 H   0  0  0  0  0  0
   -5.9975    2.4287    2.0820 H   0  0  0  0  0  0
   -3.5183    0.6410    2.0971 H   0  0  0  0  0  0
   -4.8348    0.5686    3.2966 H   0  0  0  0  0  0
   -6.4592    0.0932    1.5024 H   0  0  0  0  0  0
   -5.1591   -1.1160    1.5054 H   0  0  0  0  0  0
   -1.6003   -1.5334   -1.5635 H   0  0  0  0  0  0
   -0.9744   -0.4165   -0.3270 H   0  0  0  0  0  0
   -0.9234   -2.2690    1.3205 H   0  0  0  0  0  0
   -1.5492   -3.3859    0.0840 H   0  0  0  0  0  0
    0.4456   -2.9471   -1.3220 H   0  0  0  0  0  0
    1.0779   -0.9405    0.7230 H   0  0  0  0  0  0
    2.5066    0.7773   -0.1491 H   0  0  0  0  0  0
    3.9325   -0.7030    1.2381 H   0  0  0  0  0  0
    4.9194   -1.0919   -0.1913 H   0  0  0  0  0  0
    4.0320    1.4995    2.2548 H   0  0  0  0  0  0
    5.3836    3.5217    2.6379 H   0  0  0  0  0  0
    7.2422    4.0666    1.1174 H   0  0  0  0  0  0
    7.7496    2.5889   -0.7858 H   0  0  0  0  0  0
    6.4008    0.5642   -1.1662 H   0  0  0  0  0  0
  1  2  1  0  0  0
  1  5  1  0  0  0
  1 13  1  0  0  0
  2  3  1  0  0  0
  2 12  1  0  0  0
  2 36  1  0  0  0
  3  4  1  0  0  0
  3  9  1  0  0  0
  3 37  1  0  0  0
  4  5  1  0  0  0
  4 38  1  0  0  0
  4 39  1  0  0  0
  5  6  1  0  0  0
  5 40  1  0  0  0
  6  7  2  0  0  0
  6  8  1  0  0  0
  9 10  1  0  0  0
  9 41  1  0  0  0
  9 42  1  0  0  0
 10 11  1  0  0  0
 10 43  1  0  0  0
 10 44  1  0  0  0
 11 12  1  0  0  0
 11 45  1  0  0  0
 11 46  1  0  0  0
 12 47  1  0  0  0
 12 48  1  0  0  0
 13 14  2  0  0  0
 13 15  1  0  0  0
 15 16  1  0  0  0
 15 49  1  0  0  0
 15 50  1  0  0  0
 16 17  1  0  0  0
 16 51  1  0  0  0
 16 52  1  0  0  0
 17 18  1  0  0  0
 17 33  1  0  0  0
 17 53  1  0  0  0
 18 19  1  0  0  0
 18 54  1  0  0  0
 19 20  2  0  0  0
 19 21  1  0  0  0
 21 22  1  0  0  0
 21 26  1  0  0  0
 21 55  1  0  0  0
 22 23  1  0  0  0
 22 24  1  0  0  0
 22 25  1  0  0  0
 26 27  1  0  0  0
 26 56  1  0  0  0
 26 57  1  0  0  0
 27 28  1  0  0  0
 27 32  2  0  0  0
 28 29  2  0  0  0
 28 58  1  0  0  0
 29 30  1  0  0  0
 29 59  1  0  0  0
 30 31  2  0  0  0
 30 60  1  0  0  0
 31 32  1  0  0  0
 31 61  1  0  0  0
 32 62  1  0  0  0
 33 34  2  0  0  0
 33 35  1  0  0  0
M  CHG  3   8  -1  22   1  35  -1
M  END
>  <Activity>
6.66

>  <set>
1

>  <Min_dist>
999.9

>  <Avg_dist>
999.9

$$$$
SQ29852
  Cerius2 12110214443D 1   1.00000                          
 
 62 63  0  0  0  0  0  0  0  0999 V2000
   -0.4331   -0.0067   -0.4813 P   0  0  0  0  0  0
   -0.2127   -1.1897   -1.4502 O   0  0  0  0  0  0
    0.7457    0.0159    0.6151 O   0  0  0  0  0  0
    1.9728    0.1686   -0.1010 C   0  0  0  0  0  0
    2.6713    1.4522    0.3520 C   0  0  0  0  0  0
    1.7646    2.6524    0.0718 C   0  0  0  0  0  0
    2.4631    3.9360    0.5248 C   0  0  0  0  0  0
    1.5564    5.1361    0.2445 C   0  0  0  0  0  0
    2.2270    6.3686    0.6795 N   0  3  0  0  0  0
    1.6291    7.1601    0.4947 H   0  0  0  0  0  0
    2.4191    6.3159    1.6686 H   0  0  0  0  0  0
    3.0935    6.4764    0.1739 H   0  0  0  0  0  0
    2.8659   -1.0135    0.1750 C   0  0  0  0  0  0
    2.4886   -1.8995    0.9123 O   0  0  0  0  0  0
    4.0839   -1.0861   -0.3975 N   0  0  0  0  0  0
    5.0524   -2.1772   -0.2158 C   0  0  0  0  0  0
    6.2854   -1.8443   -1.0820 C   0  0  0  0  0  0
    5.7118   -0.8675   -2.1423 C   0  0  0  0  0  0
    4.6630   -0.0877   -1.3147 C   0  0  0  0  0  0
    5.4542   -2.2698    1.2337 C   0  0  0  0  0  0
    6.2549   -3.1173    1.5916 O   0  0  0  0  0  0
    4.9787   -1.4971    2.0489 O   0  5  0  0  0  0
   -0.4230    1.3184   -1.2757 O   0  5  0  0  0  0
   -2.0399   -0.1997    0.3579 C   0  0  0  0  0  0
   -3.1602   -0.2212   -0.6840 C   0  0  0  0  0  0
   -4.5087   -0.3832    0.0204 C   0  0  0  0  0  0
   -5.6289   -0.4046   -1.0215 C   0  0  0  0  0  0
   -6.9572   -0.5642   -0.3278 C   0  0  0  0  0  0
   -7.6662    0.5527    0.0732 C   0  0  0  0  0  0
   -8.8845    0.4063    0.7096 C   0  0  0  0  0  0
   -9.3942   -0.8570    0.9446 C   0  0  0  0  0  0
   -8.6856   -1.9739    0.5428 C   0  0  0  0  0  0
   -7.4693   -1.8274   -0.0974 C   0  0  0  0  0  0
    1.7653    0.2255   -1.1695 H   0  0  0  0  0  0
    2.8788    1.3953    1.4206 H   0  0  0  0  0  0
    3.6074    1.5687   -0.1942 H   0  0  0  0  0  0
    1.5571    2.7093   -0.9968 H   0  0  0  0  0  0
    0.8286    2.5359    0.6180 H   0  0  0  0  0  0
    2.6706    3.8791    1.5933 H   0  0  0  0  0  0
    3.3992    4.0525   -0.0214 H   0  0  0  0  0  0
    1.3489    5.1931   -0.8240 H   0  0  0  0  0  0
    0.6203    5.0197    0.7907 H   0  0  0  0  0  0
    4.6139   -3.1203   -0.5420 H   0  0  0  0  0  0
    7.0558   -1.3563   -0.4849 H   0  0  0  0  0  0
    6.6767   -2.7436   -1.5578 H   0  0  0  0  0  0
    6.4876   -0.2016   -2.5202 H   0  0  0  0  0  0
    5.2351   -1.4118   -2.9575 H   0  0  0  0  0  0
    3.8936    0.3235   -1.9681 H   0  0  0  0  0  0
    5.1440    0.7081   -0.7459 H   0  0  0  0  0  0
   -2.0471   -1.1346    0.9184 H   0  0  0  0  0  0
   -2.1954    0.6349    1.0415 H   0  0  0  0  0  0
   -3.1530    0.7137   -1.2445 H   0  0  0  0  0  0
   -3.0047   -1.0558   -1.3675 H   0  0  0  0  0  0
   -4.5159   -1.3180    0.5808 H   0  0  0  0  0  0
   -4.6642    0.4515    0.7039 H   0  0  0  0  0  0
   -5.6218    0.5302   -1.5820 H   0  0  0  0  0  0
   -5.4734   -1.2393   -1.7051 H   0  0  0  0  0  0
   -7.2680    1.5397   -0.1105 H   0  0  0  0  0  0
   -9.4381    1.2789    1.0235 H   0  0  0  0  0  0
  -10.3457   -0.9714    1.4424 H   0  0  0  0  0  0
   -9.0836   -2.9609    0.7268 H   0  0  0  0  0  0
   -6.9157   -2.7000   -0.4113 H   0  0  0  0  0  0
  1  2  2  0  0  0
  1  3  1  0  0  0
  1 23  1  0  0  0
  1 24  1  0  0  0
  3  4  1  0  0  0
  4  5  1  0  0  0
  4 13  1  0  0  0
  4 34  1  0  0  0
  5  6  1  0  0  0
  5 35  1  0  0  0
  5 36  1  0  0  0
  6  7  1  0  0  0
  6 37  1  0  0  0
  6 38  1  0  0  0
  7  8  1  0  0  0
  7 39  1  0  0  0
  7 40  1  0  0  0
  8  9  1  0  0  0
  8 41  1  0  0  0
  8 42  1  0  0  0
  9 10  1  0  0  0
  9 11  1  0  0  0
  9 12  1  0  0  0
 13 14  2  0  0  0
 13 15  1  0  0  0
 15 16  1  0  0  0
 15 19  1  0  0  0
 16 17  1  0  0  0
 16 20  1  0  0  0
 16 43  1  0  0  0
 17 18  1  0  0  0
 17 44  1  0  0  0
 17 45  1  0  0  0
 18 19  1  0  0  0
 18 46  1  0  0  0
 18 47  1  0  0  0
 19 48  1  0  0  0
 19 49  1  0  0  0
 20 21  2  0  0  0
 20 22  1  0  0  0
 24 25  1  0  0  0
 24 50  1  0  0  0
 24 51  1  0  0  0
 25 26  1  0  0  0
 25 52  1  0  0  0
 25 53  1  0  0  0
 26 27  1  0  0  0
 26 54  1  0  0  0
 26 55  1  0  0  0
 27 28  1  0  0  0
 27 56  1  0  0  0
 27 57  1  0  0  0
 28 29  1  0  0  0
 28 33  2  0  0  0
 29 30  2  0  0  0
 29 58  1  0  0  0
 30 31  1  0  0  0
 30 59  1  0  0  0
 31 32  2  0  0  0
 31 60  1  0  0  0
 32 33  1  0  0  0
 32 61  1  0  0  0
 33 62  1  0  0  0
M  CHG  3   9   1  22  -1  23  -1
M  END
>  <Activity>
7.44

>  <set>
1

>  <Min_dist>
999.9

>  <Avg_dist>
999.9

$$$$
SQ29852_2B
  Cerius2 12110214443D 1   1.00000                          
 
 78 80  0  0  0  0  0  0  0  0999 V2000
   -1.6012    0.1959   -0.0203 P   0  0  0  0  0  0
   -1.0958   -1.0464   -0.7873 O   0  0  0  0  0  0
   -0.5708    0.5510    1.1647 O   0  0  0  0  0  0
    0.6918    0.8138    0.5492 C   0  0  0  0  0  0
    1.1316    2.2421    0.8772 C   0  0  0  0  0  0
    0.1192    3.2329    0.2991 C   0  0  0  0  0  0
    0.5590    4.6612    0.6271 C   0  0  0  0  0  0
   -0.4533    5.6520    0.0490 C   0  0  0  0  0  0
   -0.0311    7.0233    0.3639 N   0  3  0  0  0  0
   -0.6987    7.6767   -0.0173 H   0  0  0  0  0  0
    0.0182    7.1385    1.3651 H   0  0  0  0  0  0
    0.8773    7.1966   -0.0397 H   0  0  0  0  0  0
    1.7172   -0.1598    1.0705 C   0  0  0  0  0  0
    1.4790   -0.8194    2.0600 O   0  0  0  0  0  0
    2.8989   -0.2975    0.4372 N   0  0  0  0  0  0
    3.2716    0.3466   -0.8308 C   0  0  0  0  0  0
    4.7198   -0.0787   -1.1524 C   0  0  0  0  0  0
    5.2795   -0.4843    0.2368 C   0  0  0  0  0  0
    4.0341   -1.1138    0.9044 C   0  0  0  0  0  0
    6.4064   -1.5095    0.0959 C   0  0  0  0  0  0
    7.5423   -0.9080   -0.7340 C   0  0  0  0  0  0
    8.6693   -1.9332   -0.8748 C   0  0  0  0  0  0
    9.1943   -2.3078    0.5126 C   0  0  0  0  0  0
    8.0584   -2.9093    1.3425 C   0  0  0  0  0  0
    6.9315   -1.8841    1.4833 C   0  0  0  0  0  0
    2.3471   -0.1111   -1.9293 C   0  0  0  0  0  0
    1.4374   -0.8838   -1.6784 O   0  0  0  0  0  0
    2.5085    0.2912   -3.0693 O   0  5  0  0  0  0
   -1.7029    1.3940   -0.9905 O   0  5  0  0  0  0
   -3.2443   -0.1538    0.6877 C   0  0  0  0  0  0
   -4.2235   -0.4912   -0.4384 C   0  0  0  0  0  0
   -5.6025   -0.7848    0.1558 C   0  0  0  0  0  0
   -6.5818   -1.1222   -0.9704 C   0  0  0  0  0  0
   -7.9401   -1.4114   -0.3851 C   0  0  0  0  0  0
   -8.8511   -0.3860   -0.2131 C   0  0  0  0  0  0
  -10.0970   -0.6512    0.3238 C   0  0  0  0  0  0
  -10.4320   -1.9419    0.6883 C   0  0  0  0  0  0
   -9.5213   -2.9674    0.5155 C   0  0  0  0  0  0
   -8.2770   -2.7029   -0.0255 C   0  0  0  0  0  0
    0.5999    0.7010   -0.5311 H   0  0  0  0  0  0
    1.1849    2.3665    1.9587 H   0  0  0  0  0  0
    2.1129    2.4293    0.4411 H   0  0  0  0  0  0
    0.0660    3.1085   -0.7825 H   0  0  0  0  0  0
   -0.8621    3.0457    0.7351 H   0  0  0  0  0  0
    0.6123    4.7856    1.7086 H   0  0  0  0  0  0
    1.5403    4.8483    0.1910 H   0  0  0  0  0  0
   -0.5066    5.5276   -1.0326 H   0  0  0  0  0  0
   -1.4346    5.4648    0.4850 H   0  0  0  0  0  0
    3.2182    1.4302   -0.7259 H   0  0  0  0  0  0
    4.7296   -0.9283   -1.8351 H   0  0  0  0  0  0
    5.2842    0.7568   -1.5665 H   0  0  0  0  0  0
    5.6165    0.3905    0.7928 H   0  0  0  0  0  0
    4.1199   -1.0644    1.9899 H   0  0  0  0  0  0
    3.9108   -2.1469    0.5793 H   0  0  0  0  0  0
    6.0259   -2.4016   -0.4016 H   0  0  0  0  0  0
    7.1683   -0.6412   -1.7224 H   0  0  0  0  0  0
    7.9228   -0.0159   -0.2365 H   0  0  0  0  0  0
    8.2888   -2.8253   -1.3723 H   0  0  0  0  0  0
    9.4785   -1.5047   -1.4660 H   0  0  0  0  0  0
    9.9972   -3.0382    0.4123 H   0  0  0  0  0  0
    9.5748   -1.4157    1.0101 H   0  0  0  0  0  0
    7.6779   -3.8014    0.8450 H   0  0  0  0  0  0
    8.4324   -3.1761    2.3309 H   0  0  0  0  0  0
    7.3119   -0.9920    1.9809 H   0  0  0  0  0  0
    6.1222   -2.3126    2.0746 H   0  0  0  0  0  0
   -3.1725   -0.9991    1.3722 H   0  0  0  0  0  0
   -3.6009    0.7226    1.2288 H   0  0  0  0  0  0
   -4.2953    0.3540   -1.1229 H   0  0  0  0  0  0
   -3.8670   -1.3677   -0.9795 H   0  0  0  0  0  0
   -5.5308   -1.6300    0.8402 H   0  0  0  0  0  0
   -5.9591    0.0917    0.6968 H   0  0  0  0  0  0
   -6.6535   -0.2770   -1.6549 H   0  0  0  0  0  0
   -6.2252   -1.9987   -1.5114 H   0  0  0  0  0  0
   -8.5893    0.6223   -0.4979 H   0  0  0  0  0  0
  -10.8085    0.1500    0.4588 H   0  0  0  0  0  0
  -11.4052   -2.1490    1.1084 H   0  0  0  0  0  0
   -9.7830   -3.9757    0.8005 H   0  0  0  0  0  0
   -7.5655   -3.5041   -0.1605 H   0  0  0  0  0  0
  1  2  2  0  0  0
  1  3  1  0  0  0
  1 29  1  0  0  0
  1 30  1  0  0  0
  3  4  1  0  0  0
  4  5  1  0  0  0
  4 13  1  0  0  0
  4 40  1  0  0  0
  5  6  1  0  0  0
  5 41  1  0  0  0
  5 42  1  0  0  0
  6  7  1  0  0  0
  6 43  1  0  0  0
  6 44  1  0  0  0
  7  8  1  0  0  0
  7 45  1  0  0  0
  7 46  1  0  0  0
  8  9  1  0  0  0
  8 47  1  0  0  0
  8 48  1  0  0  0
  9 10  1  0  0  0
  9 11  1  0  0  0
  9 12  1  0  0  0
 13 14  2  0  0  0
 13 15  1  0  0  0
 15 16  1  0  0  0
 15 19  1  0  0  0
 16 17  1  0  0  0
 16 26  1  0  0  0
 16 49  1  0  0  0
 17 18  1  0  0  0
 17 50  1  0  0  0
 17 51  1  0  0  0
 18 19  1  0  0  0
 18 20  1  0  0  0
 18 52  1  0  0  0
 19 53  1  0  0  0
 19 54  1  0  0  0
 20 21  1  0  0  0
 20 25  1  0  0  0
 20 55  1  0  0  0
 21 22  1  0  0  0
 21 56  1  0  0  0
 21 57  1  0  0  0
 22 23  1  0  0  0
 22 58  1  0  0  0
 22 59  1  0  0  0
 23 24  1  0  0  0
 23 60  1  0  0  0
 23 61  1  0  0  0
 24 25  1  0  0  0
 24 62  1  0  0  0
 24 63  1  0  0  0
 25 64  1  0  0  0
 25 65  1  0  0  0
 26 27  2  0  0  0
 26 28  1  0  0  0
 30 31  1  0  0  0
 30 66  1  0  0  0
 30 67  1  0  0  0
 31 32  1  0  0  0
 31 68  1  0  0  0
 31 69  1  0  0  0
 32 33  1  0  0  0
 32 70  1  0  0  0
 32 71  1  0  0  0
 33 34  1  0  0  0
 33 72  1  0  0  0
 33 73  1  0  0  0
 34 35  1  0  0  0
 34 39  2  0  0  0
 35 36  2  0  0  0
 35 74  1  0  0  0
 36 37  1  0  0  0
 36 75  1  0  0  0
 37 38  2  0  0  0
 37 76  1  0  0  0
 38 39  1  0  0  0
 38 77  1  0  0  0
 39 78  1  0  0  0
M  CHG  3   9   1  28  -1  29  -1
M  END
>  <Activity>
9.31

>  <set>
1

>  <Min_dist>
999.9

>  <Avg_dist>
999.9

$$$$
SQ29852_2Q
  Cerius2 12110214443D 1   1.00000                          
 
 72 74  0  0  0  0  0  0  0  0999 V2000
   -1.5770    0.0553    0.2154 P   0  0  0  0  0  0
   -1.2919    1.1554    1.2620 O   0  0  0  0  0  0
   -0.5405    0.1972   -1.0084 O   0  0  0  0  0  0
    0.7702    0.0473   -0.4590 C   0  0  0  0  0  0
    1.4634   -1.1497   -1.1130 C   0  0  0  0  0  0
    0.6505   -2.4181   -0.8464 C   0  0  0  0  0  0
    1.3437   -3.6150   -1.5004 C   0  0  0  0  0  0
    0.5307   -4.8835   -1.2337 C   0  0  0  0  0  0
    1.1963   -6.0327   -1.8617 N   0  3  0  0  0  0
    0.6602   -6.8692   -1.6858 H   0  0  0  0  0  0
    1.2641   -5.8796   -2.8567 H   0  0  0  0  0  0
    2.1217   -6.1386   -1.4738 H   0  0  0  0  0  0
    1.5709    1.2966   -0.7217 C   0  0  0  0  0  0
    1.0687    2.2241   -1.3203 O   0  0  0  0  0  0
    2.8452    1.3833   -0.2913 N   0  0  0  0  0  0
    3.7361    2.5377   -0.4784 C   0  0  0  0  0  0
    5.0787    2.1952    0.2012 C   0  0  0  0  0  0
    4.6812    1.0959    1.2215 C   0  0  0  0  0  0
    3.5744    0.3386    0.4506 C   0  0  0  0  0  0
    5.8483    0.1915    1.5231 C   0  0  0  0  0  0
    6.3222    0.0828    2.8171 C   0  0  0  0  0  0
    7.3927   -0.7468    3.0938 C   0  0  0  0  0  0
    7.9891   -1.4681    2.0765 C   0  0  0  0  0  0
    7.5146   -1.3602    0.7826 C   0  0  0  0  0  0
    6.4413   -0.5339    0.5067 C   0  0  0  0  0  0
    3.9542    2.7838   -1.9491 C   0  0  0  0  0  0
    3.3705    2.0483   -2.8120 O   0  0  0  0  0  0
    4.7224    3.7275   -2.3306 O   0  5  0  0  0  0
   -1.4128   -1.3341    0.8709 O   0  5  0  0  0  0
   -3.2808    0.2359   -0.4073 C   0  0  0  0  0  0
   -4.2658    0.1010    0.7556 C   0  0  0  0  0  0
   -5.6958    0.2525    0.2330 C   0  0  0  0  0  0
   -6.6808    0.1177    1.3960 C   0  0  0  0  0  0
   -8.0892    0.2669    0.8812 C   0  0  0  0  0  0
   -8.7926   -0.8459    0.4595 C   0  0  0  0  0  0
  -10.0845   -0.7089   -0.0127 C   0  0  0  0  0  0
  -10.6733    0.5408   -0.0628 C   0  0  0  0  0  0
   -9.9703    1.6535    0.3597 C   0  0  0  0  0  0
   -8.6799    1.5159    0.8360 C   0  0  0  0  0  0
    0.6969   -0.1181    0.6159 H   0  0  0  0  0  0
    1.5367   -0.9843   -2.1879 H   0  0  0  0  0  0
    2.4631   -1.2641   -0.6940 H   0  0  0  0  0  0
    0.5772   -2.5834    0.2285 H   0  0  0  0  0  0
   -0.3493   -2.3037   -1.2654 H   0  0  0  0  0  0
    1.4170   -3.4497   -2.5753 H   0  0  0  0  0  0
    2.3434   -3.7294   -1.0814 H   0  0  0  0  0  0
    0.4574   -5.0488   -0.1588 H   0  0  0  0  0  0
   -0.4690   -4.7691   -1.6527 H   0  0  0  0  0  0
    3.3001    3.4217   -0.0131 H   0  0  0  0  0  0
    5.7911    1.8065   -0.5265 H   0  0  0  0  0  0
    5.4855    3.0674    0.7129 H   0  0  0  0  0  0
    4.2841    1.5368    2.1359 H   0  0  0  0  0  0
    2.9087   -0.1719    1.1466 H   0  0  0  0  0  0
    4.0166   -0.3746   -0.2450 H   0  0  0  0  0  0
    5.8562    0.6464    3.6119 H   0  0  0  0  0  0
    7.7634   -0.8311    4.1047 H   0  0  0  0  0  0
    8.8260   -2.1157    2.2925 H   0  0  0  0  0  0
    7.9808   -1.9235   -0.0122 H   0  0  0  0  0  0
    6.0706   -0.4495   -0.5042 H   0  0  0  0  0  0
   -3.3966    1.2161   -0.8698 H   0  0  0  0  0  0
   -3.4819   -0.5403   -1.1457 H   0  0  0  0  0  0
   -4.1499   -0.8792    1.2181 H   0  0  0  0  0  0
   -4.0646    0.8771    1.4940 H   0  0  0  0  0  0
   -5.8116    1.2328   -0.2294 H   0  0  0  0  0  0
   -5.8969   -0.5236   -0.5054 H   0  0  0  0  0  0
   -6.5649   -0.8626    1.8584 H   0  0  0  0  0  0
   -6.4796    0.8938    2.1344 H   0  0  0  0  0  0
   -8.3326   -1.8222    0.4987 H   0  0  0  0  0  0
  -10.6338   -1.5783   -0.3428 H   0  0  0  0  0  0
  -11.6824    0.6478   -0.4324 H   0  0  0  0  0  0
  -10.4301    2.6299    0.3202 H   0  0  0  0  0  0
   -8.1306    2.3853    1.1661 H   0  0  0  0  0  0
  1  2  2  0  0  0
  1  3  1  0  0  0
  1 29  1  0  0  0
  1 30  1  0  0  0
  3  4  1  0  0  0
  4  5  1  0  0  0
  4 13  1  0  0  0
  4 40  1  0  0  0
  5  6  1  0  0  0
  5 41  1  0  0  0
  5 42  1  0  0  0
  6  7  1  0  0  0
  6 43  1  0  0  0
  6 44  1  0  0  0
  7  8  1  0  0  0
  7 45  1  0  0  0
  7 46  1  0  0  0
  8  9  1  0  0  0
  8 47  1  0  0  0
  8 48  1  0  0  0
  9 10  1  0  0  0
  9 11  1  0  0  0
  9 12  1  0  0  0
 13 14  2  0  0  0
 13 15  1  0  0  0
 15 16  1  0  0  0
 15 19  1  0  0  0
 16 17  1  0  0  0
 16 26  1  0  0  0
 16 49  1  0  0  0
 17 18  1  0  0  0
 17 50  1  0  0  0
 17 51  1  0  0  0
 18 19  1  0  0  0
 18 20  1  0  0  0
 18 52  1  0  0  0
 19 53  1  0  0  0
 19 54  1  0  0  0
 20 21  1  0  0  0
 20 25  2  0  0  0
 21 22  2  0  0  0
 21 55  1  0  0  0
 22 23  1  0  0  0
 22 56  1  0  0  0
 23 24  2  0  0  0
 23 57  1  0  0  0
 24 25  1  0  0  0
 24 58  1  0  0  0
 25 59  1  0  0  0
 26 27  2  0  0  0
 26 28  1  0  0  0
 30 31  1  0  0  0
 30 60  1  0  0  0
 30 61  1  0  0  0
 31 32  1  0  0  0
 31 62  1  0  0  0
 31 63  1  0  0  0
 32 33  1  0  0  0
 32 64  1  0  0  0
 32 65  1  0  0  0
 33 34  1  0  0  0
 33 66  1  0  0  0
 33 67  1  0  0  0
 34 35  1  0  0  0
 34 39  2  0  0  0
 35 36  2  0  0  0
 35 68  1  0  0  0
 36 37  1  0  0  0
 36 69  1  0  0  0
 37 38  2  0  0  0
 37 70  1  0  0  0
 38 39  1  0  0  0
 38 71  1  0  0  0
 39 72  1  0  0  0
M  CHG  3   9   1  28  -1  29  -1
M  END
>  <Activity>
9.88

>  <set>
1

>  <Min_dist>
999.9

>  <Avg_dist>
999.9

$$$$
SQ29852_2R
  Cerius2 12110214443D 1   1.00000                          
 
 75 77  0  0  0  0  0  0  0  0999 V2000
   -1.4659    0.1692    0.0676 P   0  0  0  0  0  0
   -1.1662    0.8398    1.4268 O   0  0  0  0  0  0
   -0.4910    0.7801   -1.0587 O   0  0  0  0  0  0
    0.8472    0.5034   -0.6408 C   0  0  0  0  0  0
    1.5452   -0.3533   -1.6990 C   0  0  0  0  0  0
    0.7834   -1.6686   -1.8740 C   0  0  0  0  0  0
    1.4813   -2.5253   -2.9322 C   0  0  0  0  0  0
    0.7195   -3.8405   -3.1073 C   0  0  0  0  0  0
    1.3896   -4.6631   -4.1233 N   0  3  0  0  0  0
    0.8872   -5.5305   -4.2387 H   0  0  0  0  0  0
    1.4074   -4.1654   -5.0008 H   0  0  0  0  0  0
    2.3345   -4.8584   -3.8282 H   0  0  0  0  0  0
    1.5976    1.7989   -0.4684 C   0  0  0  0  0  0
    1.0412    2.8551   -0.6824 O   0  0  0  0  0  0
    2.8871    1.7838   -0.0765 N   0  0  0  0  0  0
    3.7338    2.9678    0.1299 C   0  0  0  0  0  0
    5.1156    2.4666    0.6001 C   0  0  0  0  0  0
    4.7980    1.0613    1.1760 C   0  0  0  0  0  0
    3.6801    0.5775    0.2224 C   0  0  0  0  0  0
    6.0224    0.1472    1.0980 C   0  0  0  0  0  0
    5.6763   -1.2055    1.6651 C   0  0  0  0  0  0
    5.1740   -2.1934    0.8389 C   0  0  0  0  0  0
    4.8565   -3.4342    1.3590 C   0  0  0  0  0  0
    5.0417   -3.6872    2.7054 C   0  0  0  0  0  0
    5.5448   -2.6996    3.5314 C   0  0  0  0  0  0
    5.8664   -1.4602    3.0104 C   0  0  0  0  0  0
    3.8771    3.7272   -1.1638 C   0  0  0  0  0  0
    3.2768    3.3194   -2.2125 O   0  0  0  0  0  0
    4.5987    4.7777   -1.2100 O   0  5  0  0  0  0
   -1.2307   -1.3535    0.1815 O   0  5  0  0  0  0
   -3.2010    0.4831   -0.3954 C   0  0  0  0  0  0
   -4.1274   -0.0973    0.6750 C   0  0  0  0  0  0
   -5.5836    0.1661    0.2864 C   0  0  0  0  0  0
   -6.5101   -0.4144    1.3567 C   0  0  0  0  0  0
   -7.9444   -0.1549    0.9740 C   0  0  0  0  0  0
   -8.6328   -1.0766    0.2076 C   0  0  0  0  0  0
   -9.9485   -0.8385   -0.1435 C   0  0  0  0  0  0
  -10.5758    0.3210    0.2722 C   0  0  0  0  0  0
   -9.8877    1.2423    1.0394 C   0  0  0  0  0  0
   -8.5734    1.0022    1.3941 C   0  0  0  0  0  0
    0.8280   -0.0343    0.3071 H   0  0  0  0  0  0
    1.5644    0.1844   -2.6470 H   0  0  0  0  0  0
    2.5660   -0.5643   -1.3802 H   0  0  0  0  0  0
    0.7642   -2.2062   -0.9261 H   0  0  0  0  0  0
   -0.2374   -1.4575   -2.1928 H   0  0  0  0  0  0
    1.5005   -1.9876   -3.8802 H   0  0  0  0  0  0
    2.5021   -2.7363   -2.6135 H   0  0  0  0  0  0
    0.7003   -4.3782   -2.1593 H   0  0  0  0  0  0
   -0.3013   -3.6295   -3.4260 H   0  0  0  0  0  0
    3.2933    3.6102    0.8924 H   0  0  0  0  0  0
    5.8053    2.3920   -0.2406 H   0  0  0  0  0  0
    5.5192    3.1186    1.3747 H   0  0  0  0  0  0
    4.4301    1.1325    2.1995 H   0  0  0  0  0  0
    3.0624   -0.1748    0.7128 H   0  0  0  0  0  0
    4.1112    0.1765   -0.6949 H   0  0  0  0  0  0
    6.3283    0.0375    0.0576 H   0  0  0  0  0  0
    6.8391    0.5839    1.6728 H   0  0  0  0  0  0
    5.0293   -1.9958   -0.2130 H   0  0  0  0  0  0
    4.4634   -4.2058    0.7137 H   0  0  0  0  0  0
    4.7930   -4.6563    3.1119 H   0  0  0  0  0  0
    5.6892   -2.8971    4.5833 H   0  0  0  0  0  0
    6.2595   -0.6886    3.6558 H   0  0  0  0  0  0
   -3.3669    1.5574   -0.4758 H   0  0  0  0  0  0
   -3.4124    0.0101   -1.3543 H   0  0  0  0  0  0
   -3.9615   -1.1716    0.7553 H   0  0  0  0  0  0
   -3.9160    0.3757    1.6339 H   0  0  0  0  0  0
   -5.7496    1.2404    0.2060 H   0  0  0  0  0  0
   -5.7951   -0.3070   -0.6726 H   0  0  0  0  0  0
   -6.3441   -1.4887    1.4371 H   0  0  0  0  0  0
   -6.2986    0.0587    2.3157 H   0  0  0  0  0  0
   -8.1427   -1.9825   -0.1172 H   0  0  0  0  0  0
  -10.4861   -1.5583   -0.7429 H   0  0  0  0  0  0
  -11.6035    0.5073   -0.0027 H   0  0  0  0  0  0
  -10.3777    2.1483    1.3639 H   0  0  0  0  0  0
   -8.0357    1.7220    1.9935 H   0  0  0  0  0  0
  1  2  2  0  0  0
  1  3  1  0  0  0
  1 30  1  0  0  0
  1 31  1  0  0  0
  3  4  1  0  0  0
  4  5  1  0  0  0
  4 13  1  0  0  0
  4 41  1  0  0  0
  5  6  1  0  0  0
  5 42  1  0  0  0
  5 43  1  0  0  0
  6  7  1  0  0  0
  6 44  1  0  0  0
  6 45  1  0  0  0
  7  8  1  0  0  0
  7 46  1  0  0  0
  7 47  1  0  0  0
  8  9  1  0  0  0
  8 48  1  0  0  0
  8 49  1  0  0  0
  9 10  1  0  0  0
  9 11  1  0  0  0
  9 12  1  0  0  0
 13 14  2  0  0  0
 13 15  1  0  0  0
 15 16  1  0  0  0
 15 19  1  0  0  0
 16 17  1  0  0  0
 16 27  1  0  0  0
 16 50  1  0  0  0
 17 18  1  0  0  0
 17 51  1  0  0  0
 17 52  1  0  0  0
 18 19  1  0  0  0
 18 20  1  0  0  0
 18 53  1  0  0  0
 19 54  1  0  0  0
 19 55  1  0  0  0
 20 21  1  0  0  0
 20 56  1  0  0  0
 20 57  1  0  0  0
 21 22  1  0  0  0
 21 26  2  0  0  0
 22 23  2  0  0  0
 22 58  1  0  0  0
 23 24  1  0  0  0
 23 59  1  0  0  0
 24 25  2  0  0  0
 24 60  1  0  0  0
 25 26  1  0  0  0
 25 61  1  0  0  0
 26 62  1  0  0  0
 27 28  2  0  0  0
 27 29  1  0  0  0
 31 32  1  0  0  0
 31 63  1  0  0  0
 31 64  1  0  0  0
 32 33  1  0  0  0
 32 65  1  0  0  0
 32 66  1  0  0  0
 33 34  1  0  0  0
 33 67  1  0  0  0
 33 68  1  0  0  0
 34 35  1  0  0  0
 34 69  1  0  0  0
 34 70  1  0  0  0
 35 36  1  0  0  0
 35 40  2  0  0  0
 36 37  2  0  0  0
 36 71  1  0  0  0
 37 38  1  0  0  0
 37 72  1  0  0  0
 38 39  2  0  0  0
 38 73  1  0  0  0
 39 40  1  0  0  0
 39 74  1  0  0  0
 40 75  1  0  0  0
M  CHG  3   9   1  29  -1  30  -1
M  END
>  <Activity>
9.05

>  <set>
1

>  <Min_dist>
999.9

>  <Avg_dist>
999.9

$$$$
SQ29852_2T
  Cerius2 12110214443D 1   1.00000                          
 
 73 75  0  0  0  0  0  0  0  0999 V2000
    5.6340   -0.5726    1.0490 S   0  0  0  0  0  0
    4.3218    0.4633    0.3448 C   0  0  0  0  0  0
    3.0765   -0.3855   -0.0136 C   0  0  0  0  0  0
    2.3924    0.3772   -1.0737 N   0  0  0  0  0  0
    3.3768    1.2384   -1.7451 C   0  0  0  0  0  0
    4.7341    1.0141   -1.0458 C   0  0  0  0  0  0
    3.4811    0.8598   -3.2000 C   0  0  0  0  0  0
    4.2489    1.4605   -3.9329 O   0  0  0  0  0  0
    2.7977   -0.0473   -3.6447 O   0  5  0  0  0  0
    1.0817    0.2976   -1.3775 C   0  0  0  0  0  0
    0.6248    0.9746   -2.2741 O   0  0  0  0  0  0
    0.1839   -0.6327   -0.6032 C   0  0  0  0  0  0
   -1.1493   -0.5385   -1.1088 O   0  0  0  0  0  0
   -2.0775   -0.0532    0.1140 P   0  0  0  0  0  0
   -1.9979   -1.0843    1.2618 O   0  0  0  0  0  0
   -1.5848    1.3207    0.6208 O   0  5  0  0  0  0
   -3.8037    0.0919   -0.4539 C   0  0  0  0  0  0
   -4.6858    0.5531    0.7081 C   0  0  0  0  0  0
   -6.1345    0.6749    0.2315 C   0  0  0  0  0  0
   -7.0166    1.1361    1.3935 C   0  0  0  0  0  0
   -8.4436    1.2561    0.9241 C   0  0  0  0  0  0
   -9.2941    0.1699    1.0130 C   0  0  0  0  0  0
  -10.6030    0.2800    0.5823 C   0  0  0  0  0  0
  -11.0616    1.4763    0.0633 C   0  0  0  0  0  0
  -10.2114    2.5627   -0.0247 C   0  0  0  0  0  0
   -8.9037    2.4539    0.4099 C   0  0  0  0  0  0
    0.6864   -2.0699   -0.7546 C   0  0  0  0  0  0
   -0.2251   -3.0143    0.0316 C   0  0  0  0  0  0
    0.2774   -4.4515   -0.1198 C   0  0  0  0  0  0
   -0.6342   -5.3960    0.6663 C   0  0  0  0  0  0
   -0.1517   -6.7758    0.5209 N   0  3  0  0  0  0
   -0.7528   -7.3987    1.0394 H   0  0  0  0  0  0
   -0.1606   -7.0343   -0.4544 H   0  0  0  0  0  0
    0.7897   -6.8424    0.8780 H   0  0  0  0  0  0
    6.7850    0.6735    1.5254 C   0  0  0  0  0  0
    8.0359    0.3161    2.0143 C   0  0  0  0  0  0
    8.9353    1.2953    2.3868 C   0  0  0  0  0  0
    8.5925    2.6305    2.2742 C   0  0  0  0  0  0
    7.3484    2.9899    1.7885 C   0  0  0  0  0  0
    6.4463    2.0162    1.4079 C   0  0  0  0  0  0
    4.0596    1.2739    1.0247 H   0  0  0  0  0  0
    3.3789   -1.3644   -0.3855 H   0  0  0  0  0  0
    2.4276   -0.4928    0.8555 H   0  0  0  0  0  0
    3.0800    2.2830   -1.6521 H   0  0  0  0  0  0
    5.2751    1.9549   -0.9431 H   0  0  0  0  0  0
    5.3315    0.2819   -1.5891 H   0  0  0  0  0  0
    0.1935   -0.3535    0.4504 H   0  0  0  0  0  0
   -3.8599    0.8194   -1.2636 H   0  0  0  0  0  0
   -4.1513   -0.8773   -0.8114 H   0  0  0  0  0  0
   -4.6296   -0.1744    1.5179 H   0  0  0  0  0  0
   -4.3382    1.5224    1.0657 H   0  0  0  0  0  0
   -6.1907    1.4024   -0.5782 H   0  0  0  0  0  0
   -6.4821   -0.2943   -0.1260 H   0  0  0  0  0  0
   -6.9604    0.4086    2.2033 H   0  0  0  0  0  0
   -6.6690    2.1053    1.7511 H   0  0  0  0  0  0
   -8.9358   -0.7647    1.4185 H   0  0  0  0  0  0
  -11.2673   -0.5688    0.6511 H   0  0  0  0  0  0
  -12.0841    1.5620   -0.2738 H   0  0  0  0  0  0
  -10.5696    3.4972   -0.4306 H   0  0  0  0  0  0
   -8.2394    3.3027    0.3411 H   0  0  0  0  0  0
    0.6768   -2.3490   -1.8082 H   0  0  0  0  0  0
    1.7033   -2.1417   -0.3689 H   0  0  0  0  0  0
   -0.2155   -2.7352    1.0852 H   0  0  0  0  0  0
   -1.2421   -2.9425   -0.3541 H   0  0  0  0  0  0
    0.2678   -4.7307   -1.1734 H   0  0  0  0  0  0
    1.2943   -4.5234    0.2658 H   0  0  0  0  0  0
   -0.6246   -5.1168    1.7199 H   0  0  0  0  0  0
   -1.6511   -5.3241    0.2807 H   0  0  0  0  0  0
    8.3040   -0.7263    2.1032 H   0  0  0  0  0  0
    9.9075    1.0183    2.7668 H   0  0  0  0  0  0
    9.2979    3.3942    2.5666 H   0  0  0  0  0  0
    7.0840    4.0335    1.7023 H   0  0  0  0  0  0
    5.4750    2.2976    1.0287 H   0  0  0  0  0  0
  1  2  1  0  0  0
  1 35  1  0  0  0
  2  3  1  0  0  0
  2  6  1  0  0  0
  2 41  1  0  0  0
  3  4  1  0  0  0
  3 42  1  0  0  0
  3 43  1  0  0  0
  4  5  1  0  0  0
  4 10  1  0  0  0
  5  6  1  0  0  0
  5  7  1  0  0  0
  5 44  1  0  0  0
  6 45  1  0  0  0
  6 46  1  0  0  0
  7  8  2  0  0  0
  7  9  1  0  0  0
 10 11  2  0  0  0
 10 12  1  0  0  0
 12 13  1  0  0  0
 12 27  1  0  0  0
 12 47  1  0  0  0
 13 14  1  0  0  0
 14 15  2  0  0  0
 14 16  1  0  0  0
 14 17  1  0  0  0
 17 18  1  0  0  0
 17 48  1  0  0  0
 17 49  1  0  0  0
 18 19  1  0  0  0
 18 50  1  0  0  0
 18 51  1  0  0  0
 19 20  1  0  0  0
 19 52  1  0  0  0
 19 53  1  0  0  0
 20 21  1  0  0  0
 20 54  1  0  0  0
 20 55  1  0  0  0
 21 22  1  0  0  0
 21 26  2  0  0  0
 22 23  2  0  0  0
 22 56  1  0  0  0
 23 24  1  0  0  0
 23 57  1  0  0  0
 24 25  2  0  0  0
 24 58  1  0  0  0
 25 26  1  0  0  0
 25 59  1  0  0  0
 26 60  1  0  0  0
 27 28  1  0  0  0
 27 61  1  0  0  0
 27 62  1  0  0  0
 28 29  1  0  0  0
 28 63  1  0  0  0
 28 64  1  0  0  0
 29 30  1  0  0  0
 29 65  1  0  0  0
 29 66  1  0  0  0
 30 31  1  0  0  0
 30 67  1  0  0  0
 30 68  1  0  0  0
 31 32  1  0  0  0
 31 33  1  0  0  0
 31 34  1  0  0  0
 35 36  1  0  0  0
 35 40  2  0  0  0
 36 37  2  0  0  0
 36 69  1  0  0  0
 37 38  1  0  0  0
 37 70  1  0  0  0
 38 39  2  0  0  0
 38 71  1  0  0  0
 39 40  1  0  0  0
 39 72  1  0  0  0
 40 73  1  0  0  0
M  CHG  3   9  -1  16  -1  31   1
M  END
>  <Activity>
9.28

>  <set>
1

>  <Min_dist>
999.9

>  <Avg_dist>
999.9

$$$$
SQ29852_2U
  Cerius2 12110214443D 1   1.00000                          
 
 66 67  0  0  0  0  0  0  0  0999 V2000
    7.2085   -2.2747    0.2130 S   0  0  0  0  0  0
    5.5157   -1.8249   -0.2590 C   0  0  0  0  0  0
    4.6446   -1.5506    0.9923 C   0  0  0  0  0  0
    3.5780   -0.6495    0.5195 N   0  0  0  0  0  0
    4.0568    0.0620   -0.6747 C   0  0  0  0  0  0
    5.4841   -0.4456   -0.9689 C   0  0  0  0  0  0
    3.1553   -0.2365   -1.8449 C   0  0  0  0  0  0
    3.3953    0.2847   -2.9838 O   0  0  0  0  0  0
    2.1525   -1.0101   -1.6963 O   0  5  0  0  0  0
    2.3645   -0.5028    1.0874 C   0  0  0  0  0  0
    2.0334   -1.2233    2.0051 O   0  0  0  0  0  0
    1.4192    0.5565    0.5822 C   0  0  0  0  0  0
    0.1372    0.3790    1.1879 O   0  0  0  0  0  0
   -0.9115    0.1274   -0.0076 P   0  0  0  0  0  0
   -0.9164    1.3486   -0.9539 O   0  0  0  0  0  0
   -0.4987   -1.1346   -0.7976 O   0  5  0  0  0  0
   -2.5800   -0.1095    0.6875 C   0  0  0  0  0  0
   -3.5765   -0.3487   -0.4485 C   0  0  0  0  0  0
   -4.9769   -0.5475    0.1349 C   0  0  0  0  0  0
   -5.9734   -0.7867   -1.0012 C   0  0  0  0  0  0
   -7.3527   -0.9825   -0.4265 C   0  0  0  0  0  0
   -8.1836    0.1060   -0.2372 C   0  0  0  0  0  0
   -9.4488   -0.0737    0.2900 C   0  0  0  0  0  0
   -9.8833   -1.3418    0.6273 C   0  0  0  0  0  0
   -9.0528   -2.4304    0.4371 C   0  0  0  0  0  0
   -7.7893   -2.2513   -0.0941 C   0  0  0  0  0  0
    1.9653    1.9402    0.9403 C   0  0  0  0  0  0
    1.0776    3.0169    0.3130 C   0  0  0  0  0  0
    1.6237    4.4005    0.6711 C   0  0  0  0  0  0
    0.7360    5.4772    0.0437 C   0  0  0  0  0  0
    1.2603    6.8057    0.3876 N   0  3  0  0  0  0
    0.6748    7.5157   -0.0261 H   0  0  0  0  0  0
    1.2651    6.9161    1.3905 H   0  0  0  0  0  0
    2.2010    6.8977    0.0346 H   0  0  0  0  0  0
    6.8800   -3.7852    1.1623 C   0  0  0  0  0  0
    5.0685   -2.5973   -0.8846 H   0  0  0  0  0  0
    4.2171   -2.4802    1.3681 H   0  0  0  0  0  0
    5.2366   -1.0638    1.7673 H   0  0  0  0  0  0
    4.0769    1.1349   -0.4838 H   0  0  0  0  0  0
    6.2282    0.2258   -0.5403 H   0  0  0  0  0  0
    5.6392   -0.5605   -2.0417 H   0  0  0  0  0  0
    1.3244    0.4724   -0.5004 H   0  0  0  0  0  0
   -2.5765   -0.9711    1.3552 H   0  0  0  0  0  0
   -2.8712    0.7808    1.2449 H   0  0  0  0  0  0
   -3.5800    0.5129   -1.1161 H   0  0  0  0  0  0
   -3.2853   -1.2390   -1.0058 H   0  0  0  0  0  0
   -4.9734   -1.4091    0.8025 H   0  0  0  0  0  0
   -5.2681    0.3428    0.6922 H   0  0  0  0  0  0
   -5.9769    0.0750   -1.6688 H   0  0  0  0  0  0
   -5.6822   -1.6770   -1.5585 H   0  0  0  0  0  0
   -7.8440    1.0968   -0.5007 H   0  0  0  0  0  0
  -10.0976    0.7768    0.4386 H   0  0  0  0  0  0
  -10.8715   -1.4821    1.0398 H   0  0  0  0  0  0
   -9.3922   -3.4212    0.7009 H   0  0  0  0  0  0
   -7.1404   -3.1018   -0.2427 H   0  0  0  0  0  0
    1.9705    2.0594    2.0238 H   0  0  0  0  0  0
    2.9816    2.0396    0.5590 H   0  0  0  0  0  0
    1.0724    2.8976   -0.7705 H   0  0  0  0  0  0
    0.0613    2.9175    0.6943 H   0  0  0  0  0  0
    1.6289    4.5198    1.7545 H   0  0  0  0  0  0
    2.6399    4.4999    0.2898 H   0  0  0  0  0  0
    0.7308    5.3579   -1.0397 H   0  0  0  0  0  0
   -0.2803    5.3778    0.4251 H   0  0  0  0  0  0
    7.8208   -4.1956    1.5291 H   0  0  0  0  0  0
    6.2323   -3.5499    2.0069 H   0  0  0  0  0  0
    6.3894   -4.5177    0.5213 H   0  0  0  0  0  0
  1  2  1  0  0  0
  1 35  1  0  0  0
  2  3  1  0  0  0
  2  6  1  0  0  0
  2 36  1  0  0  0
  3  4  1  0  0  0
  3 37  1  0  0  0
  3 38  1  0  0  0
  4  5  1  0  0  0
  4 10  1  0  0  0
  5  6  1  0  0  0
  5  7  1  0  0  0
  5 39  1  0  0  0
  6 40  1  0  0  0
  6 41  1  0  0  0
  7  8  2  0  0  0
  7  9  1  0  0  0
 10 11  2  0  0  0
 10 12  1  0  0  0
 12 13  1  0  0  0
 12 27  1  0  0  0
 12 42  1  0  0  0
 13 14  1  0  0  0
 14 15  2  0  0  0
 14 16  1  0  0  0
 14 17  1  0  0  0
 17 18  1  0  0  0
 17 43  1  0  0  0
 17 44  1  0  0  0
 18 19  1  0  0  0
 18 45  1  0  0  0
 18 46  1  0  0  0
 19 20  1  0  0  0
 19 47  1  0  0  0
 19 48  1  0  0  0
 20 21  1  0  0  0
 20 49  1  0  0  0
 20 50  1  0  0  0
 21 22  1  0  0  0
 21 26  2  0  0  0
 22 23  2  0  0  0
 22 51  1  0  0  0
 23 24  1  0  0  0
 23 52  1  0  0  0
 24 25  2  0  0  0
 24 53  1  0  0  0
 25 26  1  0  0  0
 25 54  1  0  0  0
 26 55  1  0  0  0
 27 28  1  0  0  0
 27 56  1  0  0  0
 27 57  1  0  0  0
 28 29  1  0  0  0
 28 58  1  0  0  0
 28 59  1  0  0  0
 29 30  1  0  0  0
 29 60  1  0  0  0
 29 61  1  0  0  0
 30 31  1  0  0  0
 30 62  1  0  0  0
 30 63  1  0  0  0
 31 32  1  0  0  0
 31 33  1  0  0  0
 31 34  1  0  0  0
 35 64  1  0  0  0
 35 65  1  0  0  0
 35 66  1  0  0  0
M  CHG  3   9  -1  16  -1  31   1
M  END
>  <Activity>
9.28

>  <set>
1

>  <Min_dist>
999.9

>  <Avg_dist>
999.9

$$$$
SQ29852_2V
  Cerius2 12110214443D 1   1.00000                          
 
 66 67  0  0  0  0  0  0  0  0999 V2000
    6.5438    0.1887   -1.9690 S   0  0  0  0  0  0
    5.1895   -0.9267   -1.5080 C   0  0  0  0  0  0
    4.0949   -0.1720   -0.7130 C   0  0  0  0  0  0
    3.4278   -1.2121    0.0912 N   0  0  0  0  0  0
    4.3609   -2.3324    0.2805 C   0  0  0  0  0  0
    5.6628   -1.9758   -0.4675 C   0  0  0  0  0  0
    4.6476   -2.5181    1.7483 C   0  0  0  0  0  0
    5.4038   -3.4021    2.1149 O   0  0  0  0  0  0
    4.1234   -1.7845    2.5696 O   0  5  0  0  0  0
    2.1711   -1.1465    0.5735 C   0  0  0  0  0  0
    1.7233   -2.0654    1.2263 O   0  0  0  0  0  0
    1.3221    0.0685    0.3017 C   0  0  0  0  0  0
    0.0413   -0.0989    0.9128 O   0  0  0  0  0  0
   -1.0504   -0.0324   -0.2687 P   0  0  0  0  0  0
   -0.9568    1.3359   -0.9800 O   0  0  0  0  0  0
   -0.7767   -1.1619   -1.2868 O   0  5  0  0  0  0
   -2.7197   -0.2391    0.4340 C   0  0  0  0  0  0
   -3.7571   -0.1759   -0.6888 C   0  0  0  0  0  0
   -5.1582   -0.3494   -0.0991 C   0  0  0  0  0  0
   -6.1956   -0.2863   -1.2219 C   0  0  0  0  0  0
   -7.5756   -0.4571   -0.6410 C   0  0  0  0  0  0
   -8.2940    0.6498   -0.2290 C   0  0  0  0  0  0
   -9.5598    0.4930    0.3039 C   0  0  0  0  0  0
  -10.1075   -0.7705    0.4244 C   0  0  0  0  0  0
   -9.3895   -1.8772    0.0115 C   0  0  0  0  0  0
   -8.1253   -1.7201   -0.5254 C   0  0  0  0  0  0
    2.0057    1.3084    0.8815 C   0  0  0  0  0  0
    1.1438    2.5421    0.6055 C   0  0  0  0  0  0
    1.8274    3.7820    1.1853 C   0  0  0  0  0  0
    0.9655    5.0156    0.9093 C   0  0  0  0  0  0
    1.6218    6.2060    1.4660 N   0  3  0  0  0  0
    1.0534    7.0196    1.2840 H   0  0  0  0  0  0
    1.7367    6.0920    2.4620 H   0  0  0  0  0  0
    2.5262    6.3242    1.0345 H   0  0  0  0  0  0
    5.6390    1.3716   -3.0047 C   0  0  0  0  0  0
    4.7685   -1.4115   -2.3888 H   0  0  0  0  0  0
    4.5467    0.5779   -0.0637 H   0  0  0  0  0  0
    3.3840    0.2942   -1.3951 H   0  0  0  0  0  0
    3.9333   -3.2452   -0.1342 H   0  0  0  0  0  0
    6.0746   -2.8538   -0.9651 H   0  0  0  0  0  0
    6.3927   -1.5401    0.2148 H   0  0  0  0  0  0
    1.1980    0.1917   -0.7742 H   0  0  0  0  0  0
   -2.7858   -1.2044    0.9358 H   0  0  0  0  0  0
   -2.9128    0.5577    1.1522 H   0  0  0  0  0  0
   -3.6911    0.7894   -1.1907 H   0  0  0  0  0  0
   -3.5641   -0.9728   -1.4071 H   0  0  0  0  0  0
   -5.2242   -1.3148    0.4027 H   0  0  0  0  0  0
   -5.3513    0.4474    0.6192 H   0  0  0  0  0  0
   -6.1296    0.6791   -1.7237 H   0  0  0  0  0  0
   -6.0025   -1.0831   -1.9402 H   0  0  0  0  0  0
   -7.8661    1.6369   -0.3231 H   0  0  0  0  0  0
  -10.1208    1.3577    0.6264 H   0  0  0  0  0  0
  -11.0962   -0.8930    0.8413 H   0  0  0  0  0  0
   -9.8172   -2.8644    0.1059 H   0  0  0  0  0  0
   -7.5644   -2.5848   -0.8479 H   0  0  0  0  0  0
    2.1298    1.1852    1.9574 H   0  0  0  0  0  0
    2.9827    1.4361    0.4153 H   0  0  0  0  0  0
    1.0197    2.6653   -0.4704 H   0  0  0  0  0  0
    0.1668    2.4144    1.0717 H   0  0  0  0  0  0
    1.9515    3.6587    2.2612 H   0  0  0  0  0  0
    2.8044    3.9096    0.7192 H   0  0  0  0  0  0
    0.8414    5.1388   -0.1666 H   0  0  0  0  0  0
   -0.0115    4.8879    1.3755 H   0  0  0  0  0  0
    6.3272    2.1320   -3.3738 H   0  0  0  0  0  0
    5.1905    0.8471   -3.8484 H   0  0  0  0  0  0
    4.8555    1.8466   -2.4141 H   0  0  0  0  0  0
  1  2  1  0  0  0
  1 35  1  0  0  0
  2  3  1  0  0  0
  2  6  1  0  0  0
  2 36  1  0  0  0
  3  4  1  0  0  0
  3 37  1  0  0  0
  3 38  1  0  0  0
  4  5  1  0  0  0
  4 10  1  0  0  0
  5  6  1  0  0  0
  5  7  1  0  0  0
  5 39  1  0  0  0
  6 40  1  0  0  0
  6 41  1  0  0  0
  7  8  2  0  0  0
  7  9  1  0  0  0
 10 11  2  0  0  0
 10 12  1  0  0  0
 12 13  1  0  0  0
 12 27  1  0  0  0
 12 42  1  0  0  0
 13 14  1  0  0  0
 14 15  2  0  0  0
 14 16  1  0  0  0
 14 17  1  0  0  0
 17 18  1  0  0  0
 17 43  1  0  0  0
 17 44  1  0  0  0
 18 19  1  0  0  0
 18 45  1  0  0  0
 18 46  1  0  0  0
 19 20  1  0  0  0
 19 47  1  0  0  0
 19 48  1  0  0  0
 20 21  1  0  0  0
 20 49  1  0  0  0
 20 50  1  0  0  0
 21 22  1  0  0  0
 21 26  2  0  0  0
 22 23  2  0  0  0
 22 51  1  0  0  0
 23 24  1  0  0  0
 23 52  1  0  0  0
 24 25  2  0  0  0
 24 53  1  0  0  0
 25 26  1  0  0  0
 25 54  1  0  0  0
 26 55  1  0  0  0
 27 28  1  0  0  0
 27 56  1  0  0  0
 27 57  1  0  0  0
 28 29  1  0  0  0
 28 58  1  0  0  0
 28 59  1  0  0  0
 29 30  1  0  0  0
 29 60  1  0  0  0
 29 61  1  0  0  0
 30 31  1  0  0  0
 30 62  1  0  0  0
 30 63  1  0  0  0
 31 32  1  0  0  0
 31 33  1  0  0  0
 31 34  1  0  0  0
 35 64  1  0  0  0
 35 65  1  0  0  0
 35 66  1  0  0  0
M  CHG  3   9  -1  16  -1  31   1
M  END
>  <Activity>
8.72

>  <set>
1

>  <Min_dist>
999.9

>  <Avg_dist>
999.9

$$$$
SQ29852_2W
  Cerius2 12110214443D 1   1.00000                          
 
 70 71  0  0  0  0  0  0  0  0999 V2000
   -4.2691    1.8752   -2.0876 S   0  0  0  0  0  0
   -4.8470    0.7402   -0.7960 C   0  0  0  0  0  0
   -3.6766   -0.1061   -0.2361 C   0  0  0  0  0  0
   -3.0060    0.7747    0.7376 N   0  0  0  0  0  0
   -3.9715    1.7786    1.2082 C   0  0  0  0  0  0
   -5.3001    1.5194    0.4670 C   0  0  0  0  0  0
   -4.1772    1.6347    2.6942 C   0  0  0  0  0  0
   -3.5552    0.7905    3.3170 O   0  0  0  0  0  0
   -4.9658    2.3625    3.2740 O   0  5  0  0  0  0
   -1.7210    0.6755    1.1317 C   0  0  0  0  0  0
   -1.2733    1.4582    1.9427 O   0  0  0  0  0  0
   -0.8404   -0.4080    0.5644 C   0  0  0  0  0  0
    0.4667   -0.3057    1.1328 O   0  0  0  0  0  0
    1.4874   -0.0632   -0.0885 P   0  0  0  0  0  0
    1.4079   -1.2534   -1.0703 O   0  0  0  0  0  0
    1.1069    1.2396   -0.8267 O   0  5  0  0  0  0
    3.1859    0.0787    0.5583 C   0  0  0  0  0  0
    4.1559    0.3092   -0.6023 C   0  0  0  0  0  0
    5.5815    0.4283   -0.0595 C   0  0  0  0  0  0
    6.5515    0.6588   -1.2200 C   0  0  0  0  0  0
    7.9556    0.7761   -0.6854 C   0  0  0  0  0  0
    8.7424   -0.3531   -0.5558 C   0  0  0  0  0  0
   10.0303   -0.2455   -0.0654 C   0  0  0  0  0  0
   10.5316    0.9913    0.2950 C   0  0  0  0  0  0
    9.7451    2.1206    0.1646 C   0  0  0  0  0  0
    8.4587    2.0136   -0.3300 C   0  0  0  0  0  0
   -1.4364   -1.7769    0.8991 C   0  0  0  0  0  0
   -0.5423   -2.8769    0.3232 C   0  0  0  0  0  0
   -1.1383   -4.2458    0.6578 C   0  0  0  0  0  0
   -0.2443   -5.3458    0.0820 C   0  0  0  0  0  0
   -0.8164   -6.6601    0.4033 N   0  3  0  0  0  0
   -0.2268   -7.3855    0.0235 H   0  0  0  0  0  0
   -0.8761   -6.7651    1.4050 H   0  0  0  0  0  0
   -1.7394   -6.7323    0.0020 H   0  0  0  0  0  0
   -6.1788   -0.3229   -1.4178 S   0  0  0  0  0  0
   -5.3435   -1.0736   -2.8423 C   0  0  0  0  0  0
   -5.8478    2.6183   -2.5835 C   0  0  0  0  0  0
   -4.0573   -0.9991    0.2595 H   0  0  0  0  0  0
   -2.9892   -0.3794   -1.0366 H   0  0  0  0  0  0
   -3.6075    2.7797    0.9775 H   0  0  0  0  0  0
   -5.7768    2.4596    0.1897 H   0  0  0  0  0  0
   -5.9692    0.9114    1.0759 H   0  0  0  0  0  0
   -0.7760   -0.2945   -0.5177 H   0  0  0  0  0  0
    3.2420    0.9185    1.2509 H   0  0  0  0  0  0
    3.4544   -0.8404    1.0791 H   0  0  0  0  0  0
    4.0999   -0.5305   -1.2949 H   0  0  0  0  0  0
    3.8875    1.2284   -1.1231 H   0  0  0  0  0  0
    5.6375    1.2681    0.6332 H   0  0  0  0  0  0
    5.8499   -0.4908    0.4613 H   0  0  0  0  0  0
    6.4954   -0.1809   -1.9127 H   0  0  0  0  0  0
    6.2830    1.5780   -1.7409 H   0  0  0  0  0  0
    8.3507   -1.3194   -0.8374 H   0  0  0  0  0  0
   10.6448   -1.1278    0.0365 H   0  0  0  0  0  0
   11.5376    1.0753    0.6789 H   0  0  0  0  0  0
   10.1366    3.0869    0.4464 H   0  0  0  0  0  0
    7.8442    2.8959   -0.4319 H   0  0  0  0  0  0
   -1.5008   -1.8904    1.9812 H   0  0  0  0  0  0
   -2.4334   -1.8549    0.4656 H   0  0  0  0  0  0
   -0.4779   -2.7634   -0.7589 H   0  0  0  0  0  0
    0.4547   -2.7989    0.7567 H   0  0  0  0  0  0
   -1.2027   -4.3593    1.7400 H   0  0  0  0  0  0
   -2.1353   -4.3238    0.2243 H   0  0  0  0  0  0
   -0.1798   -5.2322   -1.0002 H   0  0  0  0  0  0
    0.7528   -5.2677    0.5155 H   0  0  0  0  0  0
   -5.9936   -1.8253   -3.2900 H   0  0  0  0  0  0
   -5.1183   -0.3027   -3.5792 H   0  0  0  0  0  0
   -4.4167   -1.5439   -2.5136 H   0  0  0  0  0  0
   -5.6849    3.2881   -3.4279 H   0  0  0  0  0  0
   -6.5446    1.8317   -2.8730 H   0  0  0  0  0  0
   -6.2627    3.1817   -1.7477 H   0  0  0  0  0  0
  1  2  1  0  0  0
  1 37  1  0  0  0
  2  3  1  0  0  0
  2  6  1  0  0  0
  2 35  1  0  0  0
  3  4  1  0  0  0
  3 38  1  0  0  0
  3 39  1  0  0  0
  4  5  1  0  0  0
  4 10  1  0  0  0
  5  6  1  0  0  0
  5  7  1  0  0  0
  5 40  1  0  0  0
  6 41  1  0  0  0
  6 42  1  0  0  0
  7  8  2  0  0  0
  7  9  1  0  0  0
 10 11  2  0  0  0
 10 12  1  0  0  0
 12 13  1  0  0  0
 12 27  1  0  0  0
 12 43  1  0  0  0
 13 14  1  0  0  0
 14 15  2  0  0  0
 14 16  1  0  0  0
 14 17  1  0  0  0
 17 18  1  0  0  0
 17 44  1  0  0  0
 17 45  1  0  0  0
 18 19  1  0  0  0
 18 46  1  0  0  0
 18 47  1  0  0  0
 19 20  1  0  0  0
 19 48  1  0  0  0
 19 49  1  0  0  0
 20 21  1  0  0  0
 20 50  1  0  0  0
 20 51  1  0  0  0
 21 22  1  0  0  0
 21 26  2  0  0  0
 22 23  2  0  0  0
 22 52  1  0  0  0
 23 24  1  0  0  0
 23 53  1  0  0  0
 24 25  2  0  0  0
 24 54  1  0  0  0
 25 26  1  0  0  0
 25 55  1  0  0  0
 26 56  1  0  0  0
 27 28  1  0  0  0
 27 57  1  0  0  0
 27 58  1  0  0  0
 28 29  1  0  0  0
 28 59  1  0  0  0
 28 60  1  0  0  0
 29 30  1  0  0  0
 29 61  1  0  0  0
 29 62  1  0  0  0
 30 31  1  0  0  0
 30 63  1  0  0  0
 30 64  1  0  0  0
 31 32  1  0  0  0
 31 33  1  0  0  0
 31 34  1  0  0  0
 35 36  1  0  0  0
 36 65  1  0  0  0
 36 66  1  0  0  0
 36 67  1  0  0  0
 37 68  1  0  0  0
 37 69  1  0  0  0
 37 70  1  0  0  0
M  CHG  3   9  -1  16  -1  31   1
M  END
>  <Activity>
8.59

>  <set>
1

>  <Min_dist>
999.9

>  <Avg_dist>
999.9

$$$$
SQ29852_2Y
  Cerius2 12110214443D 1   1.00000                          
 
 63 64  0  0  0  0  0  0  0  0999 V2000
   -0.6024    0.0207   -0.3852 P   0  0  0  0  0  0
   -0.3398   -1.2027   -1.2914 O   0  0  0  0  0  0
    0.5477    0.1136    0.7375 O   0  0  0  0  0  0
    1.7903    0.2524    0.0455 C   0  0  0  0  0  0
    2.4577    1.5670    0.4544 C   0  0  0  0  0  0
    1.5405    2.7379    0.0956 C   0  0  0  0  0  0
    2.2080    4.0525    0.5045 C   0  0  0  0  0  0
    1.2908    5.2234    0.1457 C   0  0  0  0  0  0
    1.9317    6.4856    0.5383 N   0  3  0  0  0  0
    1.3268    7.2577    0.3016 H   0  0  0  0  0  0
    2.0994    6.4824    1.5332 H   0  0  0  0  0  0
    2.8090    6.5835    0.0496 H   0  0  0  0  0  0
    2.6937   -0.9008    0.3989 C   0  0  0  0  0  0
    2.3111   -1.7573    1.1677 O   0  0  0  0  0  0
    3.9267   -0.9805   -0.1394 N   0  0  0  0  0  0
    4.9065   -2.0461    0.1174 C   0  0  0  0  0  0
    6.1560   -1.7342   -0.7329 C   0  0  0  0  0  0
    5.5949   -0.8176   -1.8520 C   0  0  0  0  0  0
    4.5139   -0.0169   -1.0882 C   0  0  0  0  0  0
    5.0080   -1.5904   -2.9009 O   0  0  0  0  0  0
    5.2728   -2.0641    1.5791 C   0  0  0  0  0  0
    6.1134   -2.9182    2.0153 O   0  0  0  0  0  0
    4.7421   -1.2254    2.3799 O   0  5  0  0  0  0
   -0.5920    1.3071   -1.2409 O   0  5  0  0  0  0
   -2.2269   -0.1588    0.4224 C   0  0  0  0  0  0
   -3.3199   -0.2471   -0.6446 C   0  0  0  0  0  0
   -4.6833   -0.3977    0.0332 C   0  0  0  0  0  0
   -5.7763   -0.4861   -1.0338 C   0  0  0  0  0  0
   -7.1192   -0.6344   -0.3662 C   0  0  0  0  0  0
   -7.8547    0.4884   -0.0360 C   0  0  0  0  0  0
   -9.0865    0.3523    0.5765 C   0  0  0  0  0  0
   -9.5829   -0.9067    0.8583 C   0  0  0  0  0  0
   -8.8478   -2.0295    0.5273 C   0  0  0  0  0  0
   -7.6179   -1.8935   -0.0891 C   0  0  0  0  0  0
    1.6091    0.2559   -1.0294 H   0  0  0  0  0  0
    2.6389    1.5636    1.5292 H   0  0  0  0  0  0
    3.4055    1.6729   -0.0735 H   0  0  0  0  0  0
    1.3593    2.7414   -0.9793 H   0  0  0  0  0  0
    0.5928    2.6320    0.6234 H   0  0  0  0  0  0
    2.3892    4.0490    1.5793 H   0  0  0  0  0  0
    3.1557    4.1584   -0.0234 H   0  0  0  0  0  0
    1.1096    5.2268   -0.9292 H   0  0  0  0  0  0
    0.3431    5.1175    0.6735 H   0  0  0  0  0  0
    4.4906   -3.0104   -0.1746 H   0  0  0  0  0  0
    6.9036   -1.2064   -0.1408 H   0  0  0  0  0  0
    6.5726   -2.6483   -1.1559 H   0  0  0  0  0  0
    6.3699   -0.1576   -2.2417 H   0  0  0  0  0  0
    3.7552    0.3507   -1.7790 H   0  0  0  0  0  0
    4.9683    0.8123   -0.5460 H   0  0  0  0  0  0
    4.6805   -0.9635   -3.5604 H   0  0  0  0  0  0
   -2.2342   -1.0663    1.0260 H   0  0  0  0  0  0
   -2.4121    0.7044    1.0617 H   0  0  0  0  0  0
   -3.3125    0.6604   -1.2483 H   0  0  0  0  0  0
   -3.1346   -1.1102   -1.2839 H   0  0  0  0  0  0
   -4.6906   -1.3053    0.6369 H   0  0  0  0  0  0
   -4.8685    0.4654    0.6725 H   0  0  0  0  0  0
   -5.7689    0.4215   -1.6374 H   0  0  0  0  0  0
   -5.5910   -1.3492   -1.6731 H   0  0  0  0  0  0
   -7.4669    1.4720   -0.2562 H   0  0  0  0  0  0
   -9.6609    1.2296    0.8351 H   0  0  0  0  0  0
  -10.5450   -1.0130    1.3374 H   0  0  0  0  0  0
   -9.2355   -3.0131    0.7478 H   0  0  0  0  0  0
   -7.0436   -2.7708   -0.3477 H   0  0  0  0  0  0
  1  2  2  0  0  0
  1  3  1  0  0  0
  1 24  1  0  0  0
  1 25  1  0  0  0
  3  4  1  0  0  0
  4  5  1  0  0  0
  4 13  1  0  0  0
  4 35  1  0  0  0
  5  6  1  0  0  0
  5 36  1  0  0  0
  5 37  1  0  0  0
  6  7  1  0  0  0
  6 38  1  0  0  0
  6 39  1  0  0  0
  7  8  1  0  0  0
  7 40  1  0  0  0
  7 41  1  0  0  0
  8  9  1  0  0  0
  8 42  1  0  0  0
  8 43  1  0  0  0
  9 10  1  0  0  0
  9 11  1  0  0  0
  9 12  1  0  0  0
 13 14  2  0  0  0
 13 15  1  0  0  0
 15 16  1  0  0  0
 15 19  1  0  0  0
 16 17  1  0  0  0
 16 21  1  0  0  0
 16 44  1  0  0  0
 17 18  1  0  0  0
 17 45  1  0  0  0
 17 46  1  0  0  0
 18 19  1  0  0  0
 18 20  1  0  0  0
 18 47  1  0  0  0
 19 48  1  0  0  0
 19 49  1  0  0  0
 20 50  1  0  0  0
 21 22  2  0  0  0
 21 23  1  0  0  0
 25 26  1  0  0  0
 25 51  1  0  0  0
 25 52  1  0  0  0
 26 27  1  0  0  0
 26 53  1  0  0  0
 26 54  1  0  0  0
 27 28  1  0  0  0
 27 55  1  0  0  0
 27 56  1  0  0  0
 28 29  1  0  0  0
 28 57  1  0  0  0
 28 58  1  0  0  0
 29 30  1  0  0  0
 29 34  2  0  0  0
 30 31  2  0  0  0
 30 59  1  0  0  0
 31 32  1  0  0  0
 31 60  1  0  0  0
 32 33  2  0  0  0
 32 61  1  0  0  0
 33 34  1  0  0  0
 33 62  1  0  0  0
 34 63  1  0  0  0
M  CHG  3   9   1  23  -1  24  -1
M  END
>  <Activity>
9.06

>  <set>
1

>  <Min_dist>
999.9

>  <Avg_dist>
999.9

$$$$
SQ29852_2Z
  Cerius2 12110214443D 1   1.00000                          
 
 63 64  0  0  0  0  0  0  0  0999 V2000
   -0.6584   -0.0075   -0.4049 P   0  0  0  0  0  0
   -0.4126   -1.1893   -1.3694 O   0  0  0  0  0  0
    0.4903    0.0125    0.7230 O   0  0  0  0  0  0
    1.7365    0.1655    0.0407 C   0  0  0  0  0  0
    2.4233    1.4480    0.5145 C   0  0  0  0  0  0
    1.5252    2.6491    0.2117 C   0  0  0  0  0  0
    2.2120    3.9316    0.6854 C   0  0  0  0  0  0
    1.3140    5.1328    0.3826 C   0  0  0  0  0  0
    1.9734    6.3642    0.8375 N   0  3  0  0  0  0
    1.3812    7.1563    0.6378 H   0  0  0  0  0  0
    2.1385    6.3098    1.8314 H   0  0  0  0  0  0
    2.8533    6.4722    0.3557 H   0  0  0  0  0  0
    2.6210   -1.0176    0.3390 C   0  0  0  0  0  0
    2.2233   -1.9045    1.0644 O   0  0  0  0  0  0
    3.8540   -1.0902   -0.2004 N   0  0  0  0  0  0
    4.8166   -2.1822    0.0057 C   0  0  0  0  0  0
    6.0728   -1.8488   -0.8262 C   0  0  0  0  0  0
    5.5288   -0.8699   -1.9001 C   0  0  0  0  0  0
    4.4584   -0.0908   -1.1000 C   0  0  0  0  0  0
    6.5594    0.0032   -2.3665 O   0  0  0  0  0  0
    5.1789   -2.2773    1.4654 C   0  0  0  0  0  0
    5.9690   -3.1259    1.8436 O   0  0  0  0  0  0
    4.6819   -1.5056    2.2686 O   0  5  0  0  0  0
   -0.6259    1.3187   -1.1967 O   0  5  0  0  0  0
   -2.2875   -0.2008    0.3901 C   0  0  0  0  0  0
   -3.3791   -0.2199   -0.6818 C   0  0  0  0  0  0
   -4.7463   -0.3821   -0.0145 C   0  0  0  0  0  0
   -5.8379   -0.4012   -1.0864 C   0  0  0  0  0  0
   -7.1846   -0.5610   -0.4292 C   0  0  0  0  0  0
   -7.9034    0.5558   -0.0458 C   0  0  0  0  0  0
   -9.1387    0.4092    0.5571 C   0  0  0  0  0  0
   -9.6553   -0.8541    0.7763 C   0  0  0  0  0  0
   -8.9368   -1.9708    0.3921 C   0  0  0  0  0  0
   -7.7035   -1.8242   -0.2147 C   0  0  0  0  0  0
    1.5581    0.2242   -1.0330 H   0  0  0  0  0  0
    2.6017    1.3893    1.5882 H   0  0  0  0  0  0
    3.3738    1.5647   -0.0060 H   0  0  0  0  0  0
    1.3468    2.7079   -0.8620 H   0  0  0  0  0  0
    0.5747    2.5325    0.7321 H   0  0  0  0  0  0
    2.3904    3.8729    1.7591 H   0  0  0  0  0  0
    3.1626    4.0483    0.1650 H   0  0  0  0  0  0
    1.1356    5.1915   -0.6911 H   0  0  0  0  0  0
    0.3634    5.0161    0.9031 H   0  0  0  0  0  0
    4.3865   -3.1245   -0.3338 H   0  0  0  0  0  0
    6.8270   -1.3622   -0.2077 H   0  0  0  0  0  0
    6.4763   -2.7475   -1.2926 H   0  0  0  0  0  0
    5.0740   -1.4126   -2.7289 H   0  0  0  0  0  0
    3.7073    0.3220   -1.7734 H   0  0  0  0  0  0
    4.9243    0.7039   -0.5172 H   0  0  0  0  0  0
    6.1569    0.5824   -3.0280 H   0  0  0  0  0  0
   -2.3104   -1.1365    0.9487 H   0  0  0  0  0  0
   -2.4609    0.6329    1.0705 H   0  0  0  0  0  0
   -3.3561    0.7158   -1.2404 H   0  0  0  0  0  0
   -3.2056   -1.0536   -1.3622 H   0  0  0  0  0  0
   -4.7692   -1.3178    0.5441 H   0  0  0  0  0  0
   -4.9197    0.4516    0.6659 H   0  0  0  0  0  0
   -5.8149    0.5345   -1.6450 H   0  0  0  0  0  0
   -5.6644   -1.2349   -1.7668 H   0  0  0  0  0  0
   -7.4998    1.5428   -0.2170 H   0  0  0  0  0  0
   -9.7000    1.2817    0.8573 H   0  0  0  0  0  0
  -10.6201   -0.9686    1.2480 H   0  0  0  0  0  0
   -9.3403   -2.9579    0.5636 H   0  0  0  0  0  0
   -7.1422   -2.6966   -0.5149 H   0  0  0  0  0  0
  1  2  2  0  0  0
  1  3  1  0  0  0
  1 24  1  0  0  0
  1 25  1  0  0  0
  3  4  1  0  0  0
  4  5  1  0  0  0
  4 13  1  0  0  0
  4 35  1  0  0  0
  5  6  1  0  0  0
  5 36  1  0  0  0
  5 37  1  0  0  0
  6  7  1  0  0  0
  6 38  1  0  0  0
  6 39  1  0  0  0
  7  8  1  0  0  0
  7 40  1  0  0  0
  7 41  1  0  0  0
  8  9  1  0  0  0
  8 42  1  0  0  0
  8 43  1  0  0  0
  9 10  1  0  0  0
  9 11  1  0  0  0
  9 12  1  0  0  0
 13 14  2  0  0  0
 13 15  1  0  0  0
 15 16  1  0  0  0
 15 19  1  0  0  0
 16 17  1  0  0  0
 16 21  1  0  0  0
 16 44  1  0  0  0
 17 18  1  0  0  0
 17 45  1  0  0  0
 17 46  1  0  0  0
 18 19  1  0  0  0
 18 20  1  0  0  0
 18 47  1  0  0  0
 19 48  1  0  0  0
 19 49  1  0  0  0
 20 50  1  0  0  0
 21 22  2  0  0  0
 21 23  1  0  0  0
 25 26  1  0  0  0
 25 51  1  0  0  0
 25 52  1  0  0  0
 26 27  1  0  0  0
 26 53  1  0  0  0
 26 54  1  0  0  0
 27 28  1  0  0  0
 27 55  1  0  0  0
 27 56  1  0  0  0
 28 29  1  0  0  0
 28 57  1  0  0  0
 28 58  1  0  0  0
 29 30  1  0  0  0
 29 34  2  0  0  0
 30 31  2  0  0  0
 30 59  1  0  0  0
 31 32  1  0  0  0
 31 60  1  0  0  0
 32 33  2  0  0  0
 32 61  1  0  0  0
 33 34  1  0  0  0
 33 62  1  0  0  0
 34 63  1  0  0  0
M  CHG  3   9   1  23  -1  24  -1
M  END
>  <Activity>
7.8

>  <set>
1

>  <Min_dist>
999.9

>  <Avg_dist>
999.9

$$$$
SQ29852_2X
  Cerius2 12110214443D 1   1.00000                          
 
 68 70  0  0  0  0  0  0  0  0999 V2000
    5.0765   -1.6721   -2.1827 S   0  0  0  0  0  0
    4.9168   -0.6566   -0.6809 C   0  0  0  0  0  0
    6.1069    0.6971   -0.9614 S   0  0  0  0  0  0
    6.3001    0.6803   -2.7895 C   0  0  0  0  0  0
    6.3556   -0.8197   -3.1789 C   0  0  0  0  0  0
    3.4988   -0.1412   -0.4771 C   0  0  0  0  0  0
    2.8884   -0.9892    0.5650 N   0  0  0  0  0  0
    3.8575   -2.0332    0.9524 C   0  0  0  0  0  0
    5.2494   -1.4502    0.5851 C   0  0  0  0  0  0
    3.7760   -2.2990    2.4335 C   0  0  0  0  0  0
    3.3579   -1.4350    3.1861 O   0  0  0  0  0  0
    4.1281   -3.3781    2.8797 O   0  5  0  0  0  0
    1.6518   -0.8356    1.0785 C   0  0  0  0  0  0
    1.2337   -1.6245    1.8993 O   0  0  0  0  0  0
    0.7886    0.3164    0.6326 C   0  0  0  0  0  0
   -0.5265    0.1621    1.1700 O   0  0  0  0  0  0
   -1.5340    0.0757   -0.0829 P   0  0  0  0  0  0
   -1.4310    1.3722   -0.9169 O   0  0  0  0  0  0
   -1.1564   -1.1354   -0.9648 O   0  5  0  0  0  0
   -3.2418   -0.1229    0.5233 C   0  0  0  0  0  0
   -4.1992   -0.2051   -0.6673 C   0  0  0  0  0  0
   -5.6325   -0.3718   -0.1586 C   0  0  0  0  0  0
   -6.5899   -0.4539   -1.3492 C   0  0  0  0  0  0
   -8.0016   -0.6181   -0.8482 C   0  0  0  0  0  0
   -8.7795    0.4964   -0.5957 C   0  0  0  0  0  0
  -10.0744    0.3458   -0.1360 C   0  0  0  0  0  0
  -10.5917   -0.9193    0.0707 C   0  0  0  0  0  0
   -9.8142   -2.0339   -0.1827 C   0  0  0  0  0  0
   -8.5207   -1.8833   -0.6465 C   0  0  0  0  0  0
    1.3930    1.6300    1.1327 C   0  0  0  0  0  0
    0.5970    2.8066    0.5643 C   0  0  0  0  0  0
    1.2014    4.1202    1.0644 C   0  0  0  0  0  0
    0.4055    5.2968    0.4961 C   0  0  0  0  0  0
    0.9858    6.5580    0.9762 N   0  3  0  0  0  0
    0.4609    7.3340    0.6014 H   0  0  0  0  0  0
    0.9492    6.5829    1.9842 H   0  0  0  0  0  0
    1.9459    6.6236    0.6728 H   0  0  0  0  0  0
    5.4459    1.1629   -3.2644 H   0  0  0  0  0  0
    7.2254    1.1799   -3.0765 H   0  0  0  0  0  0
    7.3399   -1.2281   -2.9498 H   0  0  0  0  0  0
    6.1407   -0.9373   -4.2410 H   0  0  0  0  0  0
    3.5228    0.8973   -0.1468 H   0  0  0  0  0  0
    2.9338   -0.2254   -1.4054 H   0  0  0  0  0  0
    3.6711   -2.9492    0.3919 H   0  0  0  0  0  0
    5.9635   -2.2457    0.3724 H   0  0  0  0  0  0
    5.6196   -0.7941    1.3728 H   0  0  0  0  0  0
    0.7367    0.3315   -0.4561 H   0  0  0  0  0  0
   -3.3144   -1.0376    1.1117 H   0  0  0  0  0  0
   -3.5082    0.7315    1.1454 H   0  0  0  0  0  0
   -4.1266    0.7096   -1.2558 H   0  0  0  0  0  0
   -3.9328   -1.0595   -1.2895 H   0  0  0  0  0  0
   -5.7051   -1.2864    0.4298 H   0  0  0  0  0  0
   -5.8989    0.4826    0.4635 H   0  0  0  0  0  0
   -6.5173    0.4607   -1.9377 H   0  0  0  0  0  0
   -6.3235   -1.3083   -1.9714 H   0  0  0  0  0  0
   -8.3753    1.4848   -0.7572 H   0  0  0  0  0  0
  -10.6819    1.2166    0.0619 H   0  0  0  0  0  0
  -11.6032   -1.0370    0.4304 H   0  0  0  0  0  0
  -10.2183   -3.0223   -0.0209 H   0  0  0  0  0  0
   -7.9133   -2.7541   -0.8444 H   0  0  0  0  0  0
    1.3534    1.6568    2.2216 H   0  0  0  0  0  0
    2.4301    1.7008    0.8049 H   0  0  0  0  0  0
    0.6366    2.7798   -0.5246 H   0  0  0  0  0  0
   -0.4401    2.7358    0.8921 H   0  0  0  0  0  0
    1.1619    4.1470    2.1534 H   0  0  0  0  0  0
    2.2386    4.1910    0.7366 H   0  0  0  0  0  0
    0.4450    5.2700   -0.5929 H   0  0  0  0  0  0
   -0.6316    5.2260    0.8238 H   0  0  0  0  0  0
  1  2  1  0  0  0
  1  5  1  0  0  0
  2  3  1  0  0  0
  2  6  1  0  0  0
  2  9  1  0  0  0
  3  4  1  0  0  0
  4  5  1  0  0  0
  4 38  1  0  0  0
  4 39  1  0  0  0
  5 40  1  0  0  0
  5 41  1  0  0  0
  6  7  1  0  0  0
  6 42  1  0  0  0
  6 43  1  0  0  0
  7  8  1  0  0  0
  7 13  1  0  0  0
  8  9  1  0  0  0
  8 10  1  0  0  0
  8 44  1  0  0  0
  9 45  1  0  0  0
  9 46  1  0  0  0
 10 11  2  0  0  0
 10 12  1  0  0  0
 13 14  2  0  0  0
 13 15  1  0  0  0
 15 16  1  0  0  0
 15 30  1  0  0  0
 15 47  1  0  0  0
 16 17  1  0  0  0
 17 18  2  0  0  0
 17 19  1  0  0  0
 17 20  1  0  0  0
 20 21  1  0  0  0
 20 48  1  0  0  0
 20 49  1  0  0  0
 21 22  1  0  0  0
 21 50  1  0  0  0
 21 51  1  0  0  0
 22 23  1  0  0  0
 22 52  1  0  0  0
 22 53  1  0  0  0
 23 24  1  0  0  0
 23 54  1  0  0  0
 23 55  1  0  0  0
 24 25  1  0  0  0
 24 29  2  0  0  0
 25 26  2  0  0  0
 25 56  1  0  0  0
 26 27  1  0  0  0
 26 57  1  0  0  0
 27 28  2  0  0  0
 27 58  1  0  0  0
 28 29  1  0  0  0
 28 59  1  0  0  0
 29 60  1  0  0  0
 30 31  1  0  0  0
 30 61  1  0  0  0
 30 62  1  0  0  0
 31 32  1  0  0  0
 31 63  1  0  0  0
 31 64  1  0  0  0
 32 33  1  0  0  0
 32 65  1  0  0  0
 32 66  1  0  0  0
 33 34  1  0  0  0
 33 67  1  0  0  0
 33 68  1  0  0  0
 34 35  1  0  0  0
 34 36  1  0  0  0
 34 37  1  0  0  0
M  CHG  3  12  -1  19  -1  34   1
M  END
>  <Activity>
9.2

>  <set>
1

>  <Min_dist>
999.9

>  <Avg_dist>
999.9

$$$$
SQ29852_2E
  Cerius2 12110214443D 1   1.00000                          
 
 65 66  0  0  0  0  0  0  0  0999 V2000
   -0.6436    0.2616   -0.1457 P   0  0  0  0  0  0
   -0.2515   -0.9618   -1.0039 O   0  0  0  0  0  0
    0.4556    0.4808    1.0102 O   0  0  0  0  0  0
    1.7061    0.7010    0.3545 C   0  0  0  0  0  0
    2.2503    2.0771    0.7431 C   0  0  0  0  0  0
    1.3041    3.1637    0.2285 C   0  0  0  0  0  0
    1.8484    4.5398    0.6171 C   0  0  0  0  0  0
    0.9021    5.6264    0.1024 C   0  0  0  0  0  0
    1.4247    6.9476    0.4755 N   0  3  0  0  0  0
    0.8006    7.6642    0.1361 H   0  0  0  0  0  0
    1.4942    7.0104    1.4802 H   0  0  0  0  0  0
    2.3381    7.0758    0.0665 H   0  0  0  0  0  0
    2.6871   -0.3637    0.7731 C   0  0  0  0  0  0
    2.5008   -0.9925    1.7934 O   0  0  0  0  0  0
    3.7713   -0.6171    0.0138 N   0  0  0  0  0  0
    3.9203    0.0330   -1.2906 C   0  0  0  0  0  0
    3.3054   -0.8352   -2.3578 C   0  0  0  0  0  0
    3.4145   -0.5095   -3.5860 O   0  0  0  0  0  0
    2.6761   -1.8957   -2.0329 O   0  5  0  0  0  0
    4.7547   -1.5013    0.4712 C   0  0  0  0  0  0
    5.8132   -1.8531   -0.3560 C   0  0  0  0  0  0
    6.7822   -2.7260    0.0985 C   0  0  0  0  0  0
    6.6991   -3.2497    1.3756 C   0  0  0  0  0  0
    5.6460   -2.9017    2.2015 C   0  0  0  0  0  0
    4.6771   -2.0244    1.7552 C   0  0  0  0  0  0
   -0.7076    1.5194   -1.0407 O   0  5  0  0  0  0
   -2.2752   -0.0271    0.6143 C   0  0  0  0  0  0
   -3.3198   -0.2354   -0.4841 C   0  0  0  0  0  0
   -4.6892   -0.4776    0.1538 C   0  0  0  0  0  0
   -5.7338   -0.6859   -0.9446 C   0  0  0  0  0  0
   -7.0826   -0.9246   -0.3164 C   0  0  0  0  0  0
   -7.9177    0.1433   -0.0457 C   0  0  0  0  0  0
   -9.1549   -0.0756    0.5307 C   0  0  0  0  0  0
   -9.5573   -1.3624    0.8359 C   0  0  0  0  0  0
   -8.7226   -2.4304    0.5644 C   0  0  0  0  0  0
   -7.4871   -2.2118   -0.0160 C   0  0  0  0  0  0
    1.5627    0.6586   -0.7252 H   0  0  0  0  0  0
    2.3254    2.1449    1.8284 H   0  0  0  0  0  0
    3.2371    2.2155    0.3013 H   0  0  0  0  0  0
    1.2290    3.0959   -0.8568 H   0  0  0  0  0  0
    0.3173    3.0252    0.6703 H   0  0  0  0  0  0
    1.9234    4.6076    1.7024 H   0  0  0  0  0  0
    2.8351    4.6783    0.1752 H   0  0  0  0  0  0
    0.8270    5.5586   -0.9829 H   0  0  0  0  0  0
   -0.0847    5.4879    0.5442 H   0  0  0  0  0  0
    3.4171    0.9998   -1.2742 H   0  0  0  0  0  0
    4.9790    0.1781   -1.5054 H   0  0  0  0  0  0
    5.8785   -1.4447   -1.3537 H   0  0  0  0  0  0
    7.6055   -3.0003   -0.5444 H   0  0  0  0  0  0
    7.4581   -3.9321    1.7286 H   0  0  0  0  0  0
    5.5837   -3.3127    3.1984 H   0  0  0  0  0  0
    3.8549   -1.7531    2.4008 H   0  0  0  0  0  0
   -2.2301   -0.9144    1.2458 H   0  0  0  0  0  0
   -2.5519    0.8361    1.2198 H   0  0  0  0  0  0
   -3.3649    0.6520   -1.1155 H   0  0  0  0  0  0
   -3.0432   -1.0985   -1.0896 H   0  0  0  0  0  0
   -4.6441   -1.3650    0.7852 H   0  0  0  0  0  0
   -4.9658    0.3855    0.7593 H   0  0  0  0  0  0
   -5.7789    0.2014   -1.5760 H   0  0  0  0  0  0
   -5.4571   -1.5491   -1.5501 H   0  0  0  0  0  0
   -7.6033    1.1486   -0.2841 H   0  0  0  0  0  0
   -9.8070    0.7587    0.7428 H   0  0  0  0  0  0
  -10.5237   -1.5334    1.2868 H   0  0  0  0  0  0
   -9.0369   -3.4357    0.8031 H   0  0  0  0  0  0
   -6.8350   -3.0462   -0.2281 H   0  0  0  0  0  0
  1  2  2  0  0  0
  1  3  1  0  0  0
  1 26  1  0  0  0
  1 27  1  0  0  0
  3  4  1  0  0  0
  4  5  1  0  0  0
  4 13  1  0  0  0
  4 37  1  0  0  0
  5  6  1  0  0  0
  5 38  1  0  0  0
  5 39  1  0  0  0
  6  7  1  0  0  0
  6 40  1  0  0  0
  6 41  1  0  0  0
  7  8  1  0  0  0
  7 42  1  0  0  0
  7 43  1  0  0  0
  8  9  1  0  0  0
  8 44  1  0  0  0
  8 45  1  0  0  0
  9 10  1  0  0  0
  9 11  1  0  0  0
  9 12  1  0  0  0
 13 14  2  0  0  0
 13 15  1  0  0  0
 15 16  1  0  0  0
 15 20  1  0  0  0
 16 17  1  0  0  0
 16 46  1  0  0  0
 16 47  1  0  0  0
 17 18  2  0  0  0
 17 19  1  0  0  0
 20 21  1  0  0  0
 20 25  2  0  0  0
 21 22  2  0  0  0
 21 48  1  0  0  0
 22 23  1  0  0  0
 22 49  1  0  0  0
 23 24  2  0  0  0
 23 50  1  0  0  0
 24 25  1  0  0  0
 24 51  1  0  0  0
 25 52  1  0  0  0
 27 28  1  0  0  0
 27 53  1  0  0  0
 27 54  1  0  0  0
 28 29  1  0  0  0
 28 55  1  0  0  0
 28 56  1  0  0  0
 29 30  1  0  0  0
 29 57  1  0  0  0
 29 58  1  0  0  0
 30 31  1  0  0  0
 30 59  1  0  0  0
 30 60  1  0  0  0
 31 32  1  0  0  0
 31 36  2  0  0  0
 32 33  2  0  0  0
 32 61  1  0  0  0
 33 34  1  0  0  0
 33 62  1  0  0  0
 34 35  2  0  0  0
 34 63  1  0  0  0
 35 36  1  0  0  0
 35 64  1  0  0  0
 36 65  1  0  0  0
M  CHG  3   9   1  19  -1  26  -1
M  END
>  <Activity>
8.97

>  <set>
1

>  <Min_dist>
999.9

>  <Avg_dist>
999.9

$$$$
SQ29852_2K
  Cerius2 12110214443D 1   1.00000                          
 
 71 72  0  0  0  0  0  0  0  0999 V2000
   -0.6804    0.1069    0.0709 P   0  0  0  0  0  0
   -0.3353   -1.2080   -0.6633 O   0  0  0  0  0  0
    0.3224    0.3062    1.3145 O   0  0  0  0  0  0
    1.6445    0.3586    0.7748 C   0  0  0  0  0  0
    2.2862    1.7023    1.1266 C   0  0  0  0  0  0
    1.4961    2.8335    0.4655 C   0  0  0  0  0  0
    2.1378    4.1771    0.8174 C   0  0  0  0  0  0
    1.3478    5.3083    0.1562 C   0  0  0  0  0  0
    1.9638    6.5983    0.4941 N   0  3  0  0  0  0
    1.4428    7.3443    0.0580 H   0  0  0  0  0  0
    1.9557    6.7230    1.4953 H   0  0  0  0  0  0
    2.9161    6.6138    0.1609 H   0  0  0  0  0  0
    2.4696   -0.7599    1.3571 C   0  0  0  0  0  0
    2.1059   -1.3172    2.3711 O   0  0  0  0  0  0
    3.6116   -1.1409    0.7512 N   0  0  0  0  0  0
    4.1073   -0.3987   -0.4105 C   0  0  0  0  0  0
    5.5586    0.0201   -0.1668 C   0  0  0  0  0  0
    6.0763    0.7952   -1.3800 C   0  0  0  0  0  0
    6.0041   -0.0947   -2.6225 C   0  0  0  0  0  0
    4.5528   -0.5134   -2.8663 C   0  0  0  0  0  0
    4.0351   -1.2886   -1.6530 C   0  0  0  0  0  0
    4.3571   -2.2973    1.2543 C   0  0  0  0  0  0
    3.7727   -3.5612    0.6780 C   0  0  0  0  0  0
    4.2301   -4.6964    1.0364 O   0  0  0  0  0  0
    2.8208   -3.4956   -0.1681 O   0  5  0  0  0  0
   -0.5332    1.2956   -0.9050 O   0  5  0  0  0  0
   -2.3967    0.0301    0.6805 C   0  0  0  0  0  0
   -3.3497   -0.1594   -0.5014 C   0  0  0  0  0  0
   -4.7902   -0.2239    0.0103 C   0  0  0  0  0  0
   -5.7432   -0.4133   -1.1716 C   0  0  0  0  0  0
   -7.1620   -0.4768   -0.6676 C   0  0  0  0  0  0
   -7.9067    0.6820   -0.5512 C   0  0  0  0  0  0
   -9.2081    0.6237   -0.0889 C   0  0  0  0  0  0
   -9.7651   -0.5934    0.2566 C   0  0  0  0  0  0
   -9.0207   -1.7523    0.1393 C   0  0  0  0  0  0
   -7.7207   -1.6946   -0.3272 C   0  0  0  0  0  0
    1.5991    0.2504   -0.3089 H   0  0  0  0  0  0
    2.2774    1.8369    2.2083 H   0  0  0  0  0  0
    3.3149    1.7190    0.7668 H   0  0  0  0  0  0
    1.5049    2.6988   -0.6161 H   0  0  0  0  0  0
    0.4674    2.8168    0.8254 H   0  0  0  0  0  0
    2.1290    4.3117    1.8990 H   0  0  0  0  0  0
    3.1665    4.1938    0.4575 H   0  0  0  0  0  0
    1.3565    5.1736   -0.9254 H   0  0  0  0  0  0
    0.3190    5.2916    0.5161 H   0  0  0  0  0  0
    3.4937    0.4891   -0.5633 H   0  0  0  0  0  0
    5.6100    0.6540    0.7184 H   0  0  0  0  0  0
    6.1722   -0.8678   -0.0140 H   0  0  0  0  0  0
    5.4627    1.6830   -1.5328 H   0  0  0  0  0  0
    7.1102    1.0936   -1.2064 H   0  0  0  0  0  0
    6.3729    0.4576   -3.4869 H   0  0  0  0  0  0
    6.6177   -0.9825   -2.4697 H   0  0  0  0  0  0
    3.9392    0.3744   -3.0191 H   0  0  0  0  0  0
    4.5014   -1.1474   -3.7514 H   0  0  0  0  0  0
    4.6487   -2.1764   -1.5002 H   0  0  0  0  0  0
    3.0012   -1.5869   -1.8266 H   0  0  0  0  0  0
    5.4027   -2.2124    0.9580 H   0  0  0  0  0  0
    4.2890   -2.3285    2.3417 H   0  0  0  0  0  0
   -2.5006   -0.8086    1.3690 H   0  0  0  0  0  0
   -2.6402    0.9577    1.1985 H   0  0  0  0  0  0
   -3.2459    0.6792   -1.1899 H   0  0  0  0  0  0
   -3.1063   -1.0870   -1.0193 H   0  0  0  0  0  0
   -4.8940   -1.0625    0.6988 H   0  0  0  0  0  0
   -5.0337    0.7038    0.5283 H   0  0  0  0  0  0
   -5.6394    0.4253   -1.8601 H   0  0  0  0  0  0
   -5.4998   -1.3410   -1.6896 H   0  0  0  0  0  0
   -7.4715    1.6329   -0.8211 H   0  0  0  0  0  0
   -9.7897    1.5292    0.0028 H   0  0  0  0  0  0
  -10.7816   -0.6388    0.6184 H   0  0  0  0  0  0
   -9.4558   -2.7032    0.4095 H   0  0  0  0  0  0
   -7.1392   -2.6000   -0.4188 H   0  0  0  0  0  0
  1  2  2  0  0  0
  1  3  1  0  0  0
  1 26  1  0  0  0
  1 27  1  0  0  0
  3  4  1  0  0  0
  4  5  1  0  0  0
  4 13  1  0  0  0
  4 37  1  0  0  0
  5  6  1  0  0  0
  5 38  1  0  0  0
  5 39  1  0  0  0
  6  7  1  0  0  0
  6 40  1  0  0  0
  6 41  1  0  0  0
  7  8  1  0  0  0
  7 42  1  0  0  0
  7 43  1  0  0  0
  8  9  1  0  0  0
  8 44  1  0  0  0
  8 45  1  0  0  0
  9 10  1  0  0  0
  9 11  1  0  0  0
  9 12  1  0  0  0
 13 14  2  0  0  0
 13 15  1  0  0  0
 15 16  1  0  0  0
 15 22  1  0  0  0
 16 17  1  0  0  0
 16 21  1  0  0  0
 16 46  1  0  0  0
 17 18  1  0  0  0
 17 47  1  0  0  0
 17 48  1  0  0  0
 18 19  1  0  0  0
 18 49  1  0  0  0
 18 50  1  0  0  0
 19 20  1  0  0  0
 19 51  1  0  0  0
 19 52  1  0  0  0
 20 21  1  0  0  0
 20 53  1  0  0  0
 20 54  1  0  0  0
 21 55  1  0  0  0
 21 56  1  0  0  0
 22 23  1  0  0  0
 22 57  1  0  0  0
 22 58  1  0  0  0
 23 24  2  0  0  0
 23 25  1  0  0  0
 27 28  1  0  0  0
 27 59  1  0  0  0
 27 60  1  0  0  0
 28 29  1  0  0  0
 28 61  1  0  0  0
 28 62  1  0  0  0
 29 30  1  0  0  0
 29 63  1  0  0  0
 29 64  1  0  0  0
 30 31  1  0  0  0
 30 65  1  0  0  0
 30 66  1  0  0  0
 31 32  1  0  0  0
 31 36  2  0  0  0
 32 33  2  0  0  0
 32 67  1  0  0  0
 33 34  1  0  0  0
 33 68  1  0  0  0
 34 35  2  0  0  0
 34 69  1  0  0  0
 35 36  1  0  0  0
 35 70  1  0  0  0
 36 71  1  0  0  0
M  CHG  3   9   1  25  -1  26  -1
M  END
>  <Activity>
9.53

>  <set>
1

>  <Min_dist>
999.9

>  <Avg_dist>
999.9

$$$$
SQ29852_2I
  Cerius2 12110214443D 1   1.00000                          
 
 66 68  0  0  0  0  0  0  0  0999 V2000
   -0.8006    0.1764   -0.0916 P   0  0  0  0  0  0
   -0.4119   -1.0457   -0.9533 O   0  0  0  0  0  0
    0.2811    0.3691    1.0852 O   0  0  0  0  0  0
    1.5462    0.5755    0.4537 C   0  0  0  0  0  0
    2.1043    1.9399    0.8636 C   0  0  0  0  0  0
    1.1593    3.0428    0.3827 C   0  0  0  0  0  0
    1.7174    4.4072    0.7926 C   0  0  0  0  0  0
    0.7724    5.5102    0.3116 C   0  0  0  0  0  0
    1.3082    6.8201    0.7052 N   0  3  0  0  0  0
    0.6850    7.5475    0.3880 H   0  0  0  0  0  0
    1.3901    6.8619    1.7100 H   0  0  0  0  0  0
    2.2176    6.9507    0.2879 H   0  0  0  0  0  0
    2.5033   -0.5075    0.8804 C   0  0  0  0  0  0
    2.2361   -1.2134    1.8298 O   0  0  0  0  0  0
    3.6562   -0.6917    0.2071 N   0  0  0  0  0  0
    4.0336    0.0133   -1.0209 C   0  0  0  0  0  0
    5.4192   -0.5391   -1.3933 C   0  0  0  0  0  0
    5.7302   -1.5483   -0.3110 C   0  0  0  0  0  0
    4.6700   -1.5791    0.5812 C   0  0  0  0  0  0
    4.7296   -2.4442    1.6750 C   0  0  0  0  0  0
    5.8294   -3.2547    1.8614 C   0  0  0  0  0  0
    6.8820   -3.2162    0.9659 C   0  0  0  0  0  0
    6.8321   -2.3587   -0.1177 C   0  0  0  0  0  0
    3.0422   -0.2794   -2.1175 C   0  0  0  0  0  0
    3.1948    0.2426   -3.2710 O   0  0  0  0  0  0
    2.0507   -1.0490   -1.8919 O   0  5  0  0  0  0
   -0.8296    1.4424   -0.9768 O   0  5  0  0  0  0
   -2.4497   -0.0935    0.6369 C   0  0  0  0  0  0
   -3.4776   -0.2767   -0.4815 C   0  0  0  0  0  0
   -4.8617   -0.5032    0.1300 C   0  0  0  0  0  0
   -5.8896   -0.6864   -0.9884 C   0  0  0  0  0  0
   -7.2528   -0.9095   -0.3861 C   0  0  0  0  0  0
   -8.0763    0.1687   -0.1211 C   0  0  0  0  0  0
   -9.3267   -0.0360    0.4314 C   0  0  0  0  0  0
   -9.7540   -1.3189    0.7185 C   0  0  0  0  0  0
   -8.9309   -2.3972    0.4526 C   0  0  0  0  0  0
   -7.6821   -2.1929   -0.1040 C   0  0  0  0  0  0
    1.4214    0.5443   -0.6287 H   0  0  0  0  0  0
    2.1928    1.9850    1.9491 H   0  0  0  0  0  0
    3.0866    2.0809    0.4128 H   0  0  0  0  0  0
    1.0708    2.9977   -0.7028 H   0  0  0  0  0  0
    0.1770    2.9018    0.8334 H   0  0  0  0  0  0
    1.8059    4.4523    1.8780 H   0  0  0  0  0  0
    2.6997    4.5482    0.3418 H   0  0  0  0  0  0
    0.6839    5.4650   -0.7739 H   0  0  0  0  0  0
   -0.2099    5.3691    0.7624 H   0  0  0  0  0  0
    4.0909    1.0864   -0.8384 H   0  0  0  0  0  0
    5.3852   -1.0253   -2.3682 H   0  0  0  0  0  0
    6.1602    0.2604   -1.3918 H   0  0  0  0  0  0
    3.9110   -2.4785    2.3786 H   0  0  0  0  0  0
    5.8688   -3.9217    2.7099 H   0  0  0  0  0  0
    7.7426   -3.8515    1.1144 H   0  0  0  0  0  0
    7.6534   -2.3277   -0.8184 H   0  0  0  0  0  0
   -2.4292   -0.9867    1.2614 H   0  0  0  0  0  0
   -2.7239    0.7686    1.2448 H   0  0  0  0  0  0
   -3.4980    0.6165   -1.1060 H   0  0  0  0  0  0
   -3.2034   -1.1389   -1.0894 H   0  0  0  0  0  0
   -4.8412   -1.3964    0.7545 H   0  0  0  0  0  0
   -5.1359    0.3590    0.7379 H   0  0  0  0  0  0
   -5.9100    0.2068   -1.6129 H   0  0  0  0  0  0
   -5.6153   -1.5486   -1.5963 H   0  0  0  0  0  0
   -7.7425    1.1711   -0.3453 H   0  0  0  0  0  0
   -9.9698    0.8065    0.6392 H   0  0  0  0  0  0
  -10.7307   -1.4788    1.1508 H   0  0  0  0  0  0
   -9.2646   -3.3996    0.6771 H   0  0  0  0  0  0
   -7.0391   -3.0353   -0.3117 H   0  0  0  0  0  0
  1  2  2  0  0  0
  1  3  1  0  0  0
  1 27  1  0  0  0
  1 28  1  0  0  0
  3  4  1  0  0  0
  4  5  1  0  0  0
  4 13  1  0  0  0
  4 38  1  0  0  0
  5  6  1  0  0  0
  5 39  1  0  0  0
  5 40  1  0  0  0
  6  7  1  0  0  0
  6 41  1  0  0  0
  6 42  1  0  0  0
  7  8  1  0  0  0
  7 43  1  0  0  0
  7 44  1  0  0  0
  8  9  1  0  0  0
  8 45  1  0  0  0
  8 46  1  0  0  0
  9 10  1  0  0  0
  9 11  1  0  0  0
  9 12  1  0  0  0
 13 14  2  0  0  0
 13 15  1  0  0  0
 15 16  1  0  0  0
 15 19  1  0  0  0
 16 17  1  0  0  0
 16 24  1  0  0  0
 16 47  1  0  0  0
 17 18  1  0  0  0
 17 48  1  0  0  0
 17 49  1  0  0  0
 18 19  1  0  0  0
 18 23  2  0  0  0
 19 20  2  0  0  0
 20 21  1  0  0  0
 20 50  1  0  0  0
 21 22  2  0  0  0
 21 51  1  0  0  0
 22 23  1  0  0  0
 22 52  1  0  0  0
 23 53  1  0  0  0
 24 25  2  0  0  0
 24 26  1  0  0  0
 28 29  1  0  0  0
 28 54  1  0  0  0
 28 55  1  0  0  0
 29 30  1  0  0  0
 29 56  1  0  0  0
 29 57  1  0  0  0
 30 31  1  0  0  0
 30 58  1  0  0  0
 30 59  1  0  0  0
 31 32  1  0  0  0
 31 60  1  0  0  0
 31 61  1  0  0  0
 32 33  1  0  0  0
 32 37  2  0  0  0
 33 34  2  0  0  0
 33 62  1  0  0  0
 34 35  1  0  0  0
 34 63  1  0  0  0
 35 36  2  0  0  0
 35 64  1  0  0  0
 36 37  1  0  0  0
 36 65  1  0  0  0
 37 66  1  0  0  0
M  CHG  3   9   1  26  -1  27  -1
M  END
>  <Activity>
9.53

>  <set>
1

>  <Min_dist>
999.9

>  <Avg_dist>
999.9

$$$$
THIOL_2
  Cerius2 12110214443D 1   1.00000                          
 
 29 28  0  0  0  0  0  0  0  0999 V2000
    3.9752   -0.8816   -0.6192 S   0  0  0  0  0  0
    2.4772   -0.8192    0.4021 C   0  0  0  0  0  0
    1.9369   -2.2366    0.6019 C   0  0  0  0  0  0
    2.8127   -0.2048    1.7625 C   0  0  0  0  0  0
    1.4346    0.0234   -0.2864 C   0  0  0  0  0  0
    1.6781    0.5318   -1.3602 O   0  0  0  0  0  0
    0.2316    0.2120    0.2913 N   0  0  0  0  0  0
   -0.7819    1.0312   -0.3780 C   0  0  0  0  0  0
   -2.1762    0.5284    0.0017 C   0  0  0  0  0  0
   -2.3290   -0.9299   -0.4354 C   0  0  0  0  0  0
   -3.7023   -1.4251   -0.0614 C   0  0  0  0  0  0
   -4.0445   -2.6228   -0.3347 O   0  0  0  0  0  0
   -4.5222   -0.6465    0.5284 O   0  5  0  0  0  0
   -0.6314    2.4675    0.0525 C   0  0  0  0  0  0
   -0.2003    2.7293    1.1630 O   0  0  0  0  0  0
   -0.9407    3.3682   -0.7095 O   0  5  0  0  0  0
    4.7533   -1.6591    0.1548 H   0  0  0  0  0  0
    1.6979   -2.6744   -0.3673 H   0  0  0  0  0  0
    2.6910   -2.8461    1.0999 H   0  0  0  0  0  0
    1.0368   -2.1992    1.2156 H   0  0  0  0  0  0
    3.1977    0.8050    1.6201 H   0  0  0  0  0  0
    1.9126   -0.1673    2.3762 H   0  0  0  0  0  0
    3.5668   -0.8143    2.2605 H   0  0  0  0  0  0
    0.0369   -0.1946    1.1501 H   0  0  0  0  0  0
   -0.6516    0.9600   -1.4578 H   0  0  0  0  0  0
   -2.3065    0.5996    1.0816 H   0  0  0  0  0  0
   -2.9303    1.1379   -0.4962 H   0  0  0  0  0  0
   -2.1987   -1.0011   -1.5152 H   0  0  0  0  0  0
   -1.5749   -1.5394    0.0626 H   0  0  0  0  0  0
  1  2  1  0  0  0
  1 17  1  0  0  0
  2  3  1  0  0  0
  2  4  1  0  0  0
  2  5  1  0  0  0
  3 18  1  0  0  0
  3 19  1  0  0  0
  3 20  1  0  0  0
  4 21  1  0  0  0
  4 22  1  0  0  0
  4 23  1  0  0  0
  5  6  2  0  0  0
  5  7  1  0  0  0
  7  8  1  0  0  0
  7 24  1  0  0  0
  8  9  1  0  0  0
  8 14  1  0  0  0
  8 25  1  0  0  0
  9 10  1  0  0  0
  9 26  1  0  0  0
  9 27  1  0  0  0
 10 11  1  0  0  0
 10 28  1  0  0  0
 10 29  1  0  0  0
 11 12  2  0  0  0
 11 13  1  0  0  0
 14 15  2  0  0  0
 14 16  1  0  0  0
M  CHG  2  13  -1  16  -1
M  END
>  <Activity>
2.46

>  <set>
1

>  <Min_dist>
999.9

>  <Avg_dist>
999.9

$$$$
THIOL_4
  Cerius2 12110214443D 1   1.00000                          
 
 29 28  0  0  0  0  0  0  0  0999 V2000
    3.9752   -0.8816   -0.6192 S   0  0  0  0  0  0
    2.4772   -0.8192    0.4021 C   0  0  0  0  0  0
    1.9369   -2.2366    0.6019 C   0  0  0  0  0  0
    2.8127   -0.2048    1.7625 C   0  0  0  0  0  0
    1.4346    0.0234   -0.2864 C   0  0  0  0  0  0
    1.6781    0.5318   -1.3602 O   0  0  0  0  0  0
    0.2316    0.2120    0.2913 N   0  0  0  0  0  0
   -0.7819    1.0312   -0.3780 C   0  0  0  0  0  0
   -2.1762    0.5284    0.0017 C   0  0  0  0  0  0
   -2.3290   -0.9299   -0.4354 C   0  0  0  0  0  0
   -3.7023   -1.4251   -0.0614 C   0  0  0  0  0  0
   -4.0445   -2.6228   -0.3347 O   0  0  0  0  0  0
   -4.5222   -0.6465    0.5284 O   0  5  0  0  0  0
   -0.6314    2.4675    0.0525 C   0  0  0  0  0  0
   -0.2003    2.7293    1.1630 O   0  0  0  0  0  0
   -0.9407    3.3682   -0.7095 O   0  5  0  0  0  0
    4.7533   -1.6591    0.1548 H   0  0  0  0  0  0
    1.6979   -2.6744   -0.3673 H   0  0  0  0  0  0
    2.6910   -2.8461    1.0999 H   0  0  0  0  0  0
    1.0368   -2.1992    1.2156 H   0  0  0  0  0  0
    3.1977    0.8050    1.6201 H   0  0  0  0  0  0
    1.9126   -0.1673    2.3762 H   0  0  0  0  0  0
    3.5668   -0.8143    2.2605 H   0  0  0  0  0  0
    0.0369   -0.1946    1.1501 H   0  0  0  0  0  0
   -0.6516    0.9600   -1.4578 H   0  0  0  0  0  0
   -2.3065    0.5996    1.0816 H   0  0  0  0  0  0
   -2.9303    1.1379   -0.4962 H   0  0  0  0  0  0
   -2.1987   -1.0011   -1.5152 H   0  0  0  0  0  0
   -1.5749   -1.5394    0.0626 H   0  0  0  0  0  0
  1  2  1  0  0  0
  1 17  1  0  0  0
  2  3  1  0  0  0
  2  4  1  0  0  0
  2  5  1  0  0  0
  3 18  1  0  0  0
  3 19  1  0  0  0
  3 20  1  0  0  0
  4 21  1  0  0  0
  4 22  1  0  0  0
  4 23  1  0  0  0
  5  6  2  0  0  0
  5  7  1  0  0  0
  7  8  1  0  0  0
  7 24  1  0  0  0
  8  9  1  0  0  0
  8 14  1  0  0  0
  8 25  1  0  0  0
  9 10  1  0  0  0
  9 26  1  0  0  0
  9 27  1  0  0  0
 10 11  1  0  0  0
 10 28  1  0  0  0
 10 29  1  0  0  0
 11 12  2  0  0  0
 11 13  1  0  0  0
 14 15  2  0  0  0
 14 16  1  0  0  0
M  CHG  2  13  -1  16  -1
M  END
>  <Activity>
4.11

>  <set>
1

>  <Min_dist>
999.9

>  <Avg_dist>
999.9

$$$$
THIOL_5
  Cerius2 12110214443D 1   1.00000                          
 
 19 18  0  0  0  0  0  0  0  0999 V2000
    2.0794    2.3720   -0.1315 S   0  0  0  0  0  0
    2.4544    0.6253    0.1831 C   0  0  0  0  0  0
    1.2583   -0.2353   -0.2284 C   0  0  0  0  0  0
    0.0817    0.1594    0.5502 N   0  0  0  0  0  0
   -1.1508    0.0325    0.0200 C   0  0  0  0  0  0
   -1.2860   -0.4085   -1.1017 O   0  0  0  0  0  0
   -2.3611    0.4386    0.8209 C   0  0  0  0  0  0
   -3.8598    0.1495   -0.1594 S   0  0  0  0  0  0
    1.5698   -1.6864    0.0329 C   0  0  0  0  0  0
    1.2965   -2.1840    1.1124 O   0  0  0  0  0  0
    2.0954   -2.3632   -0.8350 O   0  5  0  0  0  0
    3.2263    2.9362    0.2871 H   0  0  0  0  0  0
    3.3298    0.3316   -0.3962 H   0  0  0  0  0  0
    2.6566    0.4826    1.2446 H   0  0  0  0  0  0
    1.0560   -0.0926   -1.2900 H   0  0  0  0  0  0
    0.1899    0.5121    1.4473 H   0  0  0  0  0  0
   -2.4060   -0.1518    1.7360 H   0  0  0  0  0  0
   -2.2910    1.4965    1.0741 H   0  0  0  0  0  0
   -4.7941    0.5655    0.7142 H   0  0  0  0  0  0
  1  2  1  0  0  0
  1 12  1  0  0  0
  2  3  1  0  0  0
  2 13  1  0  0  0
  2 14  1  0  0  0
  3  4  1  0  0  0
  3  9  1  0  0  0
  3 15  1  0  0  0
  4  5  1  0  0  0
  4 16  1  0  0  0
  5  6  2  0  0  0
  5  7  1  0  0  0
  7  8  1  0  0  0
  7 17  1  0  0  0
  7 18  1  0  0  0
  8 19  1  0  0  0
  9 10  2  0  0  0
  9 11  1  0  0  0
M  CHG  1  11  -1
M  END
>  <Activity>
4.72

>  <set>
1

>  <Min_dist>
999.9

>  <Avg_dist>
999.9

$$$$
THIOL_7A
  Cerius2 12110214443D 1   1.00000                          
 
 22 21  0  0  0  0  0  0  0  0999 V2000
    3.6294   -0.5205    0.0419 S   0  0  0  0  0  0
    2.2290    0.4825   -0.5268 C   0  0  0  0  0  0
    2.4896    1.9542   -0.1997 C   0  0  0  0  0  0
    0.9711    0.0286    0.1679 C   0  0  0  0  0  0
    1.0307   -0.4404    1.2848 O   0  0  0  0  0  0
   -0.2202    0.1438   -0.4519 N   0  0  0  0  0  0
   -1.4430   -0.2975    0.2235 C   0  0  0  0  0  0
   -2.6242    0.5484   -0.2562 C   0  0  0  0  0  0
   -2.3152    2.2934    0.1317 S   0  0  0  0  0  0
   -1.6997   -1.7471   -0.0987 C   0  0  0  0  0  0
   -1.3332   -2.2086   -1.1666 O   0  0  0  0  0  0
   -2.2738   -2.4588    0.7083 O   0  5  0  0  0  0
    4.6209    0.0325   -0.6794 H   0  0  0  0  0  0
    2.1117    0.3650   -1.6041 H   0  0  0  0  0  0
    2.6069    2.0717    0.8776 H   0  0  0  0  0  0
    3.3994    2.2826   -0.7021 H   0  0  0  0  0  0
    1.6481    2.5569   -0.5414 H   0  0  0  0  0  0
   -0.2678    0.5188   -1.3452 H   0  0  0  0  0  0
   -1.3257   -0.1800    1.3008 H   0  0  0  0  0  0
   -2.7415    0.4310   -1.3335 H   0  0  0  0  0  0
   -3.5340    0.2201    0.2463 H   0  0  0  0  0  0
   -3.4398    2.8443   -0.3589 H   0  0  0  0  0  0
  1  2  1  0  0  0
  1 13  1  0  0  0
  2  3  1  0  0  0
  2  4  1  0  0  0
  2 14  1  0  0  0
  3 15  1  0  0  0
  3 16  1  0  0  0
  3 17  1  0  0  0
  4  5  2  0  0  0
  4  6  1  0  0  0
  6  7  1  0  0  0
  6 18  1  0  0  0
  7  8  1  0  0  0
  7 10  1  0  0  0
  7 19  1  0  0  0
  8  9  1  0  0  0
  8 20  1  0  0  0
  8 21  1  0  0  0
  9 22  1  0  0  0
 10 11  2  0  0  0
 10 12  1  0  0  0
M  CHG  1  12  -1
M  END
>  <Activity>
5.1

>  <set>
1

>  <Min_dist>
999.9

>  <Avg_dist>
999.9

$$$$
THIOL_7B
  Cerius2 12110214443D 1   1.00000                          
 
 22 21  0  0  0  0  0  0  0  0999 V2000
    3.6283   -0.5288   -0.0466 S   0  0  0  0  0  0
    2.2318    0.4786    0.5242 C   0  0  0  0  0  0
    2.4972    1.9496    0.1979 C   0  0  0  0  0  0
    0.9717    0.0295   -0.1697 C   0  0  0  0  0  0
    1.0287   -0.4388   -1.2870 O   0  0  0  0  0  0
   -0.2185    0.1483    0.4513 N   0  0  0  0  0  0
   -1.4435   -0.2883   -0.2233 C   0  0  0  0  0  0
   -2.6213    0.5614    0.2581 C   0  0  0  0  0  0
   -2.3067    2.3055   -0.1288 S   0  0  0  0  0  0
   -1.7048   -1.7372    0.0981 C   0  0  0  0  0  0
   -1.3223   -2.2219    1.2140 O   0  0  0  0  0  0
   -2.3085   -2.4787   -0.7458 O   0  5  0  0  0  0
    4.6223    0.0202    0.6742 H   0  0  0  0  0  0
    2.1151    0.3607    1.6015 H   0  0  0  0  0  0
    2.6139    2.0675   -0.8794 H   0  0  0  0  0  0
    1.6581    2.5549    0.5408 H   0  0  0  0  0  0
    3.4086    2.2745    0.6998 H   0  0  0  0  0  0
   -0.2641    0.5229    1.3449 H   0  0  0  0  0  0
   -1.3268   -0.1704   -1.3006 H   0  0  0  0  0  0
   -3.5327    0.2366   -0.2438 H   0  0  0  0  0  0
   -2.7380    0.4435    1.3354 H   0  0  0  0  0  0
   -3.4290    2.8600    0.3633 H   0  0  0  0  0  0
  1  2  1  0  0  0
  1 13  1  0  0  0
  2  3  1  0  0  0
  2  4  1  0  0  0
  2 14  1  0  0  0
  3 15  1  0  0  0
  3 16  1  0  0  0
  3 17  1  0  0  0
  4  5  2  0  0  0
  4  6  1  0  0  0
  6  7  1  0  0  0
  6 18  1  0  0  0
  7  8  1  0  0  0
  7 10  1  0  0  0
  7 19  1  0  0  0
  8  9  1  0  0  0
  8 20  1  0  0  0
  8 21  1  0  0  0
  9 22  1  0  0  0
 10 11  2  0  0  0
 10 12  1  0  0  0
M  CHG  1  12  -1
M  END
>  <Activity>
3.27

>  <set>
1

>  <Min_dist>
999.9

>  <Avg_dist>
999.9

$$$$
THIOL_9
  Cerius2 12110214443D 1   1.00000                          
 
 25 24  0  0  0  0  0  0  0  0999 V2000
    2.2496    2.4131   -0.1990 S   0  0  0  0  0  0
    2.7011    0.7055    0.2148 C   0  0  0  0  0  0
    1.6080   -0.2447   -0.2782 C   0  0  0  0  0  0
    0.3378    0.0949    0.3681 N   0  0  0  0  0  0
   -0.8260   -0.1297   -0.2736 C   0  0  0  0  0  0
   -0.8217   -0.6128   -1.3860 O   0  0  0  0  0  0
   -2.1325    0.2196    0.3912 C   0  0  0  0  0  0
   -3.5059   -0.1981   -0.7178 S   0  0  0  0  0  0
   -2.2698   -0.5718    1.6934 C   0  0  0  0  0  0
   -2.1634    1.7180    0.6993 C   0  0  0  0  0  0
    1.9830   -1.6632    0.0656 C   0  0  0  0  0  0
    1.6363   -2.1445    1.1313 O   0  0  0  0  0  0
    2.6333   -2.3300   -0.7219 O   0  5  0  0  0  0
    3.3118    3.0647    0.3072 H   0  0  0  0  0  0
    3.6461    0.4529   -0.2660 H   0  0  0  0  0  0
    2.8061    0.6092    1.2954 H   0  0  0  0  0  0
    1.5030   -0.1483   -1.3588 H   0  0  0  0  0  0
    0.3344    0.4813    1.2578 H   0  0  0  0  0  0
   -4.5462    0.1816    0.0454 H   0  0  0  0  0  0
   -2.2478   -1.6392    1.4739 H   0  0  0  0  0  0
   -1.4445   -0.3208    2.3598 H   0  0  0  0  0  0
   -3.2148   -0.3191    2.1743 H   0  0  0  0  0  0
   -2.0656    2.2818   -0.2284 H   0  0  0  0  0  0
   -3.1084    1.9706    1.1801 H   0  0  0  0  0  0
   -1.3382    1.9690    1.3657 H   0  0  0  0  0  0
  1  2  1  0  0  0
  1 14  1  0  0  0
  2  3  1  0  0  0
  2 15  1  0  0  0
  2 16  1  0  0  0
  3  4  1  0  0  0
  3 11  1  0  0  0
  3 17  1  0  0  0
  4  5  1  0  0  0
  4 18  1  0  0  0
  5  6  2  0  0  0
  5  7  1  0  0  0
  7  8  1  0  0  0
  7  9  1  0  0  0
  7 10  1  0  0  0
  8 19  1  0  0  0
  9 20  1  0  0  0
  9 21  1  0  0  0
  9 22  1  0  0  0
 10 23  1  0  0  0
 10 24  1  0  0  0
 10 25  1  0  0  0
 11 12  2  0  0  0
 11 13  1  0  0  0
M  CHG  1  13  -1
M  END
>  <Activity>
2.14

>  <set>
1

>  <Min_dist>
999.9

>  <Avg_dist>
999.9

$$$$
THIOL_10
  Cerius2 12110214443D 1   1.00000                          
 
 22 21  0  0  0  0  0  0  0  0999 V2000
    2.3368    2.4811   -0.0830 S   0  0  0  0  0  0
    2.8200    0.7776    0.3106 C   0  0  0  0  0  0
    1.7501   -0.1878   -0.2035 C   0  0  0  0  0  0
    0.4687    0.1170    0.4380 N   0  0  0  0  0  0
   -0.6857   -0.1222   -0.2153 C   0  0  0  0  0  0
   -0.6636   -0.5897   -1.3342 O   0  0  0  0  0  0
   -2.0038    0.1912    0.4445 C   0  0  0  0  0  0
   -3.1480   -0.1716   -0.5042 C   0  0  0  0  0  0
   -4.7347    0.2057    0.2901 S   0  0  0  0  0  0
    2.1515   -1.6030    0.1235 C   0  0  0  0  0  0
    1.8071   -2.1060    1.1799 O   0  0  0  0  0  0
    2.8208   -2.2454   -0.6682 O   0  5  0  0  0  0
    3.3818    3.1471    0.4399 H   0  0  0  0  0  0
    3.7734    0.5509   -0.1667 H   0  0  0  0  0  0
    2.9192    0.6684    1.3905 H   0  0  0  0  0  0
    1.6508   -0.0785   -1.2834 H   0  0  0  0  0  0
    0.4510    0.4909    1.3328 H   0  0  0  0  0  0
   -2.0966   -0.3873    1.3637 H   0  0  0  0  0  0
   -2.0491    1.2548    0.6785 H   0  0  0  0  0  0
   -3.0552    0.4069   -1.4233 H   0  0  0  0  0  0
   -3.1027   -1.2352   -0.7381 H   0  0  0  0  0  0
   -5.5800   -0.1762   -0.6838 H   0  0  0  0  0  0
  1  2  1  0  0  0
  1 13  1  0  0  0
  2  3  1  0  0  0
  2 14  1  0  0  0
  2 15  1  0  0  0
  3  4  1  0  0  0
  3 10  1  0  0  0
  3 16  1  0  0  0
  4  5  1  0  0  0
  4 17  1  0  0  0
  5  6  2  0  0  0
  5  7  1  0  0  0
  7  8  1  0  0  0
  7 18  1  0  0  0
  7 19  1  0  0  0
  8  9  1  0  0  0
  8 20  1  0  0  0
  8 21  1  0  0  0
  9 22  1  0  0  0
 10 11  2  0  0  0
 10 12  1  0  0  0
M  CHG  1  12  -1
M  END
>  <Activity>
4.17

>  <set>
1

>  <Min_dist>
999.9

>  <Avg_dist>
999.9

$$$$
THIOL_14
  Cerius2 12110214443D 1   1.00000                          
 
 28 28  0  0  0  0  0  0  0  0999 V2000
    4.9218    0.9387   -0.2187 S   0  0  0  0  0  0
    3.4617    0.1954    0.5599 C   0  0  0  0  0  0
    2.2965    0.2009   -0.4318 C   0  0  0  0  0  0
    1.0835   -0.4166    0.2150 C   0  0  0  0  0  0
    1.1449   -0.8213    1.3567 O   0  0  0  0  0  0
   -0.0695   -0.5191   -0.4753 N   0  0  0  0  0  0
   -1.2487   -1.1194    0.1535 C   0  0  0  0  0  0
   -2.5147   -0.4935   -0.4350 C   0  0  0  0  0  0
   -2.5083    0.9910   -0.1760 C   0  0  0  0  0  0
   -1.9811    1.9587   -0.9880 N   0  0  0  0  0  0
   -1.5401    1.8175   -1.8403 H   0  0  0  0  0  0
   -2.1896    3.1468   -0.3809 C   0  0  0  0  0  0
   -2.8117    2.9369    0.7469 N   0  0  0  0  0  0
   -3.0252    1.6211    0.8961 C   0  0  0  0  0  0
   -1.2552   -2.6040   -0.1056 C   0  0  0  0  0  0
   -0.7545   -3.0472   -1.1256 O   0  0  0  0  0  0
   -1.7611   -3.3622    0.7048 O   0  5  0  0  0  0
    5.8027    0.8374    0.7926 H   0  0  0  0  0  0
    3.6873   -0.8309    0.8497 H   0  0  0  0  0  0
    3.1888    0.7711    1.4443 H   0  0  0  0  0  0
    2.0710    1.2272   -0.7216 H   0  0  0  0  0  0
    2.5694   -0.3748   -1.3162 H   0  0  0  0  0  0
   -0.1186   -0.1955   -1.3884 H   0  0  0  0  0  0
   -1.2195   -0.9382    1.2279 H   0  0  0  0  0  0
   -2.5440   -0.6747   -1.5095 H   0  0  0  0  0  0
   -3.3921   -0.9401    0.0328 H   0  0  0  0  0  0
   -1.8908    4.1110   -0.7649 H   0  0  0  0  0  0
   -3.5189    1.1491    1.7327 H   0  0  0  0  0  0
  1  2  1  0  0  0
  1 18  1  0  0  0
  2  3  1  0  0  0
  2 19  1  0  0  0
  2 20  1  0  0  0
  3  4  1  0  0  0
  3 21  1  0  0  0
  3 22  1  0  0  0
  4  5  2  0  0  0
  4  6  1  0  0  0
  6  7  1  0  0  0
  6 23  1  0  0  0
  7  8  1  0  0  0
  7 15  1  0  0  0
  7 24  1  0  0  0
  8  9  1  0  0  0
  8 25  1  0  0  0
  8 26  1  0  0  0
  9 10  1  0  0  0
  9 14  2  0  0  0
 10 11  1  0  0  0
 10 12  1  0  0  0
 12 13  2  0  0  0
 12 27  1  0  0  0
 13 14  1  0  0  0
 14 28  1  0  0  0
 15 16  2  0  0  0
 15 17  1  0  0  0
M  CHG  1  17  -1
M  END
>  <Activity>
3.64

>  <set>
1

>  <Min_dist>
999.9

>  <Avg_dist>
999.9

$$$$
THIOL_18
  Cerius2 12110214443D 1   1.00000                          
 
 32 33  0  0  0  0  0  0  0  0999 V2000
    3.7753    2.7016    0.6537 S   0  0  0  0  0  0
    2.9394    1.6920   -0.6004 C   0  0  0  0  0  0
    2.1891    0.5726    0.0742 C   0  0  0  0  0  0
    2.2157    0.4663    1.2821 O   0  0  0  0  0  0
    1.4886   -0.3104   -0.6647 N   0  0  0  0  0  0
    0.7593   -1.3986   -0.0089 C   0  0  0  0  0  0
   -0.4688   -1.7657   -0.8445 C   0  0  0  0  0  0
   -1.3680   -0.5630   -0.9710 C   0  0  0  0  0  0
   -1.3229    0.3698   -1.9353 C   0  0  0  0  0  0
   -2.2946    1.3091   -1.7214 N   0  0  0  0  0  0
   -2.4577    2.0807   -2.2861 H   0  0  0  0  0  0
   -3.0067    0.9956   -0.5855 C   0  0  0  0  0  0
   -2.4612   -0.1936   -0.0687 C   0  0  0  0  0  0
   -2.9914   -0.7553    1.0945 C   0  0  0  0  0  0
   -4.0388   -0.1460    1.7256 C   0  0  0  0  0  0
   -4.5810    1.0275    1.2193 C   0  0  0  0  0  0
   -4.0756    1.5970    0.0713 C   0  0  0  0  0  0
    1.6585   -2.6013    0.1176 C   0  0  0  0  0  0
    2.5731   -2.8074   -0.7469 O   0  0  0  0  0  0
    1.5048   -3.4129    1.0892 O   0  5  0  0  0  0
    4.3666    3.6145   -0.1375 H   0  0  0  0  0  0
    2.2397    2.3132   -1.1596 H   0  0  0  0  0  0
    3.6795    1.2739   -1.2827 H   0  0  0  0  0  0
    1.4673   -0.2254   -1.6308 H   0  0  0  0  0  0
    0.4411   -1.0769    0.9827 H   0  0  0  0  0  0
   -0.1506   -2.0874   -1.8361 H   0  0  0  0  0  0
   -1.0114   -2.5753   -0.3565 H   0  0  0  0  0  0
   -0.6229    0.3780   -2.7577 H   0  0  0  0  0  0
   -2.5752   -1.6684    1.4938 H   0  0  0  0  0  0
   -4.4486   -0.5809    2.6252 H   0  0  0  0  0  0
   -5.4092    1.4972    1.7292 H   0  0  0  0  0  0
   -4.5043    2.5101   -0.3146 H   0  0  0  0  0  0
  1  2  1  0  0  0
  1 21  1  0  0  0
  2  3  1  0  0  0
  2 22  1  0  0  0
  2 23  1  0  0  0
  3  4  2  0  0  0
  3  5  1  0  0  0
  5  6  1  0  0  0
  5 24  1  0  0  0
  6  7  1  0  0  0
  6 18  1  0  0  0
  6 25  1  0  0  0
  7  8  1  0  0  0
  7 26  1  0  0  0
  7 27  1  0  0  0
  8  9  2  0  0  0
  8 13  1  0  0  0
  9 10  1  0  0  0
  9 28  1  0  0  0
 10 11  1  0  0  0
 10 12  1  0  0  0
 12 13  2  0  0  0
 12 17  1  0  0  0
 13 14  1  0  0  0
 14 15  2  0  0  0
 14 29  1  0  0  0
 15 16  1  0  0  0
 15 30  1  0  0  0
 16 17  2  0  0  0
 16 31  1  0  0  0
 17 32  1  0  0  0
 18 19  2  0  0  0
 18 20  1  0  0  0
M  CHG  1  20  -1
M  END
>  <Activity>
6.12

>  <set>
1

>  <Min_dist>
999.9

>  <Avg_dist>
999.9

$$$$
THIOL_20A
  Cerius2 12110214443D 1   1.00000                          
 
 35 36  0  0  0  0  0  0  0  0999 V2000
    4.2962   -1.8237   -0.7234 S   0  0  0  0  0  0
    2.8469   -1.5416    0.3304 C   0  0  0  0  0  0
    1.9843   -2.8049    0.3602 C   0  0  0  0  0  0
    2.0397   -0.3951   -0.2219 C   0  0  0  0  0  0
    2.0355   -0.1756   -1.4147 O   0  0  0  0  0  0
    1.3224    0.3863    0.6096 N   0  0  0  0  0  0
    0.5377    1.5008    0.0727 C   0  0  0  0  0  0
   -0.6847    1.7387    0.9615 C   0  0  0  0  0  0
   -1.5343    0.4944    0.9908 C   0  0  0  0  0  0
   -1.4323   -0.5218    1.8620 C   0  0  0  0  0  0
   -2.3719   -1.4752    1.5786 N   0  0  0  0  0  0
   -2.4929   -2.3021    2.0711 H   0  0  0  0  0  0
   -3.1204   -1.0859    0.4905 C   0  0  0  0  0  0
   -2.6323    0.1672    0.0780 C   0  0  0  0  0  0
   -3.2091    0.8134   -1.0172 C   0  0  0  0  0  0
   -4.2461    0.2241   -1.6835 C   0  0  0  0  0  0
   -4.7318   -1.0123   -1.2800 C   0  0  0  0  0  0
   -4.1798   -1.6657   -0.2003 C   0  0  0  0  0  0
    1.3873    2.7451    0.0434 C   0  0  0  0  0  0
    2.3122    2.9062    0.9065 O   0  0  0  0  0  0
    1.1814    3.6371   -0.8445 O   0  5  0  0  0  0
    4.8611   -2.8560   -0.0721 H   0  0  0  0  0  0
    3.1743   -1.3013    1.3419 H   0  0  0  0  0  0
    1.6568   -3.0452   -0.6513 H   0  0  0  0  0  0
    2.5681   -3.6342    0.7597 H   0  0  0  0  0  0
    1.1134   -2.6354    0.9934 H   0  0  0  0  0  0
    1.3257    0.2107    1.5636 H   0  0  0  0  0  0
    0.2102    1.2605   -0.9388 H   0  0  0  0  0  0
   -0.3572    1.9790    1.9730 H   0  0  0  0  0  0
   -1.2685    2.5680    0.5620 H   0  0  0  0  0  0
   -0.7146   -0.5786    2.6670 H   0  0  0  0  0  0
   -2.8370    1.7757   -1.3363 H   0  0  0  0  0  0
   -4.6919    0.7243   -2.5305 H   0  0  0  0  0  0
   -5.5524   -1.4653   -1.8165 H   0  0  0  0  0  0
   -4.5646   -2.6273    0.1058 H   0  0  0  0  0  0
  1  2  1  0  0  0
  1 22  1  0  0  0
  2  3  1  0  0  0
  2  4  1  0  0  0
  2 23  1  0  0  0
  3 24  1  0  0  0
  3 25  1  0  0  0
  3 26  1  0  0  0
  4  5  2  0  0  0
  4  6  1  0  0  0
  6  7  1  0  0  0
  6 27  1  0  0  0
  7  8  1  0  0  0
  7 19  1  0  0  0
  7 28  1  0  0  0
  8  9  1  0  0  0
  8 29  1  0  0  0
  8 30  1  0  0  0
  9 10  2  0  0  0
  9 14  1  0  0  0
 10 11  1  0  0  0
 10 31  1  0  0  0
 11 12  1  0  0  0
 11 13  1  0  0  0
 13 14  2  0  0  0
 13 18  1  0  0  0
 14 15  1  0  0  0
 15 16  2  0  0  0
 15 32  1  0  0  0
 16 17  1  0  0  0
 16 33  1  0  0  0
 17 18  2  0  0  0
 17 34  1  0  0  0
 18 35  1  0  0  0
 19 20  2  0  0  0
 19 21  1  0  0  0
M  CHG  1  21  -1
M  END
>  <Activity>
7.19

>  <set>
1

>  <Min_dist>
999.9

>  <Avg_dist>
999.9

$$$$
THIOL_20B
  Cerius2 12110214443D 1   1.00000                          
 
 35 36  0  0  0  0  0  0  0  0999 V2000
    2.9640    2.8919    0.7806 S   0  0  0  0  0  0
    2.8888    1.4903   -0.3685 C   0  0  0  0  0  0
    4.3047    0.9806   -0.6446 C   0  0  0  0  0  0
    2.0667    0.3843    0.2413 C   0  0  0  0  0  0
    2.0336    0.2468    1.4458 O   0  0  0  0  0  0
    1.3683   -0.4521   -0.5519 N   0  0  0  0  0  0
    0.5691   -1.5273    0.0410 C   0  0  0  0  0  0
   -0.6321   -1.8255   -0.8586 C   0  0  0  0  0  0
   -1.4787   -0.5860   -0.9933 C   0  0  0  0  0  0
   -1.3542    0.3682   -1.9292 C   0  0  0  0  0  0
   -2.2987    1.3388   -1.7342 N   0  0  0  0  0  0
   -2.4065    2.1301   -2.2848 H   0  0  0  0  0  0
   -3.0737    1.0248   -0.6403 C   0  0  0  0  0  0
   -2.5976   -0.1972   -0.1315 C   0  0  0  0  0  0
   -3.2016   -0.7670    0.9911 C   0  0  0  0  0  0
   -4.2533   -0.1336    1.5904 C   0  0  0  0  0  0
   -4.7272    1.0724    1.0919 C   0  0  0  0  0  0
   -4.1484    1.6504   -0.0164 C   0  0  0  0  0  0
    1.4157   -2.7668    0.1756 C   0  0  0  0  0  0
    2.3608   -2.9864   -0.6520 O   0  0  0  0  0  0
    1.1871   -3.5959    1.1172 O   0  5  0  0  0  0
    3.7206    3.7417    0.0634 H   0  0  0  0  0  0
    2.4294    1.8113   -1.3035 H   0  0  0  0  0  0
    4.7640    0.6597    0.2903 H   0  0  0  0  0  0
    4.2595    0.1384   -1.3351 H   0  0  0  0  0  0
    4.8993    1.7806   -1.0857 H   0  0  0  0  0  0
    1.3947   -0.3421   -1.5152 H   0  0  0  0  0  0
    0.2179   -1.2185    1.0255 H   0  0  0  0  0  0
   -0.2808   -2.1343   -1.8432 H   0  0  0  0  0  0
   -1.2266   -2.6255   -0.4175 H   0  0  0  0  0  0
   -0.6173    0.3699   -2.7187 H   0  0  0  0  0  0
   -2.8388   -1.7053    1.3841 H   0  0  0  0  0  0
   -4.7201   -0.5747    2.4587 H   0  0  0  0  0  0
   -5.5596    1.5609    1.5763 H   0  0  0  0  0  0
   -4.5242    2.5888   -0.3966 H   0  0  0  0  0  0
  1  2  1  0  0  0
  1 22  1  0  0  0
  2  3  1  0  0  0
  2  4  1  0  0  0
  2 23  1  0  0  0
  3 24  1  0  0  0
  3 25  1  0  0  0
  3 26  1  0  0  0
  4  5  2  0  0  0
  4  6  1  0  0  0
  6  7  1  0  0  0
  6 27  1  0  0  0
  7  8  1  0  0  0
  7 19  1  0  0  0
  7 28  1  0  0  0
  8  9  1  0  0  0
  8 29  1  0  0  0
  8 30  1  0  0  0
  9 10  2  0  0  0
  9 14  1  0  0  0
 10 11  1  0  0  0
 10 31  1  0  0  0
 11 12  1  0  0  0
 11 13  1  0  0  0
 13 14  2  0  0  0
 13 18  1  0  0  0
 14 15  1  0  0  0
 15 16  2  0  0  0
 15 32  1  0  0  0
 16 17  1  0  0  0
 16 33  1  0  0  0
 17 18  2  0  0  0
 17 34  1  0  0  0
 18 35  1  0  0  0
 19 20  2  0  0  0
 19 21  1  0  0  0
M  CHG  1  21  -1
M  END
>  <Activity>
6.44

>  <set>
1

>  <Min_dist>
999.9

>  <Avg_dist>
999.9

$$$$
THIOL_27
  Cerius2 12110214443D 1   1.00000                          
 
 35 36  0  0  0  0  0  0  0  0999 V2000
    5.0768    2.4218    0.0997 S   0  0  0  0  0  0
    3.8233    1.3091    0.7933 C   0  0  0  0  0  0
    2.9754    0.7268   -0.3394 C   0  0  0  0  0  0
    1.9341   -0.1977    0.2368 C   0  0  0  0  0  0
    1.8758   -0.3735    1.4354 O   0  0  0  0  0  0
    1.0675   -0.8291   -0.5798 N   0  0  0  0  0  0
    0.0552   -1.7277   -0.0197 C   0  0  0  0  0  0
   -1.1851   -1.7205   -0.9156 C   0  0  0  0  0  0
   -1.7416   -0.3221   -0.9918 C   0  0  0  0  0  0
   -1.4152    0.6194   -1.8912 C   0  0  0  0  0  0
   -2.1248    1.7636   -1.6472 N   0  0  0  0  0  0
   -2.0594    2.5810   -2.1653 H   0  0  0  0  0  0
   -2.9460    1.5816   -0.5571 C   0  0  0  0  0  0
   -2.7461    0.2656   -0.1021 C   0  0  0  0  0  0
   -3.4560   -0.2042    1.0047 C   0  0  0  0  0  0
   -4.3424    0.6181    1.6408 C   0  0  0  0  0  0
   -4.5436    1.9175    1.1954 C   0  0  0  0  0  0
   -3.8564    2.4003    0.1035 C   0  0  0  0  0  0
    0.6117   -3.1261    0.0564 C   0  0  0  0  0  0
    1.4834   -3.5124   -0.7905 O   0  0  0  0  0  0
    0.2109   -3.9232    0.9677 O   0  5  0  0  0  0
    5.6931    2.8125    1.2295 H   0  0  0  0  0  0
    4.3147    0.4992    1.3325 H   0  0  0  0  0  0
    3.1826    1.8651    1.4778 H   0  0  0  0  0  0
    2.4840    1.5366   -0.8786 H   0  0  0  0  0  0
    3.6161    0.1708   -1.0239 H   0  0  0  0  0  0
    1.1141   -0.6885   -1.5385 H   0  0  0  0  0  0
   -0.2171   -1.3901    0.9803 H   0  0  0  0  0  0
   -0.9129   -2.0581   -1.9157 H   0  0  0  0  0  0
   -1.9383   -2.3891   -0.4989 H   0  0  0  0  0  0
   -0.6982    0.4927   -2.6889 H   0  0  0  0  0  0
   -3.3052   -1.2141    1.3565 H   0  0  0  0  0  0
   -4.8913    0.2543    2.4969 H   0  0  0  0  0  0
   -5.2480    2.5555    1.7085 H   0  0  0  0  0  0
   -4.0199    3.4126   -0.2353 H   0  0  0  0  0  0
  1  2  1  0  0  0
  1 22  1  0  0  0
  2  3  1  0  0  0
  2 23  1  0  0  0
  2 24  1  0  0  0
  3  4  1  0  0  0
  3 25  1  0  0  0
  3 26  1  0  0  0
  4  5  2  0  0  0
  4  6  1  0  0  0
  6  7  1  0  0  0
  6 27  1  0  0  0
  7  8  1  0  0  0
  7 19  1  0  0  0
  7 28  1  0  0  0
  8  9  1  0  0  0
  8 29  1  0  0  0
  8 30  1  0  0  0
  9 10  2  0  0  0
  9 14  1  0  0  0
 10 11  1  0  0  0
 10 31  1  0  0  0
 11 12  1  0  0  0
 11 13  1  0  0  0
 13 14  2  0  0  0
 13 18  1  0  0  0
 14 15  1  0  0  0
 15 16  2  0  0  0
 15 32  1  0  0  0
 16 17  1  0  0  0
 16 33  1  0  0  0
 17 18  2  0  0  0
 17 34  1  0  0  0
 18 35  1  0  0  0
 19 20  2  0  0  0
 19 21  1  0  0  0
M  CHG  1  21  -1
M  END
>  <Activity>
5.34

>  <set>
1

>  <Min_dist>
999.9

>  <Avg_dist>
999.9

$$$$
THIOL_30A
  Cerius2 12110214443D 1   1.00000                          
 
 38 39  0  0  0  0  0  0  0  0999 V2000
    5.0604    2.1234    0.2990 S   0  0  0  0  0  0
    3.7529    1.0403    0.9379 C   0  0  0  0  0  0
    2.8999    0.5297   -0.2251 C   0  0  0  0  0  0
    2.2677    1.7173   -0.9537 C   0  0  0  0  0  0
    1.8138   -0.3700    0.3057 C   0  0  0  0  0  0
    1.7301   -0.5820    1.4969 O   0  0  0  0  0  0
    0.9353   -0.9391   -0.5434 N   0  0  0  0  0  0
   -0.1206   -1.8138   -0.0274 C   0  0  0  0  0  0
   -1.3456   -1.7275   -0.9399 C   0  0  0  0  0  0
   -1.8447   -0.3060   -0.9777 C   0  0  0  0  0  0
   -1.4671    0.6501   -1.8410 C   0  0  0  0  0  0
   -2.1342    1.8136   -1.5695 N   0  0  0  0  0  0
   -2.0282    2.6440   -2.0594 H   0  0  0  0  0  0
   -2.9786    1.6298   -0.4976 C   0  0  0  0  0  0
   -2.8384    0.2928   -0.0834 C   0  0  0  0  0  0
   -3.5834   -0.1835    0.9973 C   0  0  0  0  0  0
   -4.4459    0.6530    1.6477 C   0  0  0  0  0  0
   -4.5882    1.9732    1.2424 C   0  0  0  0  0  0
   -3.8656    2.4628    0.1768 C   0  0  0  0  0  0
    0.3784   -3.2353    0.0105 C   0  0  0  0  0  0
    1.2469   -3.6289   -0.8363 O   0  0  0  0  0  0
   -0.0678   -4.0445    0.8893 O   0  5  0  0  0  0
    5.6744    2.4521    1.4496 H   0  0  0  0  0  0
    4.2033    0.1943    1.4570 H   0  0  0  0  0  0
    3.1246    1.5994    1.6313 H   0  0  0  0  0  0
    3.5283   -0.0293   -0.9185 H   0  0  0  0  0  0
    1.6394    2.2763   -0.2604 H   0  0  0  0  0  0
    3.0534    2.3680   -1.3377 H   0  0  0  0  0  0
    1.6601    1.3535   -1.7823 H   0  0  0  0  0  0
    1.0022   -0.7696   -1.4961 H   0  0  0  0  0  0
   -0.3944   -1.4979    0.9793 H   0  0  0  0  0  0
   -1.0718   -2.0433   -1.9465 H   0  0  0  0  0  0
   -2.1313   -2.3782   -0.5560 H   0  0  0  0  0  0
   -0.7437    0.5204   -2.6323 H   0  0  0  0  0  0
   -3.4784   -1.2095    1.3177 H   0  0  0  0  0  0
   -5.0219    0.2841    2.4835 H   0  0  0  0  0  0
   -5.2743    2.6222    1.7663 H   0  0  0  0  0  0
   -3.9833    3.4914   -0.1308 H   0  0  0  0  0  0
  1  2  1  0  0  0
  1 23  1  0  0  0
  2  3  1  0  0  0
  2 24  1  0  0  0
  2 25  1  0  0  0
  3  4  1  0  0  0
  3  5  1  0  0  0
  3 26  1  0  0  0
  4 27  1  0  0  0
  4 28  1  0  0  0
  4 29  1  0  0  0
  5  6  2  0  0  0
  5  7  1  0  0  0
  7  8  1  0  0  0
  7 30  1  0  0  0
  8  9  1  0  0  0
  8 20  1  0  0  0
  8 31  1  0  0  0
  9 10  1  0  0  0
  9 32  1  0  0  0
  9 33  1  0  0  0
 10 11  2  0  0  0
 10 15  1  0  0  0
 11 12  1  0  0  0
 11 34  1  0  0  0
 12 13  1  0  0  0
 12 14  1  0  0  0
 14 15  2  0  0  0
 14 19  1  0  0  0
 15 16  1  0  0  0
 16 17  2  0  0  0
 16 35  1  0  0  0
 17 18  1  0  0  0
 17 36  1  0  0  0
 18 19  2  0  0  0
 18 37  1  0  0  0
 19 38  1  0  0  0
 20 21  2  0  0  0
 20 22  1  0  0  0
M  CHG  1  22  -1
M  END
>  <Activity>
7.46

>  <set>
1

>  <Min_dist>
999.9

>  <Avg_dist>
999.9

$$$$
THIOL_30B
  Cerius2 12110214443D 1   1.00000                          
 
 38 39  0  0  0  0  0  0  0  0999 V2000
    4.8811    2.4435    0.2999 S   0  0  0  0  0  0
    3.6117    1.3277    0.9588 C   0  0  0  0  0  0
    2.7989    0.7408   -0.1969 C   0  0  0  0  0  0
    3.7281   -0.0382   -1.1300 C   0  0  0  0  0  0
    1.7444   -0.1863    0.3505 C   0  0  0  0  0  0
    1.6520   -0.3604    1.5472 O   0  0  0  0  0  0
    0.9038   -0.8219   -0.4898 N   0  0  0  0  0  0
   -0.1213   -1.7230    0.0424 C   0  0  0  0  0  0
   -1.3351   -1.7213   -0.8890 C   0  0  0  0  0  0
   -1.8938   -0.3249   -0.9835 C   0  0  0  0  0  0
   -1.5447    0.6162   -1.8747 C   0  0  0  0  0  0
   -2.2649    1.7584   -1.6532 N   0  0  0  0  0  0
   -2.1872    2.5752   -2.1705 H   0  0  0  0  0  0
   -3.1166    1.5753   -0.5870 C   0  0  0  0  0  0
   -2.9256    0.2608   -0.1242 C   0  0  0  0  0  0
   -3.6656   -0.2097    0.9624 C   0  0  0  0  0  0
   -4.5727    0.6107    1.5713 C   0  0  0  0  0  0
   -4.7653    1.9087    1.1181 C   0  0  0  0  0  0
   -4.0484    2.3920    0.0457 C   0  0  0  0  0  0
    0.4375   -3.1194    0.1369 C   0  0  0  0  0  0
    1.3346   -3.5041   -0.6838 O   0  0  0  0  0  0
    0.0132   -3.9164    1.0375 O   0  5  0  0  0  0
    5.4632    2.8380    1.4464 H   0  0  0  0  0  0
    4.0901    0.5203    1.5134 H   0  0  0  0  0  0
    2.9497    1.8826    1.6236 H   0  0  0  0  0  0
    2.3205    1.5481   -0.7514 H   0  0  0  0  0  0
    4.2064   -0.8455   -0.5755 H   0  0  0  0  0  0
    3.1490   -0.4563   -1.9534 H   0  0  0  0  0  0
    4.4908    0.6323   -1.5260 H   0  0  0  0  0  0
    0.9777   -0.6826   -1.4469 H   0  0  0  0  0  0
   -0.4234   -1.3847    1.0336 H   0  0  0  0  0  0
   -1.0330   -2.0596   -1.8802 H   0  0  0  0  0  0
   -2.0978   -2.3919   -0.4930 H   0  0  0  0  0  0
   -0.8046    0.4907   -2.6512 H   0  0  0  0  0  0
   -3.5216   -1.2185    1.3201 H   0  0  0  0  0  0
   -5.1449    0.2463    2.4118 H   0  0  0  0  0  0
   -5.4863    2.5451    1.6095 H   0  0  0  0  0  0
   -4.2054    3.4033   -0.2994 H   0  0  0  0  0  0
  1  2  1  0  0  0
  1 23  1  0  0  0
  2  3  1  0  0  0
  2 24  1  0  0  0
  2 25  1  0  0  0
  3  4  1  0  0  0
  3  5  1  0  0  0
  3 26  1  0  0  0
  4 27  1  0  0  0
  4 28  1  0  0  0
  4 29  1  0  0  0
  5  6  2  0  0  0
  5  7  1  0  0  0
  7  8  1  0  0  0
  7 30  1  0  0  0
  8  9  1  0  0  0
  8 20  1  0  0  0
  8 31  1  0  0  0
  9 10  1  0  0  0
  9 32  1  0  0  0
  9 33  1  0  0  0
 10 11  2  0  0  0
 10 15  1  0  0  0
 11 12  1  0  0  0
 11 34  1  0  0  0
 12 13  1  0  0  0
 12 14  1  0  0  0
 14 15  2  0  0  0
 14 19  1  0  0  0
 15 16  1  0  0  0
 16 17  2  0  0  0
 16 35  1  0  0  0
 17 18  1  0  0  0
 17 36  1  0  0  0
 18 19  2  0  0  0
 18 37  1  0  0  0
 19 38  1  0  0  0
 20 21  2  0  0  0
 20 22  1  0  0  0
M  CHG  1  22  -1
M  END
>  <Activity>
4.48

>  <set>
1

>  <Min_dist>
999.9

>  <Avg_dist>
999.9

$$$$
MOL_01
  Cerius2 12110214443D 1   1.00000                          
 
 24 25  0  0  0  0  0  0  0  0999 V2000
    3.6634   -0.8821   -0.7070 S   0  0  0  0  0  0
    2.9797    0.0217    0.7094 C   0  0  0  0  0  0
    1.5478    0.2488    0.4988 N   0  0  0  0  0  0
    0.5583   -0.5856    0.8873 C   0  0  0  0  0  0
    0.7042   -1.6439    1.4669 O   0  0  0  0  0  0
   -0.6048   -0.0466    0.5253 N   0  0  0  0  0  0
   -0.3153    1.1812   -0.1186 N   0  0  0  0  0  0
   -1.3902    2.0288   -0.6425 C   0  0  0  0  0  0
   -2.5894    1.8530    0.2611 C   0  0  0  0  0  0
   -2.8564    0.7209    0.8549 C   0  0  0  0  0  0
   -1.9877   -0.5044    0.6874 C   0  0  0  0  0  0
   -2.4172   -1.2728   -0.5357 C   0  0  0  0  0  0
   -3.5530   -1.7102   -0.6134 O   0  0  0  0  0  0
   -1.6289   -1.4574   -1.4479 O   0  5  0  0  0  0
    1.0085    1.3284   -0.1095 C   0  0  0  0  0  0
    1.6250    2.2670   -0.5748 O   0  0  0  0  0  0
    4.9481   -0.9829   -0.3216 H   0  0  0  0  0  0
    3.1250   -0.5628    1.6179 H   0  0  0  0  0  0
    3.4888    0.9803    0.8088 H   0  0  0  0  0  0
   -1.0740    3.0720   -0.6391 H   0  0  0  0  0  0
   -1.6430    1.7211   -1.6571 H   0  0  0  0  0  0
   -3.2485    2.6934    0.4215 H   0  0  0  0  0  0
   -3.7284    0.6582    1.4890 H   0  0  0  0  0  0
   -2.0675   -1.1381    1.5706 H   0  0  0  0  0  0
  1  2  1  0  0  0
  1 17  1  0  0  0
  2  3  1  0  0  0
  2 18  1  0  0  0
  2 19  1  0  0  0
  3  4  1  0  0  0
  3 15  1  0  0  0
  4  5  2  0  0  0
  4  6  1  0  0  0
  6  7  1  0  0  0
  6 11  1  0  0  0
  7  8  1  0  0  0
  7 15  1  0  0  0
  8  9  1  0  0  0
  8 20  1  0  0  0
  8 21  1  0  0  0
  9 10  2  0  0  0
  9 22  1  0  0  0
 10 11  1  0  0  0
 10 23  1  0  0  0
 11 12  1  0  0  0
 11 24  1  0  0  0
 12 13  2  0  0  0
 12 14  1  0  0  0
 15 16  2  0  0  0
M  CHG  1  14  -1
M  END
>  <Activity>
6.15

>  <set>
2

>  <Min_dist>
0.213592

>  <Avg_dist>
0.800834

$$$$
MOL_02
  Cerius2 12110214443D 1   1.00000                          
 
 30 31  0  0  0  0  0  0  0  0999 V2000
   -2.5495    1.9685   -0.9637 S   0  0  0  0  0  0
   -2.5577    0.2254   -0.4615 C   0  0  0  0  0  0
   -1.8581    0.0812    0.8915 C   0  0  0  0  0  0
   -1.8642   -1.3908    1.3172 C   0  0  0  0  0  0
   -0.9511   -2.1669    0.3999 C   0  0  0  0  0  0
   -1.2134   -3.3137    0.1048 O   0  0  0  0  0  0
    0.1575   -1.5776   -0.0885 N   0  0  0  0  0  0
    0.5267   -0.2983    0.3476 N   0  0  0  0  0  0
    1.9227    0.1238    0.3706 C   0  0  0  0  0  0
    2.7555   -0.5742   -0.6929 C   0  0  0  0  0  0
    2.4487   -2.0690   -0.7382 C   0  0  0  0  0  0
    0.9715   -2.2663   -1.0960 C   0  0  0  0  0  0
    1.9867    1.6120    0.1421 C   0  0  0  0  0  0
    1.2533    2.1521   -0.7505 O   0  0  0  0  0  0
    2.7742    2.3312    0.8413 O   0  5  0  0  0  0
   -0.4315    0.5547    0.7744 C   0  0  0  0  0  0
   -0.1444    1.6975    1.0618 O   0  0  0  0  0  0
   -3.1931    1.8753   -2.1411 H   0  0  0  0  0  0
   -3.5869   -0.1237   -0.3773 H   0  0  0  0  0  0
   -2.0319   -0.3702   -1.2077 H   0  0  0  0  0  0
   -2.3815    0.6786    1.6380 H   0  0  0  0  0  0
   -1.5084   -1.4756    2.3440 H   0  0  0  0  0  0
   -2.8769   -1.7875    1.2457 H   0  0  0  0  0  0
    2.3431   -0.0995    1.3512 H   0  0  0  0  0  0
    2.5351   -0.1342   -1.6655 H   0  0  0  0  0  0
    3.8129   -0.4328   -0.4689 H   0  0  0  0  0  0
    3.0735   -2.5466   -1.4929 H   0  0  0  0  0  0
    2.6499   -2.5121    0.2371 H   0  0  0  0  0  0
    0.7327   -3.3299   -1.0970 H   0  0  0  0  0  0
    0.7724   -1.8437   -2.0808 H   0  0  0  0  0  0
  1  2  1  0  0  0
  1 18  1  0  0  0
  2  3  1  0  0  0
  2 19  1  0  0  0
  2 20  1  0  0  0
  3  4  1  0  0  0
  3 16  1  0  0  0
  3 21  1  0  0  0
  4  5  1  0  0  0
  4 22  1  0  0  0
  4 23  1  0  0  0
  5  6  2  0  0  0
  5  7  1  0  0  0
  7  8  1  0  0  0
  7 12  1  0  0  0
  8  9  1  0  0  0
  8 16  1  0  0  0
  9 10  1  0  0  0
  9 13  1  0  0  0
  9 24  1  0  0  0
 10 11  1  0  0  0
 10 25  1  0  0  0
 10 26  1  0  0  0
 11 12  1  0  0  0
 11 27  1  0  0  0
 11 28  1  0  0  0
 12 29  1  0  0  0
 12 30  1  0  0  0
 13 14  2  0  0  0
 13 15  1  0  0  0
 16 17  2  0  0  0
M  CHG  1  15  -1
M  END
>  <Activity>
7.42

>  <set>
2

>  <Min_dist>
0.533333

>  <Avg_dist>
0.773046

$$$$
MOL_03
  Cerius2 12110214443D 1   1.00000                          
 
 33 34  0  0  0  0  0  0  0  0999 V2000
    4.8434    0.4338   -1.0077 S   0  0  0  0  0  0
    3.4893    0.0531    0.1377 C   0  0  0  0  0  0
    2.1889    0.6632   -0.3892 C   0  0  0  0  0  0
    1.0467    0.3421    0.5769 C   0  0  0  0  0  0
   -0.2532    0.9354    0.0776 C   0  0  0  0  0  0
   -0.4994    2.1122   -0.0820 O   0  0  0  0  0  0
   -1.0827   -0.0995   -0.1548 N   0  0  0  0  0  0
   -0.4941   -1.3184    0.2119 N   0  0  0  0  0  0
   -1.2039   -2.6096    0.1810 C   0  0  0  0  0  0
   -2.3998   -2.4837   -0.7685 C   0  0  0  0  0  0
   -3.2215   -1.2501   -0.3818 C   0  0  0  0  0  0
   -2.4311    0.0131   -0.7386 C   0  0  0  0  0  0
   -3.1284    1.2235   -0.1731 C   0  0  0  0  0  0
   -4.3212    1.4976   -0.5315 O   0  0  0  0  0  0
   -2.5257    1.9736    0.6638 O   0  5  0  0  0  0
    0.7813   -1.1477    0.6083 C   0  0  0  0  0  0
    1.5641   -2.0173    0.9277 O   0  0  0  0  0  0
    1.3700    0.8621    1.9790 C   0  0  0  0  0  0
    5.8623   -0.1756   -0.3756 H   0  0  0  0  0  0
    3.3762   -1.0278    0.2203 H   0  0  0  0  0  0
    3.7151    0.4708    1.1189 H   0  0  0  0  0  0
    2.3019    1.7441   -0.4718 H   0  0  0  0  0  0
    1.9631    0.2455   -1.3704 H   0  0  0  0  0  0
   -0.5315   -3.3887   -0.1782 H   0  0  0  0  0  0
   -1.5557   -2.8582    1.1822 H   0  0  0  0  0  0
   -2.0421   -2.3766   -1.7926 H   0  0  0  0  0  0
   -3.0222   -3.3750   -0.6905 H   0  0  0  0  0  0
   -4.1652   -1.2555   -0.9272 H   0  0  0  0  0  0
   -3.4192   -1.2655    0.6900 H   0  0  0  0  0  0
   -2.3548    0.1035   -1.8222 H   0  0  0  0  0  0
    0.5469    0.6251    2.6531 H   0  0  0  0  0  0
    2.2832    0.3892    2.3403 H   0  0  0  0  0  0
    1.5102    1.9424    1.9425 H   0  0  0  0  0  0
  1  2  1  0  0  0
  1 19  1  0  0  0
  2  3  1  0  0  0
  2 20  1  0  0  0
  2 21  1  0  0  0
  3  4  1  0  0  0
  3 22  1  0  0  0
  3 23  1  0  0  0
  4  5  1  0  0  0
  4 16  1  0  0  0
  4 18  1  0  0  0
  5  6  2  0  0  0
  5  7  1  0  0  0
  7  8  1  0  0  0
  7 12  1  0  0  0
  8  9  1  0  0  0
  8 16  1  0  0  0
  9 10  1  0  0  0
  9 24  1  0  0  0
  9 25  1  0  0  0
 10 11  1  0  0  0
 10 26  1  0  0  0
 10 27  1  0  0  0
 11 12  1  0  0  0
 11 28  1  0  0  0
 11 29  1  0  0  0
 12 13  1  0  0  0
 12 30  1  0  0  0
 13 14  2  0  0  0
 13 15  1  0  0  0
 16 17  2  0  0  0
 18 31  1  0  0  0
 18 32  1  0  0  0
 18 33  1  0  0  0
M  CHG  1  15  -1
M  END
>  <Activity>
7

>  <set>
2

>  <Min_dist>
0.525424

>  <Avg_dist>
0.737546

$$$$
MOL_04
  Cerius2 12110214443D 1   1.00000                          
 
 32 33  0  0  0  0  0  0  0  0999 V2000
    4.5987    0.4214   -0.1438 S   0  0  0  0  0  0
    2.9372    1.0137   -0.5673 C   0  0  0  0  0  0
    1.9202    0.4222    0.4108 C   0  0  0  0  0  0
    0.5400    0.9142    0.0590 C   0  0  0  0  0  0
    0.3894    2.0342   -0.3815 O   0  0  0  0  0  0
   -0.5271    0.1097    0.2338 N   0  0  0  0  0  0
   -0.4615   -1.2953    0.6449 C   0  0  0  0  0  0
   -1.9235   -1.7673    0.7022 C   0  0  0  0  0  0
   -2.7318   -0.5524    0.3057 C   0  0  0  0  0  0
   -1.8594    0.4951    0.0552 C   0  0  0  0  0  0
   -2.3786    1.7320   -0.3307 C   0  0  0  0  0  0
   -3.7404    1.9048   -0.4597 C   0  0  0  0  0  0
   -4.6023    0.8537   -0.2070 C   0  0  0  0  0  0
   -4.0957   -0.3733    0.1799 C   0  0  0  0  0  0
    0.3087   -2.1012   -0.3691 C   0  0  0  0  0  0
    0.4786   -3.3528   -0.1930 O   0  0  0  0  0  0
    0.7906   -1.5317   -1.4034 O   0  5  0  0  0  0
    2.2694    0.8582    1.8352 C   0  0  0  0  0  0
    5.3175    1.0412   -1.0968 H   0  0  0  0  0  0
    2.9122    2.1015   -0.5039 H   0  0  0  0  0  0
    2.6885    0.7031   -1.5821 H   0  0  0  0  0  0
    1.9453   -0.6657    0.3474 H   0  0  0  0  0  0
    0.0021   -1.3804    1.6277 H   0  0  0  0  0  0
   -2.0884   -2.5807   -0.0044 H   0  0  0  0  0  0
   -2.1819   -2.0825    1.7131 H   0  0  0  0  0  0
   -1.7107    2.5573   -0.5289 H   0  0  0  0  0  0
   -4.1353    2.8646   -0.7587 H   0  0  0  0  0  0
   -5.6687    0.9917   -0.3080 H   0  0  0  0  0  0
   -4.7676   -1.1956    0.3773 H   0  0  0  0  0  0
    2.3036    1.9466    1.8840 H   0  0  0  0  0  0
    1.5112    0.4872    2.5249 H   0  0  0  0  0  0
    3.2421    0.4514    2.1116 H   0  0  0  0  0  0
  1  2  1  0  0  0
  1 19  1  0  0  0
  2  3  1  0  0  0
  2 20  1  0  0  0
  2 21  1  0  0  0
  3  4  1  0  0  0
  3 18  1  0  0  0
  3 22  1  0  0  0
  4  5  2  0  0  0
  4  6  1  0  0  0
  6  7  1  0  0  0
  6 10  1  0  0  0
  7  8  1  0  0  0
  7 15  1  0  0  0
  7 23  1  0  0  0
  8  9  1  0  0  0
  8 24  1  0  0  0
  8 25  1  0  0  0
  9 10  1  0  0  0
  9 14  2  0  0  0
 10 11  2  0  0  0
 11 12  1  0  0  0
 11 26  1  0  0  0
 12 13  2  0  0  0
 12 27  1  0  0  0
 13 14  1  0  0  0
 13 28  1  0  0  0
 14 29  1  0  0  0
 15 16  2  0  0  0
 15 17  1  0  0  0
 18 30  1  0  0  0
 18 31  1  0  0  0
 18 32  1  0  0  0
M  CHG  1  17  -1
M  END
>  <Activity>
8.43

>  <set>
2

>  <Min_dist>
0.298701

>  <Avg_dist>
0.613192

$$$$
MOL_05
  Cerius2 12110214443D 1   1.00000                          
 
 34 35  0  0  0  0  0  0  0  0999 V2000
    1.8033    2.2899   -0.8751 S   0  0  0  0  0  0
    0.4299    1.0631   -0.9472 C   0  0  0  0  0  0
    1.0936   -0.2040   -0.5859 N   0  0  0  0  0  0
    2.5448   -0.1476   -0.4343 C   0  0  0  0  0  0
    2.9932    1.2501    0.0854 C   0  0  0  0  0  0
    2.9825   -1.2052    0.5461 C   0  0  0  0  0  0
    4.0197   -1.8187    0.3585 O   0  0  0  0  0  0
    2.2995   -1.4474    1.5271 O   0  5  0  0  0  0
    0.4011   -1.3462   -0.4059 C   0  0  0  0  0  0
    0.9905   -2.3893   -0.2177 O   0  0  0  0  0  0
   -1.1054   -1.3271   -0.4384 C   0  0  0  0  0  0
   -1.6359   -2.7586   -0.3374 C   0  0  0  0  0  0
   -3.4493   -2.7356   -0.3765 S   0  0  0  0  0  0
   -0.6434    1.4062    0.0534 C   0  0  0  0  0  0
   -1.8057    2.0384   -0.3644 C   0  0  0  0  0  0
   -2.7918    2.3529    0.5591 C   0  0  0  0  0  0
   -2.6145    2.0360    1.8922 C   0  0  0  0  0  0
   -1.4554    1.4065    2.3060 C   0  0  0  0  0  0
   -0.4735    1.0864    1.3863 C   0  0  0  0  0  0
   -1.9776    2.3494   -1.6761 O   0  0  0  0  0  0
    0.0158    1.0075   -1.9540 H   0  0  0  0  0  0
    3.0140   -0.3390   -1.3993 H   0  0  0  0  0  0
    4.0262    1.4669   -0.1869 H   0  0  0  0  0  0
    2.8357    1.3483    1.1595 H   0  0  0  0  0  0
   -1.4795   -0.7409    0.4010 H   0  0  0  0  0  0
   -1.4430   -0.8796   -1.3732 H   0  0  0  0  0  0
   -1.2617   -3.3448   -1.1767 H   0  0  0  0  0  0
   -1.2983   -3.2061    0.5974 H   0  0  0  0  0  0
   -3.7017   -4.0531   -0.2787 H   0  0  0  0  0  0
   -3.6972    2.8453    0.2364 H   0  0  0  0  0  0
   -3.3820    2.2807    2.6116 H   0  0  0  0  0  0
   -1.3183    1.1603    3.3486 H   0  0  0  0  0  0
    0.4312    0.5947    1.7121 H   0  0  0  0  0  0
   -2.4096    1.5894   -2.0893 H   0  0  0  0  0  0
  1  2  1  0  0  0
  1  5  1  0  0  0
  2  3  1  0  0  0
  2 14  1  0  0  0
  2 21  1  0  0  0
  3  4  1  0  0  0
  3  9  1  0  0  0
  4  5  1  0  0  0
  4  6  1  0  0  0
  4 22  1  0  0  0
  5 23  1  0  0  0
  5 24  1  0  0  0
  6  7  2  0  0  0
  6  8  1  0  0  0
  9 10  2  0  0  0
  9 11  1  0  0  0
 11 12  1  0  0  0
 11 25  1  0  0  0
 11 26  1  0  0  0
 12 13  1  0  0  0
 12 27  1  0  0  0
 12 28  1  0  0  0
 13 29  1  0  0  0
 14 15  1  0  0  0
 14 19  2  0  0  0
 15 16  2  0  0  0
 15 20  1  0  0  0
 16 17  1  0  0  0
 16 30  1  0  0  0
 17 18  2  0  0  0
 17 31  1  0  0  0
 18 19  1  0  0  0
 18 32  1  0  0  0
 19 33  1  0  0  0
 20 34  1  0  0  0
M  CHG  1   8  -1
M  END
>  <Activity>
8.22

>  <set>
2

>  <Min_dist>
0.455556

>  <Avg_dist>
0.661754

$$$$
MOL_06
  Cerius2 12110214443D 1   1.00000                          
 
 30 31  0  0  0  0  0  0  0  0999 V2000
   -1.3592    0.0844    0.2596 N   0  0  0  0  0  0
   -2.5460   -0.6783    0.6837 C   0  0  0  0  0  0
   -3.7524    0.2457    0.4173 C   0  0  0  0  0  0
   -3.1061    1.6457    0.5064 C   0  0  0  0  0  0
   -1.6500    1.4091    0.1560 C   0  0  0  0  0  0
   -0.6919    2.3002   -0.2173 C   0  0  0  0  0  0
    0.6097    1.8603   -0.5029 C   0  0  0  0  0  0
    0.8967    0.5308   -0.4018 C   0  0  0  0  0  0
   -0.1114   -0.3618   -0.0096 C   0  0  0  0  0  0
    0.1376   -1.5537    0.0811 O   0  0  0  0  0  0
    2.2845    0.0267   -0.7031 C   0  0  0  0  0  0
    3.1214    0.0405    0.5777 C   0  0  0  0  0  0
    4.5093   -0.4636    0.2764 C   0  0  0  0  0  0
    5.3776   -0.5356    1.2075 O   0  0  0  0  0  0
    4.8154   -0.8180   -0.9098 O   0  5  0  0  0  0
   -0.9971    3.6229   -0.3145 O   0  0  0  0  0  0
   -2.6694   -1.9425   -0.1272 C   0  0  0  0  0  0
   -3.5943   -2.7106    0.0778 O   0  0  0  0  0  0
   -1.8445   -2.1975   -0.9886 O   0  5  0  0  0  0
   -2.4811   -0.9161    1.7454 H   0  0  0  0  0  0
   -4.1661    0.0699   -0.5757 H   0  0  0  0  0  0
   -4.5166    0.1197    1.1842 H   0  0  0  0  0  0
   -3.5657    2.3241   -0.2123 H   0  0  0  0  0  0
   -3.1951    2.0428    1.5176 H   0  0  0  0  0  0
    1.3732    2.5644   -0.7989 H   0  0  0  0  0  0
    2.2257   -0.9915   -1.0877 H   0  0  0  0  0  0
    2.7510    0.6704   -1.4489 H   0  0  0  0  0  0
    3.1802    1.0587    0.9623 H   0  0  0  0  0  0
    2.6550   -0.6032    1.3234 H   0  0  0  0  0  0
   -0.1887    4.0768   -0.5894 H   0  0  0  0  0  0
  1  2  1  0  0  0
  1  5  1  0  0  0
  1  9  1  0  0  0
  2  3  1  0  0  0
  2 17  1  0  0  0
  2 20  1  0  0  0
  3  4  1  0  0  0
  3 21  1  0  0  0
  3 22  1  0  0  0
  4  5  1  0  0  0
  4 23  1  0  0  0
  4 24  1  0  0  0
  5  6  2  0  0  0
  6  7  1  0  0  0
  6 16  1  0  0  0
  7  8  2  0  0  0
  7 25  1  0  0  0
  8  9  1  0  0  0
  8 11  1  0  0  0
  9 10  2  0  0  0
 11 12  1  0  0  0
 11 26  1  0  0  0
 11 27  1  0  0  0
 12 13  1  0  0  0
 12 28  1  0  0  0
 12 29  1  0  0  0
 13 14  2  0  0  0
 13 15  1  0  0  0
 16 30  1  0  0  0
 17 18  2  0  0  0
 17 19  1  0  0  0
M  CHG  2  15  -1  19  -1
M  END
>  <Activity>
6.34

>  <set>
2

>  <Min_dist>
0.605505

>  <Avg_dist>
0.726304

$$$$
MOL_10
  Cerius2 12110214443D 1   1.00000                          
 
 27 27  0  0  0  0  0  0  0  0999 V2000
    4.3245    0.1621   -0.0555 S   0  0  0  0  0  0
    2.6897    0.8030   -0.5109 C   0  0  0  0  0  0
    1.6082   -0.1560   -0.0094 C   0  0  0  0  0  0
    0.2500    0.3764   -0.3877 C   0  0  0  0  0  0
    0.1263    1.5323   -0.7313 O   0  0  0  0  0  0
   -0.8270   -0.4326   -0.3440 N   0  0  0  0  0  0
   -2.2075    0.0137   -0.5655 C   0  0  0  0  0  0
   -3.1006   -1.1121    0.0013 C   0  0  0  0  0  0
   -2.1683   -2.3406   -0.1107 C   0  0  0  0  0  0
   -0.7743   -1.7530   -0.0976 C   0  0  0  0  0  0
    0.2416   -2.3802    0.1120 O   0  0  0  0  0  0
   -2.4632    1.3032    0.1714 C   0  0  0  0  0  0
   -3.5596    1.8340    0.1092 O   0  0  0  0  0  0
   -1.5739    1.8159    0.8300 O   0  5  0  0  0  0
    1.7018   -0.2792    1.5128 C   0  0  0  0  0  0
    5.1061    1.1256   -0.5750 H   0  0  0  0  0  0
    2.5446    1.7835   -0.0574 H   0  0  0  0  0  0
    2.6230    0.8908   -1.5953 H   0  0  0  0  0  0
    1.7533   -1.1365   -0.4629 H   0  0  0  0  0  0
   -2.3954    0.1439   -1.6313 H   0  0  0  0  0  0
   -3.3636   -0.9154    1.0406 H   0  0  0  0  0  0
   -3.9950   -1.2443   -0.6076 H   0  0  0  0  0  0
   -2.3122   -3.0075    0.7394 H   0  0  0  0  0  0
   -2.3461   -2.8703   -1.0466 H   0  0  0  0  0  0
    1.6203    0.7101    1.9631 H   0  0  0  0  0  0
    0.8921   -0.9118    1.8766 H   0  0  0  0  0  0
    2.6596   -0.7237    1.7831 H   0  0  0  0  0  0
  1  2  1  0  0  0
  1 16  1  0  0  0
  2  3  1  0  0  0
  2 17  1  0  0  0
  2 18  1  0  0  0
  3  4  1  0  0  0
  3 15  1  0  0  0
  3 19  1  0  0  0
  4  5  2  0  0  0
  4  6  1  0  0  0
  6  7  1  0  0  0
  6 10  1  0  0  0
  7  8  1  0  0  0
  7 12  1  0  0  0
  7 20  1  0  0  0
  8  9  1  0  0  0
  8 21  1  0  0  0
  8 22  1  0  0  0
  9 10  1  0  0  0
  9 23  1  0  0  0
  9 24  1  0  0  0
 10 11  2  0  0  0
 12 13  2  0  0  0
 12 14  1  0  0  0
 15 25  1  0  0  0
 15 26  1  0  0  0
 15 27  1  0  0  0
M  CHG  1  14  -1
M  END
>  <Activity>
8.05

>  <set>
2

>  <Min_dist>
0.180556

>  <Avg_dist>
0.617145

$$$$
MOL_11
  Cerius2 12110214443D 1   1.00000                          
 
 32 33  0  0  0  0  0  0  0  0999 V2000
    3.7822   -0.7025   -1.1377 S   0  0  0  0  0  0
    2.5565    0.3782   -0.3501 C   0  0  0  0  0  0
    1.3858   -0.4602    0.1924 C   0  0  0  0  0  0
    1.3440   -0.2245    1.7163 C   0  0  0  0  0  0
    2.0433    1.1441    1.9083 C   0  0  0  0  0  0
    3.1852    1.0941    0.8631 C   0  0  0  0  0  0
    0.0926   -0.0082   -0.4356 C   0  0  0  0  0  0
    0.0941    0.8976   -1.2420 O   0  0  0  0  0  0
   -1.0657   -0.6107   -0.1010 N   0  0  0  0  0  0
   -2.3932   -0.2716   -0.6344 C   0  0  0  0  0  0
   -3.4073   -1.2387    0.0120 C   0  0  0  0  0  0
   -2.5197   -2.4362    0.4426 C   0  0  0  0  0  0
   -1.2106   -1.7230    0.8556 C   0  0  0  0  0  0
   -2.7413    1.1503   -0.2767 C   0  0  0  0  0  0
   -3.8567    1.6460   -0.6462 O   0  0  0  0  0  0
   -1.9205    1.8580    0.3954 O   0  5  0  0  0  0
    4.6863    0.2142   -1.5265 H   0  0  0  0  0  0
    2.1893    1.1114   -1.0683 H   0  0  0  0  0  0
    1.5542   -1.5165   -0.0176 H   0  0  0  0  0  0
    0.3130   -0.1787    2.0671 H   0  0  0  0  0  0
    1.8912   -1.0091    2.2389 H   0  0  0  0  0  0
    1.3567    1.9625    1.6915 H   0  0  0  0  0  0
    2.4465    1.2338    2.9170 H   0  0  0  0  0  0
    4.0298    0.5225    1.2478 H   0  0  0  0  0  0
    3.4979    2.1023    0.5912 H   0  0  0  0  0  0
   -2.4005   -0.3961   -1.7172 H   0  0  0  0  0  0
   -3.8808   -0.7781    0.8790 H   0  0  0  0  0  0
   -4.1556   -1.5550   -0.7147 H   0  0  0  0  0  0
   -2.9611   -2.9660    1.2868 H   0  0  0  0  0  0
   -2.3448   -3.1134   -0.3933 H   0  0  0  0  0  0
   -0.3654   -2.4069    0.7782 H   0  0  0  0  0  0
   -1.2940   -1.3349    1.8707 H   0  0  0  0  0  0
  1  2  1  0  0  0
  1 17  1  0  0  0
  2  3  1  0  0  0
  2  6  1  0  0  0
  2 18  1  0  0  0
  3  4  1  0  0  0
  3  7  1  0  0  0
  3 19  1  0  0  0
  4  5  1  0  0  0
  4 20  1  0  0  0
  4 21  1  0  0  0
  5  6  1  0  0  0
  5 22  1  0  0  0
  5 23  1  0  0  0
  6 24  1  0  0  0
  6 25  1  0  0  0
  7  8  2  0  0  0
  7  9  1  0  0  0
  9 10  1  0  0  0
  9 13  1  0  0  0
 10 11  1  0  0  0
 10 14  1  0  0  0
 10 26  1  0  0  0
 11 12  1  0  0  0
 11 27  1  0  0  0
 11 28  1  0  0  0
 12 13  1  0  0  0
 12 29  1  0  0  0
 12 30  1  0  0  0
 13 31  1  0  0  0
 13 32  1  0  0  0
 14 15  2  0  0  0
 14 16  1  0  0  0
M  CHG  1  16  -1
M  END
>  <Activity>
7.19

>  <set>
2

>  <Min_dist>
0.087719

>  <Avg_dist>
0.663879

$$$$
MOL_13
  Cerius2 12110214443D 1   1.00000                          
 
 52 54  0  0  0  0  0  0  0  0999 V2000
   -2.3700    0.7241   -0.4371 N   0  0  0  0  0  0
   -3.2678   -0.3251   -0.1964 C   0  0  0  0  0  0
   -3.4252   -0.8040    1.0962 C   0  0  0  0  0  0
   -4.2912   -1.8515    1.3408 C   0  0  0  0  0  0
   -5.0084   -2.4122    0.2992 C   0  0  0  0  0  0
   -4.8616   -1.9280   -0.9875 C   0  0  0  0  0  0
   -3.9913   -0.8841   -1.2392 C   0  0  0  0  0  0
   -2.6656   -0.1661    2.2281 C   0  0  0  0  0  0
   -1.2054   -0.6250    2.2117 C   0  0  0  0  0  0
   -0.6816   -0.6104    0.7756 C   0  0  0  0  0  0
   -1.1242    0.6376    0.0645 C   0  0  0  0  0  0
   -0.3567    1.5687   -0.0579 O   0  0  0  0  0  0
    0.7864   -0.6623    0.7948 N   0  3  0  0  0  0
    1.1447    0.1383    1.2936 H   0  0  0  0  0  0
    1.0870   -1.5080    1.2558 H   0  0  0  0  0  0
    1.2949   -0.6485   -0.5833 C   0  0  0  0  0  0
    2.8238   -0.7025   -0.5632 C   0  0  0  0  0  0
    3.3672    0.5114    0.1931 C   0  0  0  0  0  0
    4.8731    0.4582    0.2128 C   0  0  0  0  0  0
    5.5991    1.0551   -0.8008 C   0  0  0  0  0  0
    6.9805    1.0062   -0.7828 C   0  0  0  0  0  0
    7.6358    0.3608    0.2492 C   0  0  0  0  0  0
    6.9098   -0.2353    1.2633 C   0  0  0  0  0  0
    5.5286   -0.1827    1.2475 C   0  0  0  0  0  0
    0.7597   -1.8442   -1.3282 C   0  0  0  0  0  0
    0.5119   -2.8763   -0.7273 O   0  0  0  0  0  0
    0.5743   -1.7799   -2.5320 O   0  5  0  0  0  0
   -2.7782    1.8899   -1.2248 C   0  0  0  0  0  0
   -3.3572    2.9373   -0.3090 C   0  0  0  0  0  0
   -3.7602    3.9931   -0.7678 O   0  0  0  0  0  0
   -3.4227    2.7292    0.8910 O   0  5  0  0  0  0
   -4.4081   -2.2329    2.3444 H   0  0  0  0  0  0
   -5.6853   -3.2314    0.4918 H   0  0  0  0  0  0
   -5.4275   -2.3657   -1.7965 H   0  0  0  0  0  0
   -3.8754   -0.5051   -2.2438 H   0  0  0  0  0  0
   -2.7044    0.9182    2.1230 H   0  0  0  0  0  0
   -3.1230   -0.4511    3.1756 H   0  0  0  0  0  0
   -0.6060    0.0488    2.8238 H   0  0  0  0  0  0
   -1.1381   -1.6364    2.6126 H   0  0  0  0  0  0
   -1.0646   -1.4818    0.2444 H   0  0  0  0  0  0
    0.9701    0.2651   -1.0813 H   0  0  0  0  0  0
    3.1486   -1.6161   -0.0652 H   0  0  0  0  0  0
    3.2012   -0.6923   -1.5858 H   0  0  0  0  0  0
    3.0424    1.4250   -0.3049 H   0  0  0  0  0  0
    2.9898    0.5012    1.2156 H   0  0  0  0  0  0
    5.0871    1.5593   -1.6071 H   0  0  0  0  0  0
    7.5477    1.4720   -1.5751 H   0  0  0  0  0  0
    8.7151    0.3221    0.2629 H   0  0  0  0  0  0
    7.4218   -0.7398    2.0693 H   0  0  0  0  0  0
    4.9613   -0.6484    2.0398 H   0  0  0  0  0  0
   -1.9114    2.2996   -1.7434 H   0  0  0  0  0  0
   -3.5300    1.5899   -1.9549 H   0  0  0  0  0  0
  1  2  1  0  0  0
  1 11  1  0  0  0
  1 28  1  0  0  0
  2  3  1  0  0  0
  2  7  2  0  0  0
  3  4  2  0  0  0
  3  8  1  0  0  0
  4  5  1  0  0  0
  4 32  1  0  0  0
  5  6  2  0  0  0
  5 33  1  0  0  0
  6  7  1  0  0  0
  6 34  1  0  0  0
  7 35  1  0  0  0
  8  9  1  0  0  0
  8 36  1  0  0  0
  8 37  1  0  0  0
  9 10  1  0  0  0
  9 38  1  0  0  0
  9 39  1  0  0  0
 10 11  1  0  0  0
 10 13  1  0  0  0
 10 40  1  0  0  0
 11 12  2  0  0  0
 13 14  1  0  0  0
 13 15  1  0  0  0
 13 16  1  0  0  0
 16 17  1  0  0  0
 16 25  1  0  0  0
 16 41  1  0  0  0
 17 18  1  0  0  0
 17 42  1  0  0  0
 17 43  1  0  0  0
 18 19  1  0  0  0
 18 44  1  0  0  0
 18 45  1  0  0  0
 19 20  1  0  0  0
 19 24  2  0  0  0
 20 21  2  0  0  0
 20 46  1  0  0  0
 21 22  1  0  0  0
 21 47  1  0  0  0
 22 23  2  0  0  0
 22 48  1  0  0  0
 23 24  1  0  0  0
 23 49  1  0  0  0
 24 50  1  0  0  0
 25 26  2  0  0  0
 25 27  1  0  0  0
 28 29  1  0  0  0
 28 51  1  0  0  0
 28 52  1  0  0  0
 29 30  2  0  0  0
 29 31  1  0  0  0
M  CHG  3  13   1  27  -1  31  -1
M  END
>  <Activity>
8.77

>  <set>
2

>  <Min_dist>
0.216981

>  <Avg_dist>
0.618472

$$$$
MOL_17
  Cerius2 12110214443D 1   1.00000                          
 
 52 53  0  0  0  0  0  0  0  0999 V2000
   -7.7393    0.2599    0.1821 I   0  0  0  0  0  0
   -5.6572    0.3838   -0.0147 C   0  0  0  0  0  0
   -4.8397   -0.3605    0.8168 C   0  0  0  0  0  0
   -3.4668   -0.2805    0.6897 C   0  0  0  0  0  0
   -2.9072    0.5477   -0.2744 C   0  0  0  0  0  0
   -3.7304    1.2933   -1.1081 C   0  0  0  0  0  0
   -5.1027    1.2053   -0.9798 C   0  0  0  0  0  0
   -1.5164    0.6311   -0.4052 N   0  0  0  0  0  0
   -0.7482   -0.4420   -0.1319 C   0  0  0  0  0  0
   -1.2653   -1.4977    0.1671 O   0  0  0  0  0  0
    0.7532   -0.3304   -0.1976 C   0  0  0  0  0  0
    1.3809   -1.6806    0.1544 C   0  0  0  0  0  0
    2.9052   -1.5673    0.0876 C   0  0  0  0  0  0
    3.3084   -1.1790   -1.2706 N   0  3  0  0  0  0
    3.0856   -1.9241   -1.9135 H   0  0  0  0  0  0
    2.8145   -0.3419   -1.5417 H   0  0  0  0  0  0
    4.7549   -0.9247   -1.2981 C   0  0  0  0  0  0
    5.1874   -0.5937   -2.7279 C   0  0  0  0  0  0
    5.0781    0.2368   -0.3939 C   0  0  0  0  0  0
    4.2264    1.0617   -0.1384 O   0  0  0  0  0  0
    6.3135    0.3590    0.1308 N   0  0  0  0  0  0
    6.7624    1.4374    1.0236 C   0  0  0  0  0  0
    8.2336    1.1475    1.3884 C   0  0  0  0  0  0
    8.3602   -0.3781    1.1357 C   0  0  0  0  0  0
    7.4366   -0.5701   -0.0903 C   0  0  0  0  0  0
    6.6617    2.7640    0.3158 C   0  0  0  0  0  0
    6.9895    3.7885    0.8908 O   0  0  0  0  0  0
    6.2524    2.8133   -0.8321 O   0  5  0  0  0  0
    3.5235   -2.8971    0.4343 C   0  0  0  0  0  0
    3.9560   -3.6600   -0.4917 O   0  0  0  0  0  0
    3.6142   -3.2597    1.6536 O   0  5  0  0  0  0
   -5.2755   -1.0044    1.5664 H   0  0  0  0  0  0
   -2.8291   -0.8612    1.3396 H   0  0  0  0  0  0
   -3.2979    1.9382   -1.8587 H   0  0  0  0  0  0
   -5.7434    1.7846   -1.6281 H   0  0  0  0  0  0
   -1.1052    1.4613   -0.6927 H   0  0  0  0  0  0
    1.0523   -0.0423   -1.2054 H   0  0  0  0  0  0
    1.0928    0.4242    0.5119 H   0  0  0  0  0  0
    1.0818   -1.9687    1.1621 H   0  0  0  0  0  0
    1.0413   -2.4352   -0.5551 H   0  0  0  0  0  0
    3.2449   -0.8127    0.7971 H   0  0  0  0  0  0
    5.2864   -1.8119   -0.9539 H   0  0  0  0  0  0
    4.7194    0.3392   -3.0423 H   0  0  0  0  0  0
    6.2716   -0.4865   -2.7639 H   0  0  0  0  0  0
    4.8795   -1.3979   -3.3960 H   0  0  0  0  0  0
    6.1520    1.4494    1.9265 H   0  0  0  0  0  0
    8.9090    1.7035    0.7381 H   0  0  0  0  0  0
    8.4247    1.3821    2.4355 H   0  0  0  0  0  0
    9.3886   -0.6508    0.8988 H   0  0  0  0  0  0
    7.9936   -0.9473    1.9898 H   0  0  0  0  0  0
    7.0788   -1.5985   -0.1383 H   0  0  0  0  0  0
    7.9640   -0.3078   -1.0074 H   0  0  0  0  0  0
  1  2  1  0  0  0
  2  3  1  0  0  0
  2  7  2  0  0  0
  3  4  2  0  0  0
  3 32  1  0  0  0
  4  5  1  0  0  0
  4 33  1  0  0  0
  5  6  2  0  0  0
  5  8  1  0  0  0
  6  7  1  0  0  0
  6 34  1  0  0  0
  7 35  1  0  0  0
  8  9  1  0  0  0
  8 36  1  0  0  0
  9 10  2  0  0  0
  9 11  1  0  0  0
 11 12  1  0  0  0
 11 37  1  0  0  0
 11 38  1  0  0  0
 12 13  1  0  0  0
 12 39  1  0  0  0
 12 40  1  0  0  0
 13 14  1  0  0  0
 13 29  1  0  0  0
 13 41  1  0  0  0
 14 15  1  0  0  0
 14 16  1  0  0  0
 14 17  1  0  0  0
 17 18  1  0  0  0
 17 19  1  0  0  0
 17 42  1  0  0  0
 18 43  1  0  0  0
 18 44  1  0  0  0
 18 45  1  0  0  0
 19 20  2  0  0  0
 19 21  1  0  0  0
 21 22  1  0  0  0
 21 25  1  0  0  0
 22 23  1  0  0  0
 22 26  1  0  0  0
 22 46  1  0  0  0
 23 24  1  0  0  0
 23 47  1  0  0  0
 23 48  1  0  0  0
 24 25  1  0  0  0
 24 49  1  0  0  0
 24 50  1  0  0  0
 25 51  1  0  0  0
 25 52  1  0  0  0
 26 27  2  0  0  0
 26 28  1  0  0  0
 29 30  2  0  0  0
 29 31  1  0  0  0
M  CHG  3  14   1  28  -1  31  -1
M  END
>  <Activity>
9.64

>  <set>
2

>  <Min_dist>
0.232323

>  <Avg_dist>
0.50029

$$$$
MOL_23
  Cerius2 12110214443D 1   1.00000                          
 
 52 54  0  0  0  0  0  0  0  0999 V2000
   -5.1457    1.8323    1.0480 S   0  0  0  0  0  0
   -3.9053    1.1642   -0.1041 C   0  0  0  0  0  0
   -3.5118    2.5911   -1.1704 S   0  0  0  0  0  0
   -4.0311    4.0157   -0.1311 C   0  0  0  0  0  0
   -5.3644    3.5746    0.5267 C   0  0  0  0  0  0
   -2.6749    0.6283    0.6149 C   0  0  0  0  0  0
   -2.8044   -0.8416    0.6322 N   0  0  0  0  0  0
   -4.0913   -1.2100    0.0099 C   0  0  0  0  0  0
   -4.4517   -0.0145   -0.9135 C   0  0  0  0  0  0
   -3.9380   -2.4704   -0.8018 C   0  0  0  0  0  0
   -4.9495   -3.2162   -1.0186 O   0  0  0  0  0  0
   -2.7968   -2.7911   -1.2720 O   0  5  0  0  0  0
   -1.8980   -1.7044    1.1325 C   0  0  0  0  0  0
   -2.1542   -2.8886    1.1882 O   0  0  0  0  0  0
   -0.5660   -1.1979    1.6227 C   0  0  0  0  0  0
    0.6320   -1.2105    0.2487 P   0  0  0  0  0  0
    0.7929   -2.6529   -0.2811 O   0  0  0  0  0  0
    0.1209   -0.2982   -0.8886 O   0  5  0  0  0  0
    2.2433   -0.5977    0.8417 C   0  0  0  0  0  0
    3.2487   -0.6083   -0.3115 C   0  0  0  0  0  0
    4.6010   -0.0940    0.1862 C   0  0  0  0  0  0
    5.6065   -0.1046   -0.9670 C   0  0  0  0  0  0
    6.9385    0.4019   -0.4768 C   0  0  0  0  0  0
    7.8682   -0.4830    0.0363 C   0  0  0  0  0  0
    9.0900   -0.0184    0.4860 C   0  0  0  0  0  0
    9.3822    1.3312    0.4222 C   0  0  0  0  0  0
    8.4528    2.2161   -0.0917 C   0  0  0  0  0  0
    7.2327    1.7509   -0.5454 C   0  0  0  0  0  0
   -3.2814    4.2190    0.6336 H   0  0  0  0  0  0
   -4.1891    4.8982   -0.7509 H   0  0  0  0  0  0
   -6.1782    3.6485   -0.1946 H   0  0  0  0  0  0
   -5.5767    4.1994    1.3942 H   0  0  0  0  0  0
   -1.7723    0.9174    0.0765 H   0  0  0  0  0  0
   -2.6413    1.0124    1.6344 H   0  0  0  0  0  0
   -4.8571   -1.3421    0.7742 H   0  0  0  0  0  0
   -5.5307    0.0674   -1.0452 H   0  0  0  0  0  0
   -3.9465   -0.0966   -1.8759 H   0  0  0  0  0  0
   -0.6795   -0.1803    1.9965 H   0  0  0  0  0  0
   -0.2054   -1.8415    2.4251 H   0  0  0  0  0  0
    2.1298    0.4199    1.2154 H   0  0  0  0  0  0
    2.6039   -1.2414    1.6441 H   0  0  0  0  0  0
    3.3622   -1.6259   -0.6852 H   0  0  0  0  0  0
    2.8882    0.0353   -1.1138 H   0  0  0  0  0  0
    4.4876    0.9236    0.5600 H   0  0  0  0  0  0
    4.9616   -0.7377    0.9886 H   0  0  0  0  0  0
    5.7200   -1.1222   -1.3407 H   0  0  0  0  0  0
    5.2459    0.5390   -1.7693 H   0  0  0  0  0  0
    7.6399   -1.5375    0.0862 H   0  0  0  0  0  0
    9.8161   -0.7097    0.8876 H   0  0  0  0  0  0
   10.3365    1.6944    0.7742 H   0  0  0  0  0  0
    8.6810    3.2706   -0.1413 H   0  0  0  0  0  0
    6.5066    2.4422   -0.9469 H   0  0  0  0  0  0
  1  2  1  0  0  0
  1  5  1  0  0  0
  2  3  1  0  0  0
  2  6  1  0  0  0
  2  9  1  0  0  0
  3  4  1  0  0  0
  4  5  1  0  0  0
  4 29  1  0  0  0
  4 30  1  0  0  0
  5 31  1  0  0  0
  5 32  1  0  0  0
  6  7  1  0  0  0
  6 33  1  0  0  0
  6 34  1  0  0  0
  7  8  1  0  0  0
  7 13  1  0  0  0
  8  9  1  0  0  0
  8 10  1  0  0  0
  8 35  1  0  0  0
  9 36  1  0  0  0
  9 37  1  0  0  0
 10 11  2  0  0  0
 10 12  1  0  0  0
 13 14  2  0  0  0
 13 15  1  0  0  0
 15 16  1  0  0  0
 15 38  1  0  0  0
 15 39  1  0  0  0
 16 17  2  0  0  0
 16 18  1  0  0  0
 16 19  1  0  0  0
 19 20  1  0  0  0
 19 40  1  0  0  0
 19 41  1  0  0  0
 20 21  1  0  0  0
 20 42  1  0  0  0
 20 43  1  0  0  0
 21 22  1  0  0  0
 21 44  1  0  0  0
 21 45  1  0  0  0
 22 23  1  0  0  0
 22 46  1  0  0  0
 22 47  1  0  0  0
 23 24  1  0  0  0
 23 28  2  0  0  0
 24 25  2  0  0  0
 24 48  1  0  0  0
 25 26  1  0  0  0
 25 49  1  0  0  0
 26 27  2  0  0  0
 26 50  1  0  0  0
 27 28  1  0  0  0
 27 51  1  0  0  0
 28 52  1  0  0  0
M  CHG  2  12  -1  18  -1
M  END
>  <Activity>
8.4

>  <set>
2

>  <Min_dist>
0.178947

>  <Avg_dist>
0.563245

$$$$
MOL_27
  Cerius2 12110214443D 1   1.00000                          
 
 59 61  0  0  0  0  0  0  0  0999 V2000
   -5.0121    0.1108    0.4616 N   0  0  0  0  0  0
   -6.3244   -0.3521   -0.0129 C   0  0  0  0  0  0
   -7.3964    0.4888    0.7120 C   0  0  0  0  0  0
   -6.6481    0.9920    1.9746 C   0  0  0  0  0  0
   -5.2175    1.2103    1.4219 C   0  0  0  0  0  0
   -6.4326   -0.1470   -1.5020 C   0  0  0  0  0  0
   -7.4980   -0.4843   -2.1164 O   0  0  0  0  0  0
   -5.4587    0.3639   -2.1476 O   0  5  0  0  0  0
   -3.8191   -0.3909    0.0853 C   0  0  0  0  0  0
   -3.7693   -1.3040   -0.7114 O   0  0  0  0  0  0
   -2.5471    0.1826    0.6546 C   0  0  0  0  0  0
   -1.3452   -0.5603    0.0676 C   0  0  0  0  0  0
   -0.0732    0.0133    0.6369 C   0  0  0  0  0  0
   -0.1228    0.9225    1.4302 O   0  0  0  0  0  0
    1.2607   -0.5477    0.2162 C   0  0  0  0  0  0
    2.2749    0.5079    0.2752 N   0  0  0  0  0  0
    3.3278    0.4785   -0.5656 C   0  0  0  0  0  0
    3.4359   -0.4238   -1.3729 O   0  0  0  0  0  0
    4.3513    1.5437   -0.5061 C   0  0  0  0  0  0
    5.4429    1.5163   -1.3755 C   0  0  0  0  0  0
    6.3942    2.5136   -1.3150 C   0  0  0  0  0  0
    6.2681    3.5392   -0.3949 C   0  0  0  0  0  0
    5.1885    3.5723    0.4697 C   0  0  0  0  0  0
    4.2271    2.5843    0.4158 C   0  0  0  0  0  0
    1.6549   -1.6869    1.1583 C   0  0  0  0  0  0
    2.9888   -2.2479    0.7376 C   0  0  0  0  0  0
    4.1556   -1.7218    1.2598 C   0  0  0  0  0  0
    5.3792   -2.2363    0.8739 C   0  0  0  0  0  0
    5.4360   -3.2773   -0.0339 C   0  0  0  0  0  0
    4.2692   -3.8040   -0.5554 C   0  0  0  0  0  0
    3.0454   -3.2924   -0.1661 C   0  0  0  0  0  0
   -2.4528    1.6675    0.2978 C   0  0  0  0  0  0
   -6.4549   -1.4070    0.2285 H   0  0  0  0  0  0
   -7.7133    1.3272    0.0917 H   0  0  0  0  0  0
   -8.2491   -0.1305    0.9903 H   0  0  0  0  0  0
   -7.0749    1.9282    2.3345 H   0  0  0  0  0  0
   -6.6527    0.2353    2.7590 H   0  0  0  0  0  0
   -4.4863    1.1514    2.2281 H   0  0  0  0  0  0
   -5.1490    2.1734    0.9162 H   0  0  0  0  0  0
   -2.5505    0.0689    1.7386 H   0  0  0  0  0  0
   -1.4124   -1.6181    0.3218 H   0  0  0  0  0  0
   -1.3418   -0.4466   -1.0164 H   0  0  0  0  0  0
    1.1901   -0.9271   -0.8032 H   0  0  0  0  0  0
    2.1886    1.2279    0.9194 H   0  0  0  0  0  0
    5.5428    0.7159   -2.0936 H   0  0  0  0  0  0
    7.2393    2.4935   -1.9871 H   0  0  0  0  0  0
    7.0160    4.3172   -0.3512 H   0  0  0  0  0  0
    5.0959    4.3757    1.1856 H   0  0  0  0  0  0
    3.3847    2.6115    1.0910 H   0  0  0  0  0  0
    1.7255   -1.3075    2.1777 H   0  0  0  0  0  0
    0.9003   -2.4723    1.1144 H   0  0  0  0  0  0
    4.1113   -0.9085    1.9690 H   0  0  0  0  0  0
    6.2908   -1.8248    1.2813 H   0  0  0  0  0  0
    6.3920   -3.6788   -0.3359 H   0  0  0  0  0  0
    4.3135   -4.6171   -1.2648 H   0  0  0  0  0  0
    2.1338   -3.7039   -0.5736 H   0  0  0  0  0  0
   -2.4493    1.7812   -0.7863 H   0  0  0  0  0  0
   -3.3090    2.1967    0.7159 H   0  0  0  0  0  0
   -1.5327    2.0823    0.7095 H   0  0  0  0  0  0
  1  2  1  0  0  0
  1  5  1  0  0  0
  1  9  1  0  0  0
  2  3  1  0  0  0
  2  6  1  0  0  0
  2 33  1  0  0  0
  3  4  1  0  0  0
  3 34  1  0  0  0
  3 35  1  0  0  0
  4  5  1  0  0  0
  4 36  1  0  0  0
  4 37  1  0  0  0
  5 38  1  0  0  0
  5 39  1  0  0  0
  6  7  2  0  0  0
  6  8  1  0  0  0
  9 10  2  0  0  0
  9 11  1  0  0  0
 11 12  1  0  0  0
 11 32  1  0  0  0
 11 40  1  0  0  0
 12 13  1  0  0  0
 12 41  1  0  0  0
 12 42  1  0  0  0
 13 14  2  0  0  0
 13 15  1  0  0  0
 15 16  1  0  0  0
 15 25  1  0  0  0
 15 43  1  0  0  0
 16 17  1  0  0  0
 16 44  1  0  0  0
 17 18  2  0  0  0
 17 19  1  0  0  0
 19 20  1  0  0  0
 19 24  2  0  0  0
 20 21  2  0  0  0
 20 45  1  0  0  0
 21 22  1  0  0  0
 21 46  1  0  0  0
 22 23  2  0  0  0
 22 47  1  0  0  0
 23 24  1  0  0  0
 23 48  1  0  0  0
 24 49  1  0  0  0
 25 26  1  0  0  0
 25 50  1  0  0  0
 25 51  1  0  0  0
 26 27  1  0  0  0
 26 31  2  0  0  0
 27 28  2  0  0  0
 27 52  1  0  0  0
 28 29  1  0  0  0
 28 53  1  0  0  0
 29 30  2  0  0  0
 29 54  1  0  0  0
 30 31  1  0  0  0
 30 55  1  0  0  0
 31 56  1  0  0  0
 32 57  1  0  0  0
 32 58  1  0  0  0
 32 59  1  0  0  0
M  CHG  1   8  -1
M  END
>  <Activity>
8.52

>  <set>
2

>  <Min_dist>
0.020833

>  <Avg_dist>
0.458324

$$$$
MOL_28
  Cerius2 12110214443D 1   1.00000                          
 
 56 58  0  0  0  0  0  0  0  0999 V2000
   -2.5498   -1.0715   -0.6575 N   0  0  0  0  0  0
   -1.4418   -2.0271   -0.5141 C   0  0  0  0  0  0
   -1.0115   -2.4463   -1.9356 C   0  0  0  0  0  0
   -2.2723   -2.1375   -2.7856 C   0  0  0  0  0  0
   -2.8087   -0.8598   -2.0933 C   0  0  0  0  0  0
   -0.2698   -1.3603    0.2089 C   0  0  0  0  0  0
    0.8677   -2.2886    0.2574 N   0  3  0  0  0  0
    0.6244   -3.0895    0.8207 H   0  0  0  0  0  0
    1.0946   -2.5916   -0.6779 H   0  0  0  0  0  0
    2.0290   -1.6095    0.8474 C   0  0  0  0  0  0
    3.1855   -2.6020    0.9832 C   0  0  0  0  0  0
    2.4488   -0.4677   -0.0420 C   0  0  0  0  0  0
    2.0986   -0.4430   -1.2029 O   0  0  0  0  0  0
    3.2133    0.5259    0.4525 N   0  0  0  0  0  0
    3.6923    1.6944   -0.3004 C   0  0  0  0  0  0
    4.5026    2.5697    0.6788 C   0  0  0  0  0  0
    3.9606    2.1329    2.0654 C   0  0  0  0  0  0
    3.7024    0.6245    1.8398 C   0  0  0  0  0  0
    4.5744    1.2454   -1.4368 C   0  0  0  0  0  0
    5.0737    2.0701   -2.1838 O   0  0  0  0  0  0
    4.7890    0.0572   -1.6094 O   0  5  0  0  0  0
   -0.6846   -1.0003    1.6122 C   0  0  0  0  0  0
   -0.6419   -1.8405    2.4953 O   0  0  0  0  0  0
   -1.0630    0.1313    1.8649 O   0  5  0  0  0  0
   -3.2216   -0.4899    0.3559 C   0  0  0  0  0  0
   -3.2254   -1.0047    1.4571 O   0  0  0  0  0  0
   -3.9537    0.7742    0.1283 C   0  0  0  0  0  0
   -4.7707    1.3012    1.1298 C   0  0  0  0  0  0
   -5.4507    2.4814    0.9111 C   0  0  0  0  0  0
   -5.3246    3.1422   -0.2979 C   0  0  0  0  0  0
   -4.5164    2.6253   -1.2949 C   0  0  0  0  0  0
   -3.8263    1.4489   -1.0869 C   0  0  0  0  0  0
   -1.7760   -2.9011    0.0449 H   0  0  0  0  0  0
   -0.1634   -1.8507   -2.2732 H   0  0  0  0  0  0
   -0.7749   -3.5098   -1.9691 H   0  0  0  0  0  0
   -2.0045   -1.9367   -3.8229 H   0  0  0  0  0  0
   -2.9958   -2.9501   -2.7208 H   0  0  0  0  0  0
   -3.8782   -0.7510   -2.2739 H   0  0  0  0  0  0
   -2.2716    0.0190   -2.4500 H   0  0  0  0  0  0
    0.0211   -0.4568   -0.3271 H   0  0  0  0  0  0
    1.7633   -1.2244    1.8319 H   0  0  0  0  0  0
    3.5176   -2.9107   -0.0081 H   0  0  0  0  0  0
    4.0120   -2.1268    1.5116 H   0  0  0  0  0  0
    2.8508   -3.4756    1.5426 H   0  0  0  0  0  0
    2.8441    2.2590   -0.6876 H   0  0  0  0  0  0
    5.5681    2.3554    0.5963 H   0  0  0  0  0  0
    4.3061    3.6274    0.5036 H   0  0  0  0  0  0
    4.7067    2.2912    2.8441 H   0  0  0  0  0  0
    3.0329    2.6532    2.3038 H   0  0  0  0  0  0
    2.9491    0.2599    2.5381 H   0  0  0  0  0  0
    4.6285    0.0604    1.9508 H   0  0  0  0  0  0
   -4.8705    0.7859    2.0737 H   0  0  0  0  0  0
   -6.0832    2.8902    1.6852 H   0  0  0  0  0  0
   -5.8597    4.0655   -0.4643 H   0  0  0  0  0  0
   -4.4222    3.1460   -2.2363 H   0  0  0  0  0  0
   -3.1955    1.0466   -1.8658 H   0  0  0  0  0  0
  1  2  1  0  0  0
  1  5  1  0  0  0
  1 25  1  0  0  0
  2  3  1  0  0  0
  2  6  1  0  0  0
  2 33  1  0  0  0
  3  4  1  0  0  0
  3 34  1  0  0  0
  3 35  1  0  0  0
  4  5  1  0  0  0
  4 36  1  0  0  0
  4 37  1  0  0  0
  5 38  1  0  0  0
  5 39  1  0  0  0
  6  7  1  0  0  0
  6 22  1  0  0  0
  6 40  1  0  0  0
  7  8  1  0  0  0
  7  9  1  0  0  0
  7 10  1  0  0  0
 10 11  1  0  0  0
 10 12  1  0  0  0
 10 41  1  0  0  0
 11 42  1  0  0  0
 11 43  1  0  0  0
 11 44  1  0  0  0
 12 13  2  0  0  0
 12 14  1  0  0  0
 14 15  1  0  0  0
 14 18  1  0  0  0
 15 16  1  0  0  0
 15 19  1  0  0  0
 15 45  1  0  0  0
 16 17  1  0  0  0
 16 46  1  0  0  0
 16 47  1  0  0  0
 17 18  1  0  0  0
 17 48  1  0  0  0
 17 49  1  0  0  0
 18 50  1  0  0  0
 18 51  1  0  0  0
 19 20  2  0  0  0
 19 21  1  0  0  0
 22 23  2  0  0  0
 22 24  1  0  0  0
 25 26  2  0  0  0
 25 27  1  0  0  0
 27 28  1  0  0  0
 27 32  2  0  0  0
 28 29  2  0  0  0
 28 52  1  0  0  0
 29 30  1  0  0  0
 29 53  1  0  0  0
 30 31  2  0  0  0
 30 54  1  0  0  0
 31 32  1  0  0  0
 31 55  1  0  0  0
 32 56  1  0  0  0
M  CHG  3   7   1  21  -1  24  -1
M  END
>  <Activity>
8.54

>  <set>
2

>  <Min_dist>
0.258824

>  <Avg_dist>
0.530932

$$$$
MOL_32
  Cerius2 12110214443D 1   1.00000                          
 
 27 26  0  0  0  0  0  0  0  0999 V2000
    4.8389    0.1268   -0.2501 S   0  0  0  0  0  0
    3.2230   -0.1540    0.5249 C   0  0  0  0  0  0
    2.1141    0.2729   -0.4389 C   0  0  0  0  0  0
    0.7716    0.0397    0.2049 C   0  0  0  0  0  0
    0.7081   -0.4226    1.3244 O   0  0  0  0  0  0
   -0.3584    0.3447   -0.4633 N   0  0  0  0  0  0
   -1.6634    0.1179    0.1626 C   0  0  0  0  0  0
   -2.6680    1.1432   -0.3669 C   0  0  0  0  0  0
   -4.0309    0.9064    0.2868 C   0  0  0  0  0  0
   -2.1805    2.5545   -0.0328 C   0  0  0  0  0  0
   -2.1436   -1.2721   -0.1665 C   0  0  0  0  0  0
   -1.8163   -1.7975   -1.2174 O   0  0  0  0  0  0
   -2.8594   -1.8717    0.6181 O   0  5  0  0  0  0
    5.6481   -0.3016    0.7352 H   0  0  0  0  0  0
    3.1120   -1.2124    0.7605 H   0  0  0  0  0  0
    3.1530    0.4315    1.4416 H   0  0  0  0  0  0
    2.2250    1.3314   -0.6745 H   0  0  0  0  0  0
    2.1840   -0.3126   -1.3556 H   0  0  0  0  0  0
   -0.3075    0.7144   -1.3586 H   0  0  0  0  0  0
   -1.5713    0.2241    1.2435 H   0  0  0  0  0  0
   -2.7601    1.0370   -1.4478 H   0  0  0  0  0  0
   -4.7466    1.6368   -0.0904 H   0  0  0  0  0  0
   -4.3782   -0.0990    0.0487 H   0  0  0  0  0  0
   -3.9389    1.0126    1.3677 H   0  0  0  0  0  0
   -2.0884    2.6607    1.0481 H   0  0  0  0  0  0
   -1.2095    2.7232   -0.4984 H   0  0  0  0  0  0
   -2.8962    3.2849   -0.4100 H   0  0  0  0  0  0
  1  2  1  0  0  0
  1 14  1  0  0  0
  2  3  1  0  0  0
  2 15  1  0  0  0
  2 16  1  0  0  0
  3  4  1  0  0  0
  3 17  1  0  0  0
  3 18  1  0  0  0
  4  5  2  0  0  0
  4  6  1  0  0  0
  6  7  1  0  0  0
  6 19  1  0  0  0
  7  8  1  0  0  0
  7 11  1  0  0  0
  7 20  1  0  0  0
  8  9  1  0  0  0
  8 10  1  0  0  0
  8 21  1  0  0  0
  9 22  1  0  0  0
  9 23  1  0  0  0
  9 24  1  0  0  0
 10 25  1  0  0  0
 10 26  1  0  0  0
 10 27  1  0  0  0
 11 12  2  0  0  0
 11 13  1  0  0  0
M  CHG  1  13  -1
M  END
>  <Activity>
5.8

>  <set>
2

>  <Min_dist>
0.093023

>  <Avg_dist>
0.584123

$$$$
MOL_35
  Cerius2 12110214443D 1   1.00000                          
 
 23 23  0  0  0  0  0  0  0  0999 V2000
    4.4788   -0.0802   -0.0761 S   0  0  0  0  0  0
    2.8173    0.6428    0.0096 C   0  0  0  0  0  0
    1.7749   -0.4767    0.0418 C   0  0  0  0  0  0
    0.3947    0.1240    0.1130 C   0  0  0  0  0  0
    0.2607    1.3240    0.2277 O   0  0  0  0  0  0
   -0.6909   -0.6723    0.0492 N   0  0  0  0  0  0
   -0.6702   -2.1419    0.0559 C   0  0  0  0  0  0
   -2.1546   -2.5428   -0.0329 C   0  0  0  0  0  0
   -2.8935   -1.2247   -0.0827 C   0  0  0  0  0  0
   -2.0114   -0.2323   -0.0275 C   0  0  0  0  0  0
   -2.3906    1.1905   -0.0543 C   0  0  0  0  0  0
   -3.6235    1.5253    0.0118 O   0  0  0  0  0  0
   -1.4870    2.0917   -0.1436 O   0  5  0  0  0  0
    5.2209    1.0414   -0.0946 H   0  0  0  0  0  0
    2.7300    1.2467    0.9128 H   0  0  0  0  0  0
    2.6489    1.2710   -0.8651 H   0  0  0  0  0  0
    1.8623   -1.0805   -0.8615 H   0  0  0  0  0  0
    1.9434   -1.1049    0.9165 H   0  0  0  0  0  0
   -0.1211   -2.5194   -0.8067 H   0  0  0  0  0  0
   -0.2298   -2.5128    0.9814 H   0  0  0  0  0  0
   -2.3405   -3.1187   -0.9395 H   0  0  0  0  0  0
   -2.4493   -3.1121    0.8487 H   0  0  0  0  0  0
   -3.9652   -1.1084   -0.1483 H   0  0  0  0  0  0
  1  2  1  0  0  0
  1 14  1  0  0  0
  2  3  1  0  0  0
  2 15  1  0  0  0
  2 16  1  0  0  0
  3  4  1  0  0  0
  3 17  1  0  0  0
  3 18  1  0  0  0
  4  5  2  0  0  0
  4  6  1  0  0  0
  6  7  1  0  0  0
  6 10  1  0  0  0
  7  8  1  0  0  0
  7 19  1  0  0  0
  7 20  1  0  0  0
  8  9  1  0  0  0
  8 21  1  0  0  0
  8 22  1  0  0  0
  9 10  2  0  0  0
  9 23  1  0  0  0
 10 11  1  0  0  0
 11 12  2  0  0  0
 11 13  1  0  0  0
M  CHG  1  13  -1
M  END
>  <Activity>
6.19

>  <set>
2

>  <Min_dist>
0.181818

>  <Avg_dist>
0.596529

$$$$
MOL_36
  Cerius2 12110214443D 1   1.00000                          
 
 21 20  0  0  0  0  0  0  0  0999 V2000
    4.8873   -0.3692    0.0000 S   0  0  0  0  0  0
    3.2937    0.4975    0.0000 C   0  0  0  0  0  0
    2.1565   -0.5260    0.0000 C   0  0  0  0  0  0
    0.8326    0.1940    0.0000 C   0  0  0  0  0  0
    0.8018    1.4064    0.0000 O   0  0  0  0  0  0
   -0.3170   -0.5094    0.0000 N   0  0  0  0  0  0
   -1.6040    0.1906    0.0000 C   0  0  0  0  0  0
   -2.7412   -0.8330    0.0000 C   0  0  0  0  0  0
   -4.0651   -0.1129    0.0000 C   0  0  0  0  0  0
   -5.1055   -0.7495    0.0000 O   0  0  0  0  0  0
   -4.0961    1.1063    0.0000 O   0  5  0  0  0  0
    5.7253    0.6828    0.0000 H   0  0  0  0  0  0
    3.2200    1.1225    0.8900 H   0  0  0  0  0  0
    3.2200    1.1225   -0.8900 H   0  0  0  0  0  0
    2.2302   -1.1510   -0.8900 H   0  0  0  0  0  0
    2.2302   -1.1510    0.8900 H   0  0  0  0  0  0
   -0.2923   -1.4791    0.0000 H   0  0  0  0  0  0
   -1.6777    0.8156    0.8900 H   0  0  0  0  0  0
   -1.6777    0.8155   -0.8900 H   0  0  0  0  0  0
   -2.6675   -1.4580   -0.8900 H   0  0  0  0  0  0
   -2.6675   -1.4579    0.8900 H   0  0  0  0  0  0
  1  2  1  0  0  0
  1 12  1  0  0  0
  2  3  1  0  0  0
  2 13  1  0  0  0
  2 14  1  0  0  0
  3  4  1  0  0  0
  3 15  1  0  0  0
  3 16  1  0  0  0
  4  5  2  0  0  0
  4  6  1  0  0  0
  6  7  1  0  0  0
  6 17  1  0  0  0
  7  8  1  0  0  0
  7 18  1  0  0  0
  7 19  1  0  0  0
  8  9  1  0  0  0
  8 20  1  0  0  0
  8 21  1  0  0  0
  9 10  2  0  0  0
  9 11  1  0  0  0
M  CHG  1  11  -1
M  END
>  <Activity>
2.7

>  <set>
2

>  <Min_dist>
0.15

>  <Avg_dist>
0.651491

$$$$
MOL_39
  Cerius2 12110214443D 1   1.00000                          
 
 34 34  0  0  0  0  0  0  0  0999 V2000
    4.9234   -0.0688   -0.0678 S   0  0  0  0  0  0
    3.3008   -0.1591    0.7382 C   0  0  0  0  0  0
    2.2439   -0.5723   -0.2880 C   0  0  0  0  0  0
    0.8959   -0.6474    0.3815 C   0  0  0  0  0  0
    0.7909   -0.3952    1.5632 O   0  0  0  0  0  0
   -0.1929   -0.9947   -0.3328 N   0  0  0  0  0  0
   -1.5034   -1.0677    0.3182 C   0  0  0  0  0  0
   -2.4632   -0.0854   -0.3561 C   0  0  0  0  0  0
   -1.9182    1.3142   -0.2327 C   0  0  0  0  0  0
   -1.0817    1.8190   -1.2107 C   0  0  0  0  0  0
   -0.5818    3.1028   -1.0975 C   0  0  0  0  0  0
   -0.9187    3.8820   -0.0065 C   0  0  0  0  0  0
   -1.7559    3.3775    0.9710 C   0  0  0  0  0  0
   -2.2593    2.0953    0.8556 C   0  0  0  0  0  0
   -2.0483   -2.4673    0.1948 C   0  0  0  0  0  0
   -1.7379   -3.1860   -0.8119 O   0  0  0  0  0  0
   -2.8200   -2.9329    1.0970 O   0  5  0  0  0  0
   -0.0661   -1.2994   -1.7601 C   0  0  0  0  0  0
    5.6839    0.2990    0.9788 H   0  0  0  0  0  0
    3.3346   -0.8951    1.5414 H   0  0  0  0  0  0
    3.0450    0.8170    1.1503 H   0  0  0  0  0  0
    2.2101    0.1637   -1.0913 H   0  0  0  0  0  0
    2.4997   -1.5484   -0.7002 H   0  0  0  0  0  0
   -1.4004   -0.8095    1.3721 H   0  0  0  0  0  0
   -2.5661   -0.3436   -1.4101 H   0  0  0  0  0  0
   -3.4382   -0.1396    0.1282 H   0  0  0  0  0  0
   -0.8186    1.2102   -2.0631 H   0  0  0  0  0  0
    0.0722    3.4969   -1.8613 H   0  0  0  0  0  0
   -0.5275    4.8847    0.0823 H   0  0  0  0  0  0
   -2.0188    3.9862    1.8235 H   0  0  0  0  0  0
   -2.9133    1.7012    1.6193 H   0  0  0  0  0  0
    0.9754   -1.1924   -2.0633 H   0  0  0  0  0  0
   -0.3948   -2.3222   -1.9439 H   0  0  0  0  0  0
   -0.6845   -0.6101   -2.3351 H   0  0  0  0  0  0
  1  2  1  0  0  0
  1 19  1  0  0  0
  2  3  1  0  0  0
  2 20  1  0  0  0
  2 21  1  0  0  0
  3  4  1  0  0  0
  3 22  1  0  0  0
  3 23  1  0  0  0
  4  5  2  0  0  0
  4  6  1  0  0  0
  6  7  1  0  0  0
  6 18  1  0  0  0
  7  8  1  0  0  0
  7 15  1  0  0  0
  7 24  1  0  0  0
  8  9  1  0  0  0
  8 25  1  0  0  0
  8 26  1  0  0  0
  9 10  1  0  0  0
  9 14  2  0  0  0
 10 11  2  0  0  0
 10 27  1  0  0  0
 11 12  1  0  0  0
 11 28  1  0  0  0
 12 13  2  0  0  0
 12 29  1  0  0  0
 13 14  1  0  0  0
 13 30  1  0  0  0
 14 31  1  0  0  0
 15 16  2  0  0  0
 15 17  1  0  0  0
 18 32  1  0  0  0
 18 33  1  0  0  0
 18 34  1  0  0  0
M  CHG  1  17  -1
M  END
>  <Activity>
4.51

>  <set>
2

>  <Min_dist>
0.1

>  <Avg_dist>
0.563303

$$$$
MOL_40
  Cerius2 12110214443D 1   1.00000                          
 
 21 20  0  0  0  0  0  0  0  0999 V2000
    4.1501    0.0655   -0.3684 S   0  0  0  0  0  0
    2.5260    0.6730    0.1646 C   0  0  0  0  0  0
    1.4930   -0.4474    0.0298 C   0  0  0  0  0  0
    0.1438    0.0573    0.4725 C   0  0  0  0  0  0
    0.0207    1.2006    0.8579 O   0  0  0  0  0  0
   -0.9260   -0.7619    0.4402 N   0  0  0  0  0  0
   -2.2375   -0.2712    0.8706 C   0  0  0  0  0  0
   -2.9670    0.3149   -0.3107 C   0  0  0  0  0  0
   -4.0845    0.7820   -0.1669 O   0  0  0  0  0  0
   -2.4400    0.3220   -1.4106 O   0  5  0  0  0  0
   -0.7772   -2.1429   -0.0254 C   0  0  0  0  0  0
    4.8885    1.1730   -0.1756 H   0  0  0  0  0  0
    2.5814    0.9930    1.2051 H   0  0  0  0  0  0
    2.2309    1.5164   -0.4597 H   0  0  0  0  0  0
    1.4377   -0.7674   -1.0108 H   0  0  0  0  0  0
    1.7882   -1.2908    0.6540 H   0  0  0  0  0  0
   -2.8173   -1.0973    1.2823 H   0  0  0  0  0  0
   -2.1060    0.4961    1.6335 H   0  0  0  0  0  0
    0.2618   -2.3236   -0.3009 H   0  0  0  0  0  0
   -1.0661   -2.8281    0.7716 H   0  0  0  0  0  0
   -1.4166   -2.3047   -0.8932 H   0  0  0  0  0  0
  1  2  1  0  0  0
  1 12  1  0  0  0
  2  3  1  0  0  0
  2 13  1  0  0  0
  2 14  1  0  0  0
  3  4  1  0  0  0
  3 15  1  0  0  0
  3 16  1  0  0  0
  4  5  2  0  0  0
  4  6  1  0  0  0
  6  7  1  0  0  0
  6 11  1  0  0  0
  7  8  1  0  0  0
  7 17  1  0  0  0
  7 18  1  0  0  0
  8  9  2  0  0  0
  8 10  1  0  0  0
 11 19  1  0  0  0
 11 20  1  0  0  0
 11 21  1  0  0  0
M  CHG  1  10  -1
M  END
>  <Activity>
5.52

>  <set>
2

>  <Min_dist>
0.139535

>  <Avg_dist>
0.621848

$$$$
MOL_44
  Cerius2 12110214443D 1   1.00000                          
 
 31 30  0  0  0  0  0  0  0  0999 V2000
    0.5265    0.0886   -0.4803 N   0  0  0  0  0  0
   -0.6258    0.2198    0.2065 C   0  0  0  0  0  0
   -0.6105    0.6525    1.3394 O   0  0  0  0  0  0
   -1.9330   -0.1711   -0.4333 C   0  0  0  0  0  0
   -3.0770    0.0749    0.5525 C   0  0  0  0  0  0
   -4.3842   -0.3160   -0.0873 C   0  0  0  0  0  0
   -5.4269   -0.1972    0.5342 O   0  0  0  0  0  0
   -4.3995   -0.7511   -1.2266 O   0  5  0  0  0  0
    1.7973    0.4685    0.1417 C   0  0  0  0  0  0
    2.9229   -0.3972   -0.4280 C   0  0  0  0  0  0
    2.6317   -1.8702   -0.1345 C   0  0  0  0  0  0
    3.7573   -2.7359   -0.7042 C   0  0  0  0  0  0
    2.5422   -2.0808    1.3783 C   0  0  0  0  0  0
    2.0840    1.9195   -0.1474 C   0  0  0  0  0  0
    1.6768    2.4279   -1.1786 O   0  0  0  0  0  0
    2.7233    2.5854    0.6498 O   0  5  0  0  0  0
    0.5147   -0.2612   -1.3849 H   0  0  0  0  0  0
   -2.0916    0.4272   -1.3305 H   0  0  0  0  0  0
   -1.9050   -1.2273   -0.7012 H   0  0  0  0  0  0
   -2.9183   -0.5234    1.4497 H   0  0  0  0  0  0
   -3.1050    1.1311    0.8203 H   0  0  0  0  0  0
    1.7335    0.3185    1.2194 H   0  0  0  0  0  0
    2.9866   -0.2471   -1.5057 H   0  0  0  0  0  0
    3.8684   -0.1144    0.0348 H   0  0  0  0  0  0
    1.6862   -2.1529   -0.5972 H   0  0  0  0  0  0
    3.5499   -3.7854   -0.4951 H   0  0  0  0  0  0
    3.8211   -2.5859   -1.7819 H   0  0  0  0  0  0
    4.7028   -2.4532   -0.2414 H   0  0  0  0  0  0
    3.4877   -1.7981    1.8411 H   0  0  0  0  0  0
    1.7403   -1.4641    1.7842 H   0  0  0  0  0  0
    2.3348   -3.1303    1.5874 H   0  0  0  0  0  0
  1  2  1  0  0  0
  1  9  1  0  0  0
  1 17  1  0  0  0
  2  3  2  0  0  0
  2  4  1  0  0  0
  4  5  1  0  0  0
  4 18  1  0  0  0
  4 19  1  0  0  0
  5  6  1  0  0  0
  5 20  1  0  0  0
  5 21  1  0  0  0
  6  7  2  0  0  0
  6  8  1  0  0  0
  9 10  1  0  0  0
  9 14  1  0  0  0
  9 22  1  0  0  0
 10 11  1  0  0  0
 10 23  1  0  0  0
 10 24  1  0  0  0
 11 12  1  0  0  0
 11 13  1  0  0  0
 11 25  1  0  0  0
 12 26  1  0  0  0
 12 27  1  0  0  0
 12 28  1  0  0  0
 13 29  1  0  0  0
 13 30  1  0  0  0
 13 31  1  0  0  0
 14 15  2  0  0  0
 14 16  1  0  0  0
M  CHG  2   8  -1  16  -1
M  END
>  <Activity>
3.21

>  <set>
2

>  <Min_dist>
0

>  <Avg_dist>
0.586218

$$$$
MOL_48
  Cerius2 12110214443D 1   1.00000                          
 
 26 26  0  0  0  0  0  0  0  0999 V2000
   -0.0197    0.4861    0.2636 N   0  0  0  0  0  0
   -1.4000    0.0855    0.5729 C   0  0  0  0  0  0
   -2.3144    1.2748    0.2105 C   0  0  0  0  0  0
   -1.3428    2.4839    0.2475 C   0  0  0  0  0  0
   -0.0372    1.8505   -0.2945 C   0  0  0  0  0  0
   -1.7795   -1.1210   -0.2465 C   0  0  0  0  0  0
   -2.8914   -1.6094   -0.1341 O   0  0  0  0  0  0
   -0.9746   -1.6090   -1.0222 O   0  5  0  0  0  0
    1.0801   -0.2671    0.4626 C   0  0  0  0  0  0
    0.9761   -1.3791    0.9354 O   0  0  0  0  0  0
    2.4391    0.2725    0.0977 C   0  0  0  0  0  0
    3.4646   -0.7322    0.4090 N   0  0  0  0  0  0
    2.4760    0.5925   -1.3980 C   0  0  0  0  0  0
   -1.4909   -0.1417    1.6351 H   0  0  0  0  0  0
   -2.7346    1.1481   -0.7872 H   0  0  0  0  0  0
   -3.1053    1.3928    0.9512 H   0  0  0  0  0  0
   -1.6897    3.2840   -0.4064 H   0  0  0  0  0  0
   -1.2078    2.8456    1.2669 H   0  0  0  0  0  0
    0.8297    2.4132    0.0519 H   0  0  0  0  0  0
   -0.0567    1.8147   -1.3837 H   0  0  0  0  0  0
    2.6348    1.1803    0.6684 H   0  0  0  0  0  0
    4.3528   -0.3298    0.1498 H   0  0  0  0  0  0
    3.4746   -0.8350    1.4127 H   0  0  0  0  0  0
    2.2803   -0.3154   -1.9687 H   0  0  0  0  0  0
    1.7150    1.3379   -1.6289 H   0  0  0  0  0  0
    3.4589    0.9827   -1.6619 H   0  0  0  0  0  0
  1  2  1  0  0  0
  1  5  1  0  0  0
  1  9  1  0  0  0
  2  3  1  0  0  0
  2  6  1  0  0  0
  2 14  1  0  0  0
  3  4  1  0  0  0
  3 15  1  0  0  0
  3 16  1  0  0  0
  4  5  1  0  0  0
  4 17  1  0  0  0
  4 18  1  0  0  0
  5 19  1  0  0  0
  5 20  1  0  0  0
  6  7  2  0  0  0
  6  8  1  0  0  0
  9 10  2  0  0  0
  9 11  1  0  0  0
 11 12  1  0  0  0
 11 13  1  0  0  0
 11 21  1  0  0  0
 12 22  1  0  0  0
 12 23  1  0  0  0
 13 24  1  0  0  0
 13 25  1  0  0  0
 13 26  1  0  0  0
M  CHG  1   8  -1
M  END
>  <Activity>
3.64

>  <set>
2

>  <Min_dist>
0.098039

>  <Avg_dist>
0.569502

$$$$
MOL_54
  Cerius2 12110214443D 1   1.00000                          
 
 41 41  0  0  0  0  0  0  0  0999 V2000
    0.0264    0.3873   -0.2782 N   0  0  0  0  0  0
   -0.8528   -0.0867    0.6268 C   0  0  0  0  0  0
   -0.8606    0.3578    1.7551 O   0  0  0  0  0  0
   -1.8261   -1.1690    0.2365 C   0  0  0  0  0  0
   -2.1401   -1.9923    1.4120 N   0  0  0  0  0  0
   -3.1104   -0.5317   -0.2976 C   0  0  0  0  0  0
   -4.0985   -1.6305   -0.6937 C   0  0  0  0  0  0
   -5.3828   -0.9932   -1.2278 C   0  0  0  0  0  0
   -3.7335    0.3472    0.7888 C   0  0  0  0  0  0
    0.9726    1.4394    0.1012 C   0  0  0  0  0  0
    2.2545    1.2932   -0.7211 C   0  0  0  0  0  0
    2.8707   -0.0562   -0.4552 C   0  0  0  0  0  0
    2.5208   -1.1418   -1.2362 C   0  0  0  0  0  0
    3.0859   -2.3795   -0.9923 C   0  0  0  0  0  0
    4.0012   -2.5316    0.0324 C   0  0  0  0  0  0
    4.3518   -1.4458    0.8129 C   0  0  0  0  0  0
    3.7899   -0.2071    0.5662 C   0  0  0  0  0  0
    0.3564    2.7888   -0.1647 C   0  0  0  0  0  0
   -0.4877    2.9292   -1.1103 O   0  0  0  0  0  0
    0.6792    3.7903    0.5558 O   0  5  0  0  0  0
    0.0353    0.0289   -1.1795 H   0  0  0  0  0  0
   -1.3821   -1.7951   -0.5374 H   0  0  0  0  0  0
   -2.5465   -1.3745    2.0984 H   0  0  0  0  0  0
   -2.8675   -2.6327    1.1315 H   0  0  0  0  0  0
   -2.8774    0.0791   -1.1697 H   0  0  0  0  0  0
   -3.6545   -2.2566   -1.4677 H   0  0  0  0  0  0
   -4.3315   -2.2414    0.1784 H   0  0  0  0  0  0
   -6.0868   -1.7760   -1.5101 H   0  0  0  0  0  0
   -5.8268   -0.3671   -0.4539 H   0  0  0  0  0  0
   -5.1498   -0.3823   -2.1000 H   0  0  0  0  0  0
   -3.9665   -0.2637    1.6610 H   0  0  0  0  0  0
   -3.0296    1.1300    1.0711 H   0  0  0  0  0  0
   -4.6485    0.8012    0.4083 H   0  0  0  0  0  0
    1.2089    1.3505    1.1615 H   0  0  0  0  0  0
    2.0182    1.3821   -1.7814 H   0  0  0  0  0  0
    2.9585    2.0760   -0.4388 H   0  0  0  0  0  0
    1.8057   -1.0229   -2.0368 H   0  0  0  0  0  0
    2.8121   -3.2278   -1.6020 H   0  0  0  0  0  0
    4.4422   -3.4987    0.2234 H   0  0  0  0  0  0
    5.0666   -1.5647    1.6136 H   0  0  0  0  0  0
    4.0637    0.6412    1.1759 H   0  0  0  0  0  0
  1  2  1  0  0  0
  1 10  1  0  0  0
  1 21  1  0  0  0
  2  3  2  0  0  0
  2  4  1  0  0  0
  4  5  1  0  0  0
  4  6  1  0  0  0
  4 22  1  0  0  0
  5 23  1  0  0  0
  5 24  1  0  0  0
  6  7  1  0  0  0
  6  9  1  0  0  0
  6 25  1  0  0  0
  7  8  1  0  0  0
  7 26  1  0  0  0
  7 27  1  0  0  0
  8 28  1  0  0  0
  8 29  1  0  0  0
  8 30  1  0  0  0
  9 31  1  0  0  0
  9 32  1  0  0  0
  9 33  1  0  0  0
 10 11  1  0  0  0
 10 18  1  0  0  0
 10 34  1  0  0  0
 11 12  1  0  0  0
 11 35  1  0  0  0
 11 36  1  0  0  0
 12 13  1  0  0  0
 12 17  2  0  0  0
 13 14  2  0  0  0
 13 37  1  0  0  0
 14 15  1  0  0  0
 14 38  1  0  0  0
 15 16  2  0  0  0
 15 39  1  0  0  0
 16 17  1  0  0  0
 16 40  1  0  0  0
 17 41  1  0  0  0
 18 19  2  0  0  0
 18 20  1  0  0  0
M  CHG  1  20  -1
M  END
>  <Activity>
3.03

>  <set>
2

>  <Min_dist>
0.04918

>  <Avg_dist>
0.540575

$$$$
MOL_55
  Cerius2 12110214443D 1   1.00000                          
 
 26 26  0  0  0  0  0  0  0  0999 V2000
    3.6226   -0.5351   -0.4800 S   0  0  0  0  0  0
    2.1577    0.5338   -0.5263 C   0  0  0  0  0  0
    1.0039   -0.1501    0.2100 C   0  0  0  0  0  0
   -0.2131    0.7378    0.1715 C   0  0  0  0  0  0
   -0.0865    1.9428    0.2247 O   0  0  0  0  0  0
   -1.4422    0.1928    0.0780 N   0  0  0  0  0  0
   -1.7469   -1.2450    0.1128 C   0  0  0  0  0  0
   -3.2739   -1.3940   -0.0534 C   0  0  0  0  0  0
   -3.6803   -0.0629   -0.7393 C   0  0  0  0  0  0
   -2.7044    0.9401   -0.0699 C   0  0  0  0  0  0
    1.4054   -0.4023    1.6646 C   0  0  0  0  0  0
    4.4924    0.2312   -1.1621 H   0  0  0  0  0  0
    2.3854    1.4835   -0.0423 H   0  0  0  0  0  0
    1.8716    0.7135   -1.5626 H   0  0  0  0  0  0
    0.7762   -1.0998   -0.2740 H   0  0  0  0  0  0
   -1.2338   -1.7526   -0.7041 H   0  0  0  0  0  0
   -1.4351   -1.6670    1.0682 H   0  0  0  0  0  0
   -3.5111   -2.2450   -0.6919 H   0  0  0  0  0  0
   -3.7598   -1.4916    0.9174 H   0  0  0  0  0  0
   -3.5171   -0.1125   -1.8159 H   0  0  0  0  0  0
   -4.7157    0.1925   -0.5140 H   0  0  0  0  0  0
   -3.0856    1.2477    0.9039 H   0  0  0  0  0  0
   -2.5543    1.8087   -0.7110 H   0  0  0  0  0  0
    1.7038    0.5383    2.1275 H   0  0  0  0  0  0
    0.5587   -0.8220    2.2077 H   0  0  0  0  0  0
    2.2399   -1.1030    1.6950 H   0  0  0  0  0  0
  1  2  1  0  0  0
  1 12  1  0  0  0
  2  3  1  0  0  0
  2 13  1  0  0  0
  2 14  1  0  0  0
  3  4  1  0  0  0
  3 11  1  0  0  0
  3 15  1  0  0  0
  4  5  2  0  0  0
  4  6  1  0  0  0
  6  7  1  0  0  0
  6 10  1  0  0  0
  7  8  1  0  0  0
  7 16  1  0  0  0
  7 17  1  0  0  0
  8  9  1  0  0  0
  8 18  1  0  0  0
  8 19  1  0  0  0
  9 10  1  0  0  0
  9 20  1  0  0  0
  9 21  1  0  0  0
 10 22  1  0  0  0
 10 23  1  0  0  0
 11 24  1  0  0  0
 11 25  1  0  0  0
 11 26  1  0  0  0
M  END
>  <Activity>
3.62

>  <set>
2

>  <Min_dist>
0.232143

>  <Avg_dist>
0.645597

$$$$
MOL_58
  Cerius2 12110214443D 1   1.00000                          
 
 26 26  0  0  0  0  0  0  0  0999 V2000
    4.5193   -0.1642   -0.1864 S   0  0  0  0  0  0
    2.9365   -0.5246    0.6232 C   0  0  0  0  0  0
    1.7979    0.1115   -0.1768 C   0  0  0  0  0  0
    0.4630   -0.1924    0.5061 C   0  0  0  0  0  0
   -0.6302    0.4183   -0.2620 N   0  0  0  0  0  0
   -1.8904    0.0868    0.4514 C   0  0  0  0  0  0
   -2.8501    1.2452    0.1046 C   0  0  0  0  0  0
   -1.9325    2.4308   -0.2588 C   0  0  0  0  0  0
   -0.4955    1.8889   -0.1008 C   0  0  0  0  0  0
   -2.4465   -1.2230   -0.0449 C   0  0  0  0  0  0
   -3.5297   -1.6829    0.4464 O   0  0  0  0  0  0
   -1.8338   -1.8714   -0.9563 O   0  5  0  0  0  0
    5.3599   -0.7949    0.6530 H   0  0  0  0  0  0
    2.7894   -1.6036    0.6695 H   0  0  0  0  0  0
    2.9436   -0.1152    1.6334 H   0  0  0  0  0  0
    1.9450    1.1905   -0.2231 H   0  0  0  0  0  0
    1.7908   -0.2979   -1.1870 H   0  0  0  0  0  0
    0.3159   -1.2715    0.5524 H   0  0  0  0  0  0
    0.4701    0.2169    1.5163 H   0  0  0  0  0  0
   -1.7185    0.0446    1.5270 H   0  0  0  0  0  0
   -3.4761    0.9763   -0.7463 H   0  0  0  0  0  0
   -3.4686    1.4954    0.9665 H   0  0  0  0  0  0
   -2.1080    2.7438   -1.2880 H   0  0  0  0  0  0
   -2.1005    3.2629    0.4248 H   0  0  0  0  0  0
   -0.1054    2.1288    0.8883 H   0  0  0  0  0  0
    0.1525    2.2985   -0.8757 H   0  0  0  0  0  0
  1  2  1  0  0  0
  1 13  1  0  0  0
  2  3  1  0  0  0
  2 14  1  0  0  0
  2 15  1  0  0  0
  3  4  1  0  0  0
  3 16  1  0  0  0
  3 17  1  0  0  0
  4  5  1  0  0  0
  4 18  1  0  0  0
  4 19  1  0  0  0
  5  6  1  0  0  0
  5  9  1  0  0  0
  6  7  1  0  0  0
  6 10  1  0  0  0
  6 20  1  0  0  0
  7  8  1  0  0  0
  7 21  1  0  0  0
  7 22  1  0  0  0
  8  9  1  0  0  0
  8 23  1  0  0  0
  8 24  1  0  0  0
  9 25  1  0  0  0
  9 26  1  0  0  0
 10 11  2  0  0  0
 10 12  1  0  0  0
M  CHG  1  12  -1
M  END
>  <Activity>
3.62

>  <set>
2

>  <Min_dist>
0.160714

>  <Avg_dist>
0.603614

$$$$
MOL_60
  Cerius2 12110214443D 1   1.00000                          
 
 19 18  0  0  0  0  0  0  0  0999 V2000
    4.3341   -0.4310    0.0000 S   0  0  0  0  0  0
    2.7768    0.4994    0.0000 C   0  0  0  0  0  0
    1.5992   -0.4773    0.0000 C   0  0  0  0  0  0
    0.3055    0.2956    0.0000 C   0  0  0  0  0  0
    0.3235    1.5031    0.0000 O   0  0  0  0  0  0
   -1.0107   -0.4383    0.0000 C   0  0  0  0  0  0
   -2.1587    0.5732    0.0000 C   0  0  0  0  0  0
   -3.4749   -0.1607    0.0000 C   0  0  0  0  0  0
   -4.5219    0.4649    0.0000 O   0  0  0  0  0  0
   -3.4931   -1.3802    0.0000 O   0  5  0  0  0  0
    5.2139    0.5863    0.0000 H   0  0  0  0  0  0
    2.7285    1.1269    0.8900 H   0  0  0  0  0  0
    2.7285    1.1268   -0.8900 H   0  0  0  0  0  0
    1.6475   -1.1048   -0.8900 H   0  0  0  0  0  0
    1.6475   -1.1048    0.8900 H   0  0  0  0  0  0
   -1.0779   -1.0640   -0.8900 H   0  0  0  0  0  0
   -1.0779   -1.0640    0.8900 H   0  0  0  0  0  0
   -2.0916    1.1990    0.8900 H   0  0  0  0  0  0
   -2.0916    1.1989   -0.8900 H   0  0  0  0  0  0
  1  2  1  0  0  0
  1 11  1  0  0  0
  2  3  1  0  0  0
  2 12  1  0  0  0
  2 13  1  0  0  0
  3  4  1  0  0  0
  3 14  1  0  0  0
  3 15  1  0  0  0
  4  5  2  0  0  0
  4  6  1  0  0  0
  6  7  1  0  0  0
  6 16  1  0  0  0
  6 17  1  0  0  0
  7  8  1  0  0  0
  7 18  1  0  0  0
  7 19  1  0  0  0
  8  9  2  0  0  0
  8 10  1  0  0  0
M  CHG  1  10  -1
M  END
>  <Activity>
5.62

>  <set>
2

>  <Min_dist>
0.178571

>  <Avg_dist>
0.750939

$$$$
MOL_61
  Cerius2 12110214443D 1   1.00000                          
 
 38 38  0  0  0  0  0  0  0  0999 V2000
    5.3228    1.1490    0.3583 S   0  0  0  0  0  0
    3.6368    1.1560   -0.3108 C   0  0  0  0  0  0
    2.9103   -0.1184    0.1239 C   0  0  0  0  0  0
    1.5095   -0.1126   -0.4320 C   0  0  0  0  0  0
    1.1298    0.8192   -1.1092 O   0  0  0  0  0  0
    0.6789   -1.1427   -0.1766 N   0  0  0  0  0  0
   -0.7063   -1.2651   -0.6539 C   0  0  0  0  0  0
   -1.2507   -2.6143   -0.1392 C   0  0  0  0  0  0
    0.0410   -3.4331    0.1226 C   0  0  0  0  0  0
    1.0109   -2.3365    0.6222 C   0  0  0  0  0  0
   -1.5387   -0.1343   -0.1067 C   0  0  0  0  0  0
   -1.0331    0.6956    0.6113 O   0  0  0  0  0  0
   -2.8419   -0.0491   -0.4168 O   0  0  0  0  0  0
   -3.6439    1.0405    0.1104 C   0  0  0  0  0  0
   -5.0827    0.9040   -0.3917 C   0  0  0  0  0  0
   -3.6305    0.9901    1.6395 C   0  0  0  0  0  0
   -3.0636    2.3754   -0.3610 C   0  0  0  0  0  0
    5.7718    2.3201   -0.1274 H   0  0  0  0  0  0
    3.1000    2.0267    0.0659 H   0  0  0  0  0  0
    3.6780    1.1975   -1.3992 H   0  0  0  0  0  0
    3.4470   -0.9891   -0.2528 H   0  0  0  0  0  0
    2.8690   -0.1598    1.2123 H   0  0  0  0  0  0
   -0.7258   -1.2489   -1.7436 H   0  0  0  0  0  0
   -1.8135   -2.4762    0.7839 H   0  0  0  0  0  0
   -1.8659   -3.0969   -0.8987 H   0  0  0  0  0  0
   -0.1247   -4.1896    0.8897 H   0  0  0  0  0  0
    0.4095   -3.8863   -0.7976 H   0  0  0  0  0  0
    2.0444   -2.6370    0.4499 H   0  0  0  0  0  0
    0.8445   -2.1364    1.6807 H   0  0  0  0  0  0
   -5.6848    1.7219    0.0040 H   0  0  0  0  0  0
   -5.0923    0.9399   -1.4811 H   0  0  0  0  0  0
   -5.4961   -0.0470   -0.0559 H   0  0  0  0  0  0
   -4.0438    0.0391    1.9753 H   0  0  0  0  0  0
   -2.6054    1.0873    1.9972 H   0  0  0  0  0  0
   -4.2325    1.8080    2.0353 H   0  0  0  0  0  0
   -3.0732    2.4113   -1.4504 H   0  0  0  0  0  0
   -3.6657    3.1933    0.0348 H   0  0  0  0  0  0
   -2.0386    2.4726   -0.0033 H   0  0  0  0  0  0
  1  2  1  0  0  0
  1 18  1  0  0  0
  2  3  1  0  0  0
  2 19  1  0  0  0
  2 20  1  0  0  0
  3  4  1  0  0  0
  3 21  1  0  0  0
  3 22  1  0  0  0
  4  5  2  0  0  0
  4  6  1  0  0  0
  6  7  1  0  0  0
  6 10  1  0  0  0
  7  8  1  0  0  0
  7 11  1  0  0  0
  7 23  1  0  0  0
  8  9  1  0  0  0
  8 24  1  0  0  0
  8 25  1  0  0  0
  9 10  1  0  0  0
  9 26  1  0  0  0
  9 27  1  0  0  0
 10 28  1  0  0  0
 10 29  1  0  0  0
 11 12  2  0  0  0
 11 13  1  0  0  0
 13 14  1  0  0  0
 14 15  1  0  0  0
 14 16  1  0  0  0
 14 17  1  0  0  0
 15 30  1  0  0  0
 15 31  1  0  0  0
 15 32  1  0  0  0
 16 33  1  0  0  0
 16 34  1  0  0  0
 16 35  1  0  0  0
 17 36  1  0  0  0
 17 37  1  0  0  0
 17 38  1  0  0  0
M  END
>  <Activity>
4.41

>  <set>
2

>  <Min_dist>
0.059702

>  <Avg_dist>
0.577516

$$$$
MOL_62
  Cerius2 12110214443D 1   1.00000                          
 
 30 30  0  0  0  0  0  0  0  0999 V2000
    4.8940    1.3625   -0.1711 S   0  0  0  0  0  0
    3.5158    0.4671    0.5969 C   0  0  0  0  0  0
    2.3765    0.3208   -0.4137 C   0  0  0  0  0  0
    1.2316   -0.4230    0.2243 C   0  0  0  0  0  0
    1.3181   -0.7977    1.3697 O   0  0  0  0  0  0
    0.1157   -0.6693   -0.4800 O   0  0  0  0  0  0
   -0.9874   -1.3860    0.1347 C   0  0  0  0  0  0
   -2.3064   -0.9214   -0.4860 C   0  0  0  0  0  0
   -2.4771    0.5579   -0.2542 C   0  0  0  0  0  0
   -1.9905    1.4630   -1.1787 C   0  0  0  0  0  0
   -2.1470    2.8199   -0.9661 C   0  0  0  0  0  0
   -2.7905    3.2717    0.1709 C   0  0  0  0  0  0
   -3.2780    2.3665    1.0950 C   0  0  0  0  0  0
   -3.1253    1.0095    0.8802 C   0  0  0  0  0  0
   -0.8167   -2.8652   -0.0971 C   0  0  0  0  0  0
    0.1897   -3.2962   -0.7511 O   0  0  0  0  0  0
   -1.6786   -3.6861    0.3608 O   0  5  0  0  0  0
    5.7619    1.3810    0.8563 H   0  0  0  0  0  0
    3.8536   -0.5210    0.9092 H   0  0  0  0  0  0
    3.1617    1.0215    1.4660 H   0  0  0  0  0  0
    2.0387    1.3090   -0.7260 H   0  0  0  0  0  0
    2.7306   -0.2336   -1.2828 H   0  0  0  0  0  0
   -0.9992   -1.1851    1.2060 H   0  0  0  0  0  0
   -2.2945   -1.1223   -1.5572 H   0  0  0  0  0  0
   -3.1345   -1.4594   -0.0245 H   0  0  0  0  0  0
   -1.4877    1.1101   -2.0670 H   0  0  0  0  0  0
   -1.7662    3.5271   -1.6880 H   0  0  0  0  0  0
   -2.9122    4.3318    0.3374 H   0  0  0  0  0  0
   -3.7805    2.7194    1.9834 H   0  0  0  0  0  0
   -3.5061    0.3023    1.6022 H   0  0  0  0  0  0
  1  2  1  0  0  0
  1 18  1  0  0  0
  2  3  1  0  0  0
  2 19  1  0  0  0
  2 20  1  0  0  0
  3  4  1  0  0  0
  3 21  1  0  0  0
  3 22  1  0  0  0
  4  5  2  0  0  0
  4  6  1  0  0  0
  6  7  1  0  0  0
  7  8  1  0  0  0
  7 15  1  0  0  0
  7 23  1  0  0  0
  8  9  1  0  0  0
  8 24  1  0  0  0
  8 25  1  0  0  0
  9 10  1  0  0  0
  9 14  2  0  0  0
 10 11  2  0  0  0
 10 26  1  0  0  0
 11 12  1  0  0  0
 11 27  1  0  0  0
 12 13  2  0  0  0
 12 28  1  0  0  0
 13 14  1  0  0  0
 13 29  1  0  0  0
 14 30  1  0  0  0
 15 16  2  0  0  0
 15 17  1  0  0  0
M  CHG  1  17  -1
M  END
>  <Activity>
6.15

>  <set>
2

>  <Min_dist>
0.5

>  <Avg_dist>
0.72355

$$$$
MOL_64
  Cerius2 12110214443D 1   1.00000                          
 
 29 29  0  0  0  0  0  0  0  0999 V2000
   -1.0196    0.4766    0.2926 N   0  0  0  0  0  0
   -2.3940    0.0407    0.5800 C   0  0  0  0  0  0
   -3.3279    1.2256    0.2553 C   0  0  0  0  0  0
   -2.3784    2.4498    0.3405 C   0  0  0  0  0  0
   -1.0590    1.8595   -0.2166 C   0  0  0  0  0  0
   -2.7477   -1.1424   -0.2839 C   0  0  0  0  0  0
   -3.9015   -1.6776   -0.1908 O   0  0  0  0  0  0
   -1.8933   -1.6083   -1.1079 O   0  5  0  0  0  0
    0.0926   -0.2635    0.4707 C   0  0  0  0  0  0
    0.0064   -1.3933    0.9031 O   0  0  0  0  0  0
    1.4433    0.3129    0.1326 C   0  0  0  0  0  0
    2.5285   -0.7252    0.4251 C   0  0  0  0  0  0
    3.8793   -0.1489    0.0871 C   0  0  0  0  0  0
    4.9317   -0.8491    0.2556 O   0  0  0  0  0  0
    3.9699    1.0392   -0.3676 O   0  5  0  0  0  0
    1.4816    0.6866   -1.3505 C   0  0  0  0  0  0
   -2.4858   -0.2259    1.6329 H   0  0  0  0  0  0
   -3.7410    1.1271   -0.7486 H   0  0  0  0  0  0
   -4.1244    1.3030    0.9953 H   0  0  0  0  0  0
   -2.7366    3.2664   -0.2864 H   0  0  0  0  0  0
   -2.2548    2.7772    1.3728 H   0  0  0  0  0  0
   -0.2041    2.4249    0.1543 H   0  0  0  0  0  0
   -1.0727    1.8622   -1.3065 H   0  0  0  0  0  0
    1.6199    1.2031    0.7363 H   0  0  0  0  0  0
    2.5013   -0.9915    1.4818 H   0  0  0  0  0  0
    2.3519   -1.6154   -0.1785 H   0  0  0  0  0  0
    1.3050   -0.2036   -1.9542 H   0  0  0  0  0  0
    0.7085    1.4262   -1.5589 H   0  0  0  0  0  0
    2.4586    1.1035   -1.5951 H   0  0  0  0  0  0
  1  2  1  0  0  0
  1  5  1  0  0  0
  1  9  1  0  0  0
  2  3  1  0  0  0
  2  6  1  0  0  0
  2 17  1  0  0  0
  3  4  1  0  0  0
  3 18  1  0  0  0
  3 19  1  0  0  0
  4  5  1  0  0  0
  4 20  1  0  0  0
  4 21  1  0  0  0
  5 22  1  0  0  0
  5 23  1  0  0  0
  6  7  2  0  0  0
  6  8  1  0  0  0
  9 10  2  0  0  0
  9 11  1  0  0  0
 11 12  1  0  0  0
 11 16  1  0  0  0
 11 24  1  0  0  0
 12 13  1  0  0  0
 12 25  1  0  0  0
 12 26  1  0  0  0
 13 14  2  0  0  0
 13 15  1  0  0  0
 16 27  1  0  0  0
 16 28  1  0  0  0
 16 29  1  0  0  0
M  CHG  2   8  -1  15  -1
M  END
>  <Activity>
4.99

>  <set>
2

>  <Min_dist>
0.032787

>  <Avg_dist>
0.5022

$$$$
MOL_67
  Cerius2 12110214443D 1   1.00000                          
 
 24 24  0  0  0  0  0  0  0  0999 V2000
   -2.4571   -0.0155    0.2364 P   0  0  0  0  0  0
   -3.8900    0.6167    0.1956 O   0  0  0  0  0  0
   -1.7296    0.4244    1.5524 O   0  5  0  0  0  0
   -2.5741   -1.5774    0.2015 O   0  5  0  0  0  0
   -1.5001    0.5546   -1.2067 C   0  0  0  0  0  0
   -0.1218   -0.0534   -1.1674 C   0  0  0  0  0  0
    0.0861   -1.1199   -1.7061 O   0  0  0  0  0  0
    0.8799    0.5879   -0.5335 N   0  0  0  0  0  0
    2.2658    0.1109   -0.4190 C   0  0  0  0  0  0
    3.0557    1.1813    0.3632 C   0  0  0  0  0  0
    2.2049    2.4620    0.1553 C   0  0  0  0  0  0
    0.7688    1.8871    0.1543 C   0  0  0  0  0  0
    2.2974   -1.1974    0.3284 C   0  0  0  0  0  0
    3.3610   -1.7597    0.5289 O   0  0  0  0  0  0
    1.2594   -1.6939    0.7327 O   0  5  0  0  0  0
   -2.0063    0.2486   -2.1222 H   0  0  0  0  0  0
   -1.4187    1.6413   -1.1824 H   0  0  0  0  0  0
    2.6973   -0.0165   -1.4118 H   0  0  0  0  0  0
    3.1119    0.9231    1.4207 H   0  0  0  0  0  0
    4.0532    1.3085   -0.0573 H   0  0  0  0  0  0
    2.3465    3.1630    0.9779 H   0  0  0  0  0  0
    2.4344    2.9326   -0.8008 H   0  0  0  0  0  0
    0.0949    2.5507   -0.3876 H   0  0  0  0  0  0
    0.4181    1.7408    1.1759 H   0  0  0  0  0  0
  1  2  2  0  0  0
  1  3  1  0  0  0
  1  4  1  0  0  0
  1  5  1  0  0  0
  5  6  1  0  0  0
  5 16  1  0  0  0
  5 17  1  0  0  0
  6  7  2  0  0  0
  6  8  1  0  0  0
  8  9  1  0  0  0
  8 12  1  0  0  0
  9 10  1  0  0  0
  9 13  1  0  0  0
  9 18  1  0  0  0
 10 11  1  0  0  0
 10 19  1  0  0  0
 10 20  1  0  0  0
 11 12  1  0  0  0
 11 21  1  0  0  0
 11 22  1  0  0  0
 12 23  1  0  0  0
 12 24  1  0  0  0
 13 14  2  0  0  0
 13 15  1  0  0  0
M  CHG  3   3  -1   4  -1  15  -1
M  END
>  <Activity>
5.08

>  <set>
2

>  <Min_dist>
0.181818

>  <Avg_dist>
0.581902

$$$$
COO_23E
  Cerius2 12110214443D 1   1.00000                          
 
 61 63  0  0  0  0  0  0  0  0999 V2000
    2.6494    1.1513    0.4483 N   0  0  0  0  0  0
    1.2284    1.0992    0.8216 C   0  0  0  0  0  0
    0.6088    2.4652    0.4586 C   0  0  0  0  0  0
    1.8413    3.4071    0.4224 C   0  0  0  0  0  0
    2.9332    2.4688   -0.1494 C   0  0  0  0  0  0
    0.5367    0.0024    0.0537 C   0  0  0  0  0  0
    0.9452   -0.3219   -1.0412 O   0  0  0  0  0  0
   -0.5360   -0.6181    0.5837 N   0  0  0  0  0  0
   -1.2084   -1.6844   -0.1628 C   0  0  0  0  0  0
   -2.6932   -1.7067    0.2056 C   0  0  0  0  0  0
   -3.3266   -0.3594   -0.1473 C   0  0  0  0  0  0
   -4.7890   -0.3814    0.2156 C   0  0  0  0  0  0
   -5.2767   -1.3766    0.7081 O   0  0  0  0  0  0
   -5.5550    0.7050   -0.0071 N   0  0  0  0  0  0
   -6.9888    0.8195    0.2975 C   0  0  0  0  0  0
   -7.4293    2.2440   -0.1003 C   0  0  0  0  0  0
   -6.0965    3.0381   -0.0808 C   0  0  0  0  0  0
   -5.0926    1.9774   -0.5906 C   0  0  0  0  0  0
   -7.7647   -0.1980   -0.4984 C   0  0  0  0  0  0
   -8.9774   -0.2643   -0.3860 O   0  0  0  0  0  0
   -7.1801   -0.9552   -1.2550 O   0  5  0  0  0  0
   -0.5845   -3.0114    0.1848 C   0  0  0  0  0  0
   -0.0761   -3.1939    1.3400 O   0  0  0  0  0  0
   -0.5651   -3.9519   -0.6762 O   0  5  0  0  0  0
    3.5457    0.1609    0.6281 C   0  0  0  0  0  0
    3.1998   -0.8861    1.1387 O   0  0  0  0  0  0
    4.8241    0.3316    0.2421 O   0  0  0  0  0  0
    5.7897   -0.7354    0.4358 C   0  0  0  0  0  0
    7.1361   -0.2937   -0.0771 C   0  0  0  0  0  0
    8.0216    0.3476    0.7689 C   0  0  0  0  0  0
    9.2566    0.7528    0.2984 C   0  0  0  0  0  0
    9.6064    0.5164   -1.0179 C   0  0  0  0  0  0
    8.7213   -0.1257   -1.8636 C   0  0  0  0  0  0
    7.4880   -0.5348   -1.3920 C   0  0  0  0  0  0
    1.1327    0.9217    1.8928 H   0  0  0  0  0  0
    0.1271    2.4228   -0.5183 H   0  0  0  0  0  0
   -0.0979    2.7840    1.2248 H   0  0  0  0  0  0
    1.6667    4.2536   -0.2417 H   0  0  0  0  0  0
    2.1033    3.7463    1.4246 H   0  0  0  0  0  0
    3.9235    2.8144    0.1469 H   0  0  0  0  0  0
    2.8579    2.4167   -1.2355 H   0  0  0  0  0  0
   -0.8628   -0.3588    1.4594 H   0  0  0  0  0  0
   -1.1021   -1.5019   -1.2322 H   0  0  0  0  0  0
   -3.1935   -2.5000   -0.3498 H   0  0  0  0  0  0
   -2.7995   -1.8891    1.2750 H   0  0  0  0  0  0
   -2.8263    0.4339    0.4081 H   0  0  0  0  0  0
   -3.2203   -0.1770   -1.2167 H   0  0  0  0  0  0
   -7.1548    0.6643    1.3636 H   0  0  0  0  0  0
   -7.8659    2.2478   -1.0990 H   0  0  0  0  0  0
   -8.1302    2.6489    0.6297 H   0  0  0  0  0  0
   -6.1410    3.8928   -0.7559 H   0  0  0  0  0  0
   -5.8450    3.3545    0.9315 H   0  0  0  0  0  0
   -4.0852    2.2124   -0.2468 H   0  0  0  0  0  0
   -5.1196    1.9216   -1.6788 H   0  0  0  0  0  0
    5.8643   -0.9695    1.4977 H   0  0  0  0  0  0
    5.4660   -1.6218   -0.1098 H   0  0  0  0  0  0
    7.7483    0.5324    1.7973 H   0  0  0  0  0  0
    9.9481    1.2545    0.9592 H   0  0  0  0  0  0
   10.5711    0.8336   -1.3856 H   0  0  0  0  0  0
    8.9945   -0.3102   -2.8921 H   0  0  0  0  0  0
    6.7965   -1.0365   -2.0527 H   0  0  0  0  0  0
  1  2  1  0  0  0
  1  5  1  0  0  0
  1 25  1  0  0  0
  2  3  1  0  0  0
  2  6  1  0  0  0
  2 35  1  0  0  0
  3  4  1  0  0  0
  3 36  1  0  0  0
  3 37  1  0  0  0
  4  5  1  0  0  0
  4 38  1  0  0  0
  4 39  1  0  0  0
  5 40  1  0  0  0
  5 41  1  0  0  0
  6  7  2  0  0  0
  6  8  1  0  0  0
  8  9  1  0  0  0
  8 42  1  0  0  0
  9 10  1  0  0  0
  9 22  1  0  0  0
  9 43  1  0  0  0
 10 11  1  0  0  0
 10 44  1  0  0  0
 10 45  1  0  0  0
 11 12  1  0  0  0
 11 46  1  0  0  0
 11 47  1  0  0  0
 12 13  2  0  0  0
 12 14  1  0  0  0
 14 15  1  0  0  0
 14 18  1  0  0  0
 15 16  1  0  0  0
 15 19  1  0  0  0
 15 48  1  0  0  0
 16 17  1  0  0  0
 16 49  1  0  0  0
 16 50  1  0  0  0
 17 18  1  0  0  0
 17 51  1  0  0  0
 17 52  1  0  0  0
 18 53  1  0  0  0
 18 54  1  0  0  0
 19 20  2  0  0  0
 19 21  1  0  0  0
 22 23  2  0  0  0
 22 24  1  0  0  0
 25 26  2  0  0  0
 25 27  1  0  0  0
 27 28  1  0  0  0
 28 29  1  0  0  0
 28 55  1  0  0  0
 28 56  1  0  0  0
 29 30  1  0  0  0
 29 34  2  0  0  0
 30 31  2  0  0  0
 30 57  1  0  0  0
 31 32  1  0  0  0
 31 58  1  0  0  0
 32 33  2  0  0  0
 32 59  1  0  0  0
 33 34  1  0  0  0
 33 60  1  0  0  0
 34 61  1  0  0  0
M  CHG  2  21  -1  24  -1
M  END
>  <Activity>
5.6

>  <set>
2

>  <Min_dist>
0.063063

>  <Avg_dist>
0.502718

$$$$
COO_24A
  Cerius2 12110214443D 1   1.00000                          
 
 73 75  0  0  0  0  0  0  0  0999 V2000
   -5.0072    0.4002   -0.0925 N   0  0  0  0  0  0
   -6.3684    0.8716    0.1759 C   0  0  0  0  0  0
   -6.4140    2.3065   -0.3742 C   0  0  0  0  0  0
   -5.0284    2.5453   -0.9305 C   0  0  0  0  0  0
   -4.2706    1.4017   -0.7327 C   0  0  0  0  0  0
   -2.9444    1.3838   -1.1675 C   0  0  0  0  0  0
   -2.3999    2.4902   -1.7845 C   0  0  0  0  0  0
   -3.1640    3.6263   -1.9767 C   0  0  0  0  0  0
   -4.4788    3.6512   -1.5495 C   0  0  0  0  0  0
   -7.3723    0.0052   -0.5400 C   0  0  0  0  0  0
   -8.6189    0.2522   -0.4333 O   0  0  0  0  0  0
   -6.9753   -0.9751   -1.2526 O   0  5  0  0  0  0
   -4.5328   -0.8181    0.2350 C   0  0  0  0  0  0
   -5.2516   -1.6181    0.7957 O   0  0  0  0  0  0
   -3.1093   -1.1862   -0.0954 C   0  0  0  0  0  0
   -2.8280   -2.6130    0.3801 C   0  0  0  0  0  0
   -1.3828   -2.9867    0.0446 C   0  0  0  0  0  0
   -0.4698   -2.0590    0.7169 N   0  0  0  0  0  0
    0.7236   -1.7676    0.1625 C   0  0  0  0  0  0
    1.0417   -2.2734   -0.8929 O   0  0  0  0  0  0
    1.6628   -0.8132    0.8541 C   0  0  0  0  0  0
    2.8824   -0.6641    0.0562 N   0  0  0  0  0  0
    4.0564   -0.3995    0.6629 C   0  0  0  0  0  0
    4.1033   -0.2846    1.8717 O   0  0  0  0  0  0
    5.1772   -0.2625   -0.0703 O   0  0  0  0  0  0
    6.4421    0.0226    0.5833 C   0  0  0  0  0  0
    7.5309    0.1272   -0.4533 C   0  0  0  0  0  0
    7.8191    1.3490   -1.0322 C   0  0  0  0  0  0
    8.8178    1.4449   -1.9831 C   0  0  0  0  0  0
    9.5286    0.3191   -2.3549 C   0  0  0  0  0  0
    9.2410   -0.9026   -1.7754 C   0  0  0  0  0  0
    8.2452   -0.9977   -0.8213 C   0  0  0  0  0  0
    0.9838    0.5493    1.0073 C   0  0  0  0  0  0
    1.9373    1.5182    1.7094 C   0  0  0  0  0  0
    1.2583    2.8807    1.8626 C   0  0  0  0  0  0
    2.2118    3.8496    2.5647 C   0  0  0  0  0  0
    1.5599    5.1578    2.7118 N   0  3  0  0  0  0
    2.1887    5.7968    3.1748 H   0  0  0  0  0  0
    1.3233    5.5201    1.8003 H   0  0  0  0  0  0
    0.7199    5.0551    3.2613 H   0  0  0  0  0  0
   -1.1057   -4.3920    0.5130 C   0  0  0  0  0  0
   -0.6794   -4.5867    1.6390 O   0  0  0  0  0  0
   -1.3077   -5.3348   -0.2340 O   0  5  0  0  0  0
   -6.5642    0.8713    1.2482 H   0  0  0  0  0  0
   -7.1602    2.3871   -1.1647 H   0  0  0  0  0  0
   -6.6294    3.0140    0.4266 H   0  0  0  0  0  0
   -2.3419    0.4997   -1.0197 H   0  0  0  0  0  0
   -1.3731    2.4694   -2.1185 H   0  0  0  0  0  0
   -2.7351    4.4920   -2.4593 H   0  0  0  0  0  0
   -5.0772    4.5377   -1.6991 H   0  0  0  0  0  0
   -2.9594   -1.1263   -1.1734 H   0  0  0  0  0  0
   -2.4300   -0.4959    0.4048 H   0  0  0  0  0  0
   -2.9779   -2.6729    1.4581 H   0  0  0  0  0  0
   -3.5073   -3.3032   -0.1201 H   0  0  0  0  0  0
   -1.2329   -2.9268   -1.0334 H   0  0  0  0  0  0
   -0.7242   -1.6545    1.5610 H   0  0  0  0  0  0
    1.9184   -1.2046    1.8388 H   0  0  0  0  0  0
    2.8449   -0.7558   -0.9087 H   0  0  0  0  0  0
    6.3661    0.9645    1.1267 H   0  0  0  0  0  0
    6.6800   -0.7808    1.2804 H   0  0  0  0  0  0
    7.2638    2.2285   -0.7417 H   0  0  0  0  0  0
    9.0425    2.3993   -2.4358 H   0  0  0  0  0  0
   10.3084    0.3939   -3.0983 H   0  0  0  0  0  0
    9.7961   -1.7822   -2.0661 H   0  0  0  0  0  0
    8.0205   -1.9521   -0.3686 H   0  0  0  0  0  0
    0.7282    0.9406    0.0226 H   0  0  0  0  0  0
    0.0764    0.4383    1.6009 H   0  0  0  0  0  0
    2.1929    1.1269    2.6941 H   0  0  0  0  0  0
    2.8447    1.6291    1.1158 H   0  0  0  0  0  0
    1.0027    3.2720    0.8779 H   0  0  0  0  0  0
    0.3509    2.7698    2.4562 H   0  0  0  0  0  0
    2.4674    3.4583    3.5494 H   0  0  0  0  0  0
    3.1192    3.9606    1.9711 H   0  0  0  0  0  0
  1  2  1  0  0  0
  1  5  1  0  0  0
  1 13  1  0  0  0
  2  3  1  0  0  0
  2 10  1  0  0  0
  2 44  1  0  0  0
  3  4  1  0  0  0
  3 45  1  0  0  0
  3 46  1  0  0  0
  4  5  1  0  0  0
  4  9  2  0  0  0
  5  6  2  0  0  0
  6  7  1  0  0  0
  6 47  1  0  0  0
  7  8  2  0  0  0
  7 48  1  0  0  0
  8  9  1  0  0  0
  8 49  1  0  0  0
  9 50  1  0  0  0
 10 11  2  0  0  0
 10 12  1  0  0  0
 13 14  2  0  0  0
 13 15  1  0  0  0
 15 16  1  0  0  0
 15 51  1  0  0  0
 15 52  1  0  0  0
 16 17  1  0  0  0
 16 53  1  0  0  0
 16 54  1  0  0  0
 17 18  1  0  0  0
 17 41  1  0  0  0
 17 55  1  0  0  0
 18 19  1  0  0  0
 18 56  1  0  0  0
 19 20  2  0  0  0
 19 21  1  0  0  0
 21 22  1  0  0  0
 21 33  1  0  0  0
 21 57  1  0  0  0
 22 23  1  0  0  0
 22 58  1  0  0  0
 23 24  2  0  0  0
 23 25  1  0  0  0
 25 26  1  0  0  0
 26 27  1  0  0  0
 26 59  1  0  0  0
 26 60  1  0  0  0
 27 28  1  0  0  0
 27 32  2  0  0  0
 28 29  2  0  0  0
 28 61  1  0  0  0
 29 30  1  0  0  0
 29 62  1  0  0  0
 30 31  2  0  0  0
 30 63  1  0  0  0
 31 32  1  0  0  0
 31 64  1  0  0  0
 32 65  1  0  0  0
 33 34  1  0  0  0
 33 66  1  0  0  0
 33 67  1  0  0  0
 34 35  1  0  0  0
 34 68  1  0  0  0
 34 69  1  0  0  0
 35 36  1  0  0  0
 35 70  1  0  0  0
 35 71  1  0  0  0
 36 37  1  0  0  0
 36 72  1  0  0  0
 36 73  1  0  0  0
 37 38  1  0  0  0
 37 39  1  0  0  0
 37 40  1  0  0  0
 41 42  2  0  0  0
 41 43  1  0  0  0
M  CHG  3  12  -1  37   1  43  -1
M  END
>  <Activity>
5.6

>  <set>
2

>  <Min_dist>
0.078125

>  <Avg_dist>
0.545164

$$$$
SQ29852_2A
  Cerius2 12110214443D 1   1.00000                          
 
 78 80  0  0  0  0  0  0  0  0999 V2000
    1.4963   -0.1417   -0.1280 P   0  0  0  0  0  0
    1.3311   -1.4261    0.7146 O   0  0  0  0  0  0
    0.5900   -0.2497   -1.4543 O   0  0  0  0  0  0
   -0.7627   -0.4003   -1.0190 C   0  0  0  0  0  0
   -1.3235   -1.7230   -1.5452 C   0  0  0  0  0  0
   -0.5609   -2.8883   -0.9117 C   0  0  0  0  0  0
   -1.1217   -4.2110   -1.4379 C   0  0  0  0  0  0
   -0.3591   -5.3763   -0.8043 C   0  0  0  0  0  0
   -0.8976   -6.6463   -1.3095 N   0  3  0  0  0  0
   -0.3947   -7.4147   -0.8917 H   0  0  0  0  0  0
   -1.8757   -6.7153   -1.0715 H   0  0  0  0  0  0
   -0.7923   -6.6810   -2.3124 H   0  0  0  0  0  0
   -1.5908    0.7423   -1.5480 C   0  0  0  0  0  0
   -1.1133    1.5169   -2.3499 O   0  0  0  0  0  0
   -2.8619    0.9034   -1.1300 N   0  0  0  0  0  0
   -3.8117    1.9027   -1.6408 C   0  0  0  0  0  0
   -5.1270    1.7297   -0.8522 C   0  0  0  0  0  0
   -4.6624    1.0200    0.4470 C   0  0  0  0  0  0
   -3.5321    0.1027   -0.0893 C   0  0  0  0  0  0
   -5.7960    0.1914    1.0546 C   0  0  0  0  0  0
   -5.3008   -0.4916    2.3311 C   0  0  0  0  0  0
   -6.4344   -1.3203    2.9387 C   0  0  0  0  0  0
   -7.6126   -0.4039    3.2748 C   0  0  0  0  0  0
   -8.1077    0.2791    1.9983 C   0  0  0  0  0  0
   -6.9741    1.1078    1.3907 C   0  0  0  0  0  0
   -3.2628    3.2893   -1.4241 C   0  0  0  0  0  0
   -2.3618    3.4701   -0.6222 O   0  0  0  0  0  0
   -3.7195    4.2308   -2.0507 O   0  5  0  0  0  0
    1.0485    1.0809    0.7036 O   0  5  0  0  0  0
    3.2458    0.0534   -0.6017 C   0  0  0  0  0  0
    4.1071    0.1561    0.6587 C   0  0  0  0  0  0
    5.5754    0.3198    0.2611 C   0  0  0  0  0  0
    6.4367    0.4225    1.5215 C   0  0  0  0  0  0
    7.8830    0.5838    1.1298 C   0  0  0  0  0  0
    8.4122    1.8474    0.9450 C   0  0  0  0  0  0
    9.7388    1.9954    0.5857 C   0  0  0  0  0  0
   10.5363    0.8798    0.4117 C   0  0  0  0  0  0
   10.0073   -0.3838    0.5974 C   0  0  0  0  0  0
    8.6819   -0.5316    0.9609 C   0  0  0  0  0  0
   -0.7961   -0.3993    0.0705 H   0  0  0  0  0  0
   -2.3801   -1.7976   -1.2881 H   0  0  0  0  0  0
   -1.2097   -1.7605   -2.6286 H   0  0  0  0  0  0
    0.4957   -2.8137   -1.1688 H   0  0  0  0  0  0
   -0.6747   -2.8508    0.1717 H   0  0  0  0  0  0
   -2.1783   -4.2856   -1.1807 H   0  0  0  0  0  0
   -1.0080   -4.2485   -2.5213 H   0  0  0  0  0  0
    0.6975   -5.3017   -1.0615 H   0  0  0  0  0  0
   -0.4729   -5.3388    0.2791 H   0  0  0  0  0  0
   -3.9914    1.7345   -2.7026 H   0  0  0  0  0  0
   -5.5705    2.6990   -0.6246 H   0  0  0  0  0  0
   -5.8280    1.1036   -1.4041 H   0  0  0  0  0  0
   -4.2765    1.7399    1.1688 H   0  0  0  0  0  0
   -3.9529   -0.8078   -0.5160 H   0  0  0  0  0  0
   -2.8302   -0.1403    0.7084 H   0  0  0  0  0  0
   -6.1170   -0.5653    0.3387 H   0  0  0  0  0  0
   -4.4615   -1.1445    2.0916 H   0  0  0  0  0  0
   -4.9799    0.2650    3.0470 H   0  0  0  0  0  0
   -6.7554   -2.0770    2.2228 H   0  0  0  0  0  0
   -6.0817   -1.8069    3.8480 H   0  0  0  0  0  0
   -8.4202   -0.9942    3.7076 H   0  0  0  0  0  0
   -7.2916    0.3528    3.9907 H   0  0  0  0  0  0
   -8.4287   -0.4775    1.2824 H   0  0  0  0  0  0
   -8.9471    0.9320    2.2378 H   0  0  0  0  0  0
   -6.6532    1.8645    2.1066 H   0  0  0  0  0  0
   -7.3269    1.5944    0.4814 H   0  0  0  0  0  0
    3.5618   -0.8091   -1.1885 H   0  0  0  0  0  0
    3.3624    0.9596   -1.1962 H   0  0  0  0  0  0
    3.7912    1.0186    1.2454 H   0  0  0  0  0  0
    3.9906   -0.7501    1.2531 H   0  0  0  0  0  0
    5.8914   -0.5427   -0.3257 H   0  0  0  0  0  0
    5.6920    1.2260   -0.3334 H   0  0  0  0  0  0
    6.1208    1.2850    2.1082 H   0  0  0  0  0  0
    6.3202   -0.4837    2.1159 H   0  0  0  0  0  0
    7.7891    2.7190    1.0810 H   0  0  0  0  0  0
   10.1520    2.9826    0.4406 H   0  0  0  0  0  0
   11.5726    0.9954    0.1303 H   0  0  0  0  0  0
   10.6304   -1.2554    0.4611 H   0  0  0  0  0  0
    8.2686   -1.5188    1.1060 H   0  0  0  0  0  0
  1  2  2  0  0  0
  1  3  1  0  0  0
  1 29  1  0  0  0
  1 30  1  0  0  0
  3  4  1  0  0  0
  4  5  1  0  0  0
  4 13  1  0  0  0
  4 40  1  0  0  0
  5  6  1  0  0  0
  5 41  1  0  0  0
  5 42  1  0  0  0
  6  7  1  0  0  0
  6 43  1  0  0  0
  6 44  1  0  0  0
  7  8  1  0  0  0
  7 45  1  0  0  0
  7 46  1  0  0  0
  8  9  1  0  0  0
  8 47  1  0  0  0
  8 48  1  0  0  0
  9 10  1  0  0  0
  9 11  1  0  0  0
  9 12  1  0  0  0
 13 14  2  0  0  0
 13 15  1  0  0  0
 15 16  1  0  0  0
 15 19  1  0  0  0
 16 17  1  0  0  0
 16 26  1  0  0  0
 16 49  1  0  0  0
 17 18  1  0  0  0
 17 50  1  0  0  0
 17 51  1  0  0  0
 18 19  1  0  0  0
 18 20  1  0  0  0
 18 52  1  0  0  0
 19 53  1  0  0  0
 19 54  1  0  0  0
 20 21  1  0  0  0
 20 25  1  0  0  0
 20 55  1  0  0  0
 21 22  1  0  0  0
 21 56  1  0  0  0
 21 57  1  0  0  0
 22 23  1  0  0  0
 22 58  1  0  0  0
 22 59  1  0  0  0
 23 24  1  0  0  0
 23 60  1  0  0  0
 23 61  1  0  0  0
 24 25  1  0  0  0
 24 62  1  0  0  0
 24 63  1  0  0  0
 25 64  1  0  0  0
 25 65  1  0  0  0
 26 27  2  0  0  0
 26 28  1  0  0  0
 30 31  1  0  0  0
 30 66  1  0  0  0
 30 67  1  0  0  0
 31 32  1  0  0  0
 31 68  1  0  0  0
 31 69  1  0  0  0
 32 33  1  0  0  0
 32 70  1  0  0  0
 32 71  1  0  0  0
 33 34  1  0  0  0
 33 72  1  0  0  0
 33 73  1  0  0  0
 34 35  1  0  0  0
 34 39  2  0  0  0
 35 36  2  0  0  0
 35 74  1  0  0  0
 36 37  1  0  0  0
 36 75  1  0  0  0
 37 38  2  0  0  0
 37 76  1  0  0  0
 38 39  1  0  0  0
 38 77  1  0  0  0
 39 78  1  0  0  0
M  CHG  3   9   1  28  -1  29  -1
M  END
>  <Activity>
8.49

>  <set>
2

>  <Min_dist>
0

>  <Avg_dist>
0.517587

$$$$
SQ29852_2P
  Cerius2 12110214443D 1   1.00000                          
 
 72 74  0  0  0  0  0  0  0  0999 V2000
    1.4878   -0.0385    0.0429 P   0  0  0  0  0  0
    1.3060   -1.2963    0.9215 O   0  0  0  0  0  0
    0.4936   -0.1184   -1.2209 O   0  0  0  0  0  0
   -0.8347   -0.1843   -0.6981 C   0  0  0  0  0  0
   -1.5006   -1.4821   -1.1596 C   0  0  0  0  0  0
   -0.6929   -2.6783   -0.6520 C   0  0  0  0  0  0
   -1.3588   -3.9761   -1.1134 C   0  0  0  0  0  0
   -0.5511   -5.1723   -0.6058 C   0  0  0  0  0  0
   -1.1905   -6.4184   -1.0489 N   0  3  0  0  0  0
   -0.6578   -7.2073   -0.7141 H   0  0  0  0  0  0
   -2.1284   -6.4649   -0.6797 H   0  0  0  0  0  0
   -1.2245   -6.4390   -2.0571 H   0  0  0  0  0  0
   -1.6303    0.9939   -1.1981 C   0  0  0  0  0  0
   -1.1109    1.8097   -1.9301 O   0  0  0  0  0  0
   -2.9189    1.1411   -0.8318 N   0  0  0  0  0  0
   -3.8070    2.2379   -1.2441 C   0  0  0  0  0  0
   -5.1716    2.0033   -0.5625 C   0  0  0  0  0  0
   -4.8065    1.0984    0.6438 C   0  0  0  0  0  0
   -3.6733    0.2256    0.0434 C   0  0  0  0  0  0
   -5.9802    0.2474    1.0554 C   0  0  0  0  0  0
   -6.4993    0.3568    2.3318 C   0  0  0  0  0  0
   -7.5759   -0.4239    2.7094 C   0  0  0  0  0  0
   -8.1335   -1.3135    1.8103 C   0  0  0  0  0  0
   -7.6149   -1.4222    0.5335 C   0  0  0  0  0  0
   -6.5411   -0.6385    0.1546 C   0  0  0  0  0  0
   -3.2319    3.5578   -0.7990 C   0  0  0  0  0  0
   -2.1620    3.5908   -0.2145 O   0  0  0  0  0  0
   -3.8365    4.5931   -1.0234 O   0  5  0  0  0  0
    1.1628    1.2221    0.8749 O   0  5  0  0  0  0
    3.2114    0.0486   -0.5442 C   0  0  0  0  0  0
    4.1561    0.1246    0.6569 C   0  0  0  0  0  0
    5.6028    0.1977    0.1640 C   0  0  0  0  0  0
    6.5475    0.2736    1.3651 C   0  0  0  0  0  0
    7.9724    0.3456    0.8797 C   0  0  0  0  0  0
    8.5579    1.5737    0.6350 C   0  0  0  0  0  0
    9.8649    1.6398    0.1897 C   0  0  0  0  0  0
   10.5865    0.4778   -0.0104 C   0  0  0  0  0  0
   10.0012   -0.7502    0.2352 C   0  0  0  0  0  0
    8.6956   -0.8161    0.6846 C   0  0  0  0  0  0
   -0.7979   -0.1620    0.3910 H   0  0  0  0  0  0
   -2.5138   -1.5323   -0.7608 H   0  0  0  0  0  0
   -1.5373   -1.5044   -2.2487 H   0  0  0  0  0  0
    0.3203   -2.6281   -1.0508 H   0  0  0  0  0  0
   -0.6562   -2.6560    0.4372 H   0  0  0  0  0  0
   -2.3720   -4.0264   -0.7146 H   0  0  0  0  0  0
   -1.3955   -3.9984   -2.2026 H   0  0  0  0  0  0
    0.4621   -5.1221   -1.0046 H   0  0  0  0  0  0
   -0.5144   -5.1501    0.4833 H   0  0  0  0  0  0
   -3.9275    2.2300   -2.3274 H   0  0  0  0  0  0
   -5.5996    2.9461   -0.2218 H   0  0  0  0  0  0
   -5.8562    1.4892   -1.2370 H   0  0  0  0  0  0
   -4.4438    1.6928    1.4824 H   0  0  0  0  0  0
   -4.0940   -0.5983   -0.5331 H   0  0  0  0  0  0
   -3.0278   -0.1550    0.8350 H   0  0  0  0  0  0
   -6.0636    1.0519    3.0343 H   0  0  0  0  0  0
   -7.9810   -0.3390    3.7069 H   0  0  0  0  0  0
   -8.9741   -1.9240    2.1054 H   0  0  0  0  0  0
   -8.0504   -2.1176   -0.1688 H   0  0  0  0  0  0
   -6.1360   -0.7234   -0.8429 H   0  0  0  0  0  0
    3.4407   -0.8408   -1.1312 H   0  0  0  0  0  0
    3.3397    0.9360   -1.1641 H   0  0  0  0  0  0
    3.9269    1.0139    1.2438 H   0  0  0  0  0  0
    4.0279   -0.7628    1.2767 H   0  0  0  0  0  0
    5.8320   -0.6917   -0.4229 H   0  0  0  0  0  0
    5.7310    1.0851   -0.4558 H   0  0  0  0  0  0
    6.3182    1.1630    1.9521 H   0  0  0  0  0  0
    6.4192   -0.6138    1.9850 H   0  0  0  0  0  0
    7.9942    2.4815    0.7913 H   0  0  0  0  0  0
   10.3222    2.5992   -0.0022 H   0  0  0  0  0  0
   11.6074    0.5294   -0.3590 H   0  0  0  0  0  0
   10.5649   -1.6581    0.0785 H   0  0  0  0  0  0
    8.2384   -1.7756    0.8765 H   0  0  0  0  0  0
  1  2  2  0  0  0
  1  3  1  0  0  0
  1 29  1  0  0  0
  1 30  1  0  0  0
  3  4  1  0  0  0
  4  5  1  0  0  0
  4 13  1  0  0  0
  4 40  1  0  0  0
  5  6  1  0  0  0
  5 41  1  0  0  0
  5 42  1  0  0  0
  6  7  1  0  0  0
  6 43  1  0  0  0
  6 44  1  0  0  0
  7  8  1  0  0  0
  7 45  1  0  0  0
  7 46  1  0  0  0
  8  9  1  0  0  0
  8 47  1  0  0  0
  8 48  1  0  0  0
  9 10  1  0  0  0
  9 11  1  0  0  0
  9 12  1  0  0  0
 13 14  2  0  0  0
 13 15  1  0  0  0
 15 16  1  0  0  0
 15 19  1  0  0  0
 16 17  1  0  0  0
 16 26  1  0  0  0
 16 49  1  0  0  0
 17 18  1  0  0  0
 17 50  1  0  0  0
 17 51  1  0  0  0
 18 19  1  0  0  0
 18 20  1  0  0  0
 18 52  1  0  0  0
 19 53  1  0  0  0
 19 54  1  0  0  0
 20 21  1  0  0  0
 20 25  2  0  0  0
 21 22  2  0  0  0
 21 55  1  0  0  0
 22 23  1  0  0  0
 22 56  1  0  0  0
 23 24  2  0  0  0
 23 57  1  0  0  0
 24 25  1  0  0  0
 24 58  1  0  0  0
 25 59  1  0  0  0
 26 27  2  0  0  0
 26 28  1  0  0  0
 30 31  1  0  0  0
 30 60  1  0  0  0
 30 61  1  0  0  0
 31 32  1  0  0  0
 31 62  1  0  0  0
 31 63  1  0  0  0
 32 33  1  0  0  0
 32 64  1  0  0  0
 32 65  1  0  0  0
 33 34  1  0  0  0
 33 66  1  0  0  0
 33 67  1  0  0  0
 34 35  1  0  0  0
 34 39  2  0  0  0
 35 36  2  0  0  0
 35 68  1  0  0  0
 36 37  1  0  0  0
 36 69  1  0  0  0
 37 38  2  0  0  0
 37 70  1  0  0  0
 38 39  1  0  0  0
 38 71  1  0  0  0
 39 72  1  0  0  0
M  CHG  3   9   1  28  -1  29  -1
M  END
>  <Activity>
6.47

>  <set>
2

>  <Min_dist>
0

>  <Avg_dist>
0.515085

$$$$
SQ29852_2S
  Cerius2 12110214443D 1   1.00000                          
 
 73 75  0  0  0  0  0  0  0  0999 V2000
    6.2999    0.8745   -1.5190 S   0  0  0  0  0  0
    4.6250    0.7727   -0.8299 C   0  0  0  0  0  0
    3.6017    0.3587   -1.9166 C   0  0  0  0  0  0
    2.4925   -0.2652   -1.1724 N   0  0  0  0  0  0
    3.0074   -0.7630    0.1116 C   0  0  0  0  0  0
    4.5071   -0.4047    0.1737 C   0  0  0  0  0  0
    2.2745   -0.1001    1.2493 C   0  0  0  0  0  0
    2.5699   -0.3929    2.4548 O   0  0  0  0  0  0
    1.3589    0.7538    1.0066 O   0  5  0  0  0  0
    1.2175   -0.3625   -1.5983 C   0  0  0  0  0  0
    0.8782    0.1837   -2.6266 O   0  0  0  0  0  0
    0.2133   -1.1499   -0.7966 C   0  0  0  0  0  0
   -1.0967   -0.9257   -1.3218 O   0  0  0  0  0  0
   -1.9719   -0.2855   -0.1318 P   0  0  0  0  0  0
   -2.0193   -1.2687    1.0590 O   0  0  0  0  0  0
   -1.3285    1.0436    0.3230 O   0  5  0  0  0  0
   -3.6659    0.0315   -0.7260 C   0  0  0  0  0  0
   -4.4976    0.6399    0.4049 C   0  0  0  0  0  0
   -5.9194    0.9059   -0.0939 C   0  0  0  0  0  0
   -6.7511    1.5144    1.0370 C   0  0  0  0  0  0
   -8.1514    1.7764    0.5458 C   0  0  0  0  0  0
   -9.1215    0.7994    0.6697 C   0  0  0  0  0  0
  -10.4060    1.0397    0.2190 C   0  0  0  0  0  0
  -10.7206    2.2572   -0.3552 C   0  0  0  0  0  0
   -9.7508    3.2345   -0.4783 C   0  0  0  0  0  0
   -8.4674    2.9958   -0.0237 C   0  0  0  0  0  0
    0.5487   -2.6403   -0.8816 C   0  0  0  0  0  0
   -0.3837   -3.4264    0.0423 C   0  0  0  0  0  0
    0.0252   -4.9007    0.0450 C   0  0  0  0  0  0
   -0.9795   -5.7071    0.8704 C   0  0  0  0  0  0
   -0.5869   -7.1226    0.8730 N   0  3  0  0  0  0
   -1.2495   -7.6544    1.4173 H   0  0  0  0  0  0
   -0.5742   -7.4699   -0.0743 H   0  0  0  0  0  0
    0.3326   -7.2159    1.2778 H   0  0  0  0  0  0
    7.1418    1.6280   -0.1670 C   0  0  0  0  0  0
    8.5006    1.9044   -0.2594 C   0  0  0  0  0  0
    9.1571    2.4950    0.8022 C   0  0  0  0  0  0
    8.4641    2.8109    1.9566 C   0  0  0  0  0  0
    7.1119    2.5368    2.0524 C   0  0  0  0  0  0
    6.4474    1.9525    0.9923 C   0  0  0  0  0  0
    4.3391    1.7151   -0.3627 H   0  0  0  0  0  0
    3.2486    1.2357   -2.4591 H   0  0  0  0  0  0
    4.0483   -0.3594   -2.6044 H   0  0  0  0  0  0
    2.8819   -1.8443    0.1671 H   0  0  0  0  0  0
    5.1187   -1.2479   -0.1475 H   0  0  0  0  0  0
    4.7860   -0.0850    1.1777 H   0  0  0  0  0  0
    0.2472   -0.8287    0.2444 H   0  0  0  0  0  0
   -3.6324    0.7251   -1.5662 H   0  0  0  0  0  0
   -4.1197   -0.9062   -1.0469 H   0  0  0  0  0  0
   -4.5311   -0.0537    1.2450 H   0  0  0  0  0  0
   -4.0437    1.5776    0.7257 H   0  0  0  0  0  0
   -5.8858    1.5996   -0.9340 H   0  0  0  0  0  0
   -6.3732   -0.0317   -0.4148 H   0  0  0  0  0  0
   -6.7846    0.8207    1.8771 H   0  0  0  0  0  0
   -6.2972    2.4520    1.3579 H   0  0  0  0  0  0
   -8.8757   -0.1518    1.1183 H   0  0  0  0  0  0
  -11.1637    0.2761    0.3152 H   0  0  0  0  0  0
  -11.7240    2.4447   -0.7079 H   0  0  0  0  0  0
   -9.9965    4.1856   -0.9272 H   0  0  0  0  0  0
   -7.7096    3.7593   -0.1198 H   0  0  0  0  0  0
    0.4181   -2.9841   -1.9077 H   0  0  0  0  0  0
    1.5825   -2.7981   -0.5744 H   0  0  0  0  0  0
   -0.3131   -3.0279    1.0543 H   0  0  0  0  0  0
   -1.4099   -3.3346   -0.3136 H   0  0  0  0  0  0
    0.0389   -5.2759   -0.9783 H   0  0  0  0  0  0
    1.0185   -5.0015    0.4823 H   0  0  0  0  0  0
   -0.9932   -5.3319    1.8937 H   0  0  0  0  0  0
   -1.9729   -5.6063    0.4331 H   0  0  0  0  0  0
    9.0426    1.6574   -1.1603 H   0  0  0  0  0  0
   10.2131    2.7101    0.7311 H   0  0  0  0  0  0
    8.9802    3.2724    2.7855 H   0  0  0  0  0  0
    6.5740    2.7846    2.9555 H   0  0  0  0  0  0
    5.3915    1.7387    1.0678 H   0  0  0  0  0  0
  1  2  1  0  0  0
  1 35  1  0  0  0
  2  3  1  0  0  0
  2  6  1  0  0  0
  2 41  1  0  0  0
  3  4  1  0  0  0
  3 42  1  0  0  0
  3 43  1  0  0  0
  4  5  1  0  0  0
  4 10  1  0  0  0
  5  6  1  0  0  0
  5  7  1  0  0  0
  5 44  1  0  0  0
  6 45  1  0  0  0
  6 46  1  0  0  0
  7  8  2  0  0  0
  7  9  1  0  0  0
 10 11  2  0  0  0
 10 12  1  0  0  0
 12 13  1  0  0  0
 12 27  1  0  0  0
 12 47  1  0  0  0
 13 14  1  0  0  0
 14 15  2  0  0  0
 14 16  1  0  0  0
 14 17  1  0  0  0
 17 18  1  0  0  0
 17 48  1  0  0  0
 17 49  1  0  0  0
 18 19  1  0  0  0
 18 50  1  0  0  0
 18 51  1  0  0  0
 19 20  1  0  0  0
 19 52  1  0  0  0
 19 53  1  0  0  0
 20 21  1  0  0  0
 20 54  1  0  0  0
 20 55  1  0  0  0
 21 22  1  0  0  0
 21 26  2  0  0  0
 22 23  2  0  0  0
 22 56  1  0  0  0
 23 24  1  0  0  0
 23 57  1  0  0  0
 24 25  2  0  0  0
 24 58  1  0  0  0
 25 26  1  0  0  0
 25 59  1  0  0  0
 26 60  1  0  0  0
 27 28  1  0  0  0
 27 61  1  0  0  0
 27 62  1  0  0  0
 28 29  1  0  0  0
 28 63  1  0  0  0
 28 64  1  0  0  0
 29 30  1  0  0  0
 29 65  1  0  0  0
 29 66  1  0  0  0
 30 31  1  0  0  0
 30 67  1  0  0  0
 30 68  1  0  0  0
 31 32  1  0  0  0
 31 33  1  0  0  0
 31 34  1  0  0  0
 35 36  1  0  0  0
 35 40  2  0  0  0
 36 37  2  0  0  0
 36 69  1  0  0  0
 37 38  1  0  0  0
 37 70  1  0  0  0
 38 39  2  0  0  0
 38 71  1  0  0  0
 39 40  1  0  0  0
 39 72  1  0  0  0
 40 73  1  0  0  0
M  CHG  3   9  -1  16  -1  31   1
M  END
>  <Activity>
9.11

>  <set>
2

>  <Min_dist>
0

>  <Avg_dist>
0.518969

$$$$
SQ29852_2G
  Cerius2 12110214443D 1   1.00000                          
 
 73 74  0  0  0  0  0  0  0  0999 V2000
   -1.5751    0.4584   -0.1434 P   0  0  0  0  0  0
   -1.0374   -0.6231   -1.1068 O   0  0  0  0  0  0
   -0.4933    0.7282    1.0180 O   0  0  0  0  0  0
    0.7025    1.1721    0.3737 C   0  0  0  0  0  0
    1.0622    2.5723    0.8748 C   0  0  0  0  0  0
   -0.0338    3.5579    0.4647 C   0  0  0  0  0  0
    0.3260    4.9581    0.9657 C   0  0  0  0  0  0
   -0.7700    5.9437    0.5556 C   0  0  0  0  0  0
   -0.4246    7.2881    1.0367 N   0  3  0  0  0  0
   -1.1474    7.9381    0.7663 H   0  0  0  0  0  0
   -0.3433    7.2748    2.0424 H   0  0  0  0  0  0
    0.4541    7.5747    0.6320 H   0  0  0  0  0  0
    1.8271    0.2206    0.6912 C   0  0  0  0  0  0
    1.7484   -0.5112    1.6553 O   0  0  0  0  0  0
    2.9204    0.1828   -0.0961 N   0  0  0  0  0  0
    2.9529    0.9529   -1.3419 C   0  0  0  0  0  0
    2.4365    0.1010   -2.4727 C   0  0  0  0  0  0
    2.4749    0.5387   -3.6699 O   0  0  0  0  0  0
    1.9611   -1.0577   -2.2324 O   0  5  0  0  0  0
    4.0257   -0.5930    0.2769 C   0  0  0  0  0  0
    5.1084   -0.7179   -0.5835 C   0  0  0  0  0  0
    6.2001   -1.4850   -0.2136 C   0  0  0  0  0  0
    6.2099   -2.1293    1.0203 C   0  0  0  0  0  0
    5.1283   -2.0026    1.8762 C   0  0  0  0  0  0
    4.0409   -1.2322    1.5089 C   0  0  0  0  0  0
    7.2817   -2.8838    1.3853 O   0  0  0  0  0  0
    6.9959   -3.4061    2.6844 C   0  0  0  0  0  0
    7.2613   -1.6091   -1.0548 O   0  0  0  0  0  0
    6.9550   -0.8435   -2.2219 C   0  0  0  0  0  0
   -1.8272    1.7662   -0.9264 O   0  5  0  0  0  0
   -3.1370   -0.1142    0.6021 C   0  0  0  0  0  0
   -4.1651   -0.3706   -0.5016 C   0  0  0  0  0  0
   -5.4760   -0.8512    0.1241 C   0  0  0  0  0  0
   -6.5041   -1.1076   -0.9796 C   0  0  0  0  0  0
   -7.7953   -1.5809   -0.3633 C   0  0  0  0  0  0
   -8.7622   -0.6642    0.0049 C   0  0  0  0  0  0
   -9.9466   -1.0984    0.5703 C   0  0  0  0  0  0
  -10.1642   -2.4493    0.7670 C   0  0  0  0  0  0
   -9.1976   -3.3660    0.3978 C   0  0  0  0  0  0
   -8.0151   -2.9321   -0.1715 C   0  0  0  0  0  0
    0.5448    1.2014   -0.7045 H   0  0  0  0  0  0
    1.1500    2.5579    1.9611 H   0  0  0  0  0  0
    2.0115    2.8819    0.4376 H   0  0  0  0  0  0
   -0.1216    3.5723   -0.6217 H   0  0  0  0  0  0
   -0.9830    3.2483    0.9019 H   0  0  0  0  0  0
    0.4138    4.9438    2.0521 H   0  0  0  0  0  0
    1.2752    5.2677    0.5285 H   0  0  0  0  0  0
   -0.8578    5.9581   -0.5307 H   0  0  0  0  0  0
   -1.7193    5.6341    0.9928 H   0  0  0  0  0  0
    2.3256    1.8382   -1.2383 H   0  0  0  0  0  0
    3.9778    1.2567   -1.5546 H   0  0  0  0  0  0
    5.0987   -0.2175   -1.5406 H   0  0  0  0  0  0
    5.1364   -2.5028    2.8334 H   0  0  0  0  0  0
    3.1986   -1.1343    2.1778 H   0  0  0  0  0  0
    7.8309   -4.0208    3.0206 H   0  0  0  0  0  0
    6.8470   -2.5823    3.3824 H   0  0  0  0  0  0
    6.0919   -4.0135    2.6410 H   0  0  0  0  0  0
    7.7813   -0.9130   -2.9293 H   0  0  0  0  0  0
    6.0476   -1.2326   -2.6838 H   0  0  0  0  0  0
    6.8023    0.1991   -1.9428 H   0  0  0  0  0  0
   -2.9592   -1.0369    1.1545 H   0  0  0  0  0  0
   -3.5164    0.6488    1.2818 H   0  0  0  0  0  0
   -4.3429    0.5521   -1.0540 H   0  0  0  0  0  0
   -3.7858   -1.1336   -1.1813 H   0  0  0  0  0  0
   -5.2982   -1.7738    0.6765 H   0  0  0  0  0  0
   -5.8553   -0.0881    0.8038 H   0  0  0  0  0  0
   -6.6819   -0.1849   -1.5320 H   0  0  0  0  0  0
   -6.1247   -1.8706   -1.6594 H   0  0  0  0  0  0
   -8.5922    0.3912   -0.1487 H   0  0  0  0  0  0
  -10.7017   -0.3822    0.8587 H   0  0  0  0  0  0
  -11.0892   -2.7884    1.2093 H   0  0  0  0  0  0
   -9.3675   -4.4214    0.5518 H   0  0  0  0  0  0
   -7.2599   -3.6483   -0.4599 H   0  0  0  0  0  0
  1  2  2  0  0  0
  1  3  1  0  0  0
  1 30  1  0  0  0
  1 31  1  0  0  0
  3  4  1  0  0  0
  4  5  1  0  0  0
  4 13  1  0  0  0
  4 41  1  0  0  0
  5  6  1  0  0  0
  5 42  1  0  0  0
  5 43  1  0  0  0
  6  7  1  0  0  0
  6 44  1  0  0  0
  6 45  1  0  0  0
  7  8  1  0  0  0
  7 46  1  0  0  0
  7 47  1  0  0  0
  8  9  1  0  0  0
  8 48  1  0  0  0
  8 49  1  0  0  0
  9 10  1  0  0  0
  9 11  1  0  0  0
  9 12  1  0  0  0
 13 14  2  0  0  0
 13 15  1  0  0  0
 15 16  1  0  0  0
 15 20  1  0  0  0
 16 17  1  0  0  0
 16 50  1  0  0  0
 16 51  1  0  0  0
 17 18  2  0  0  0
 17 19  1  0  0  0
 20 21  1  0  0  0
 20 25  2  0  0  0
 21 22  2  0  0  0
 21 52  1  0  0  0
 22 23  1  0  0  0
 22 28  1  0  0  0
 23 24  2  0  0  0
 23 26  1  0  0  0
 24 25  1  0  0  0
 24 53  1  0  0  0
 25 54  1  0  0  0
 26 27  1  0  0  0
 27 55  1  0  0  0
 27 56  1  0  0  0
 27 57  1  0  0  0
 28 29  1  0  0  0
 29 58  1  0  0  0
 29 59  1  0  0  0
 29 60  1  0  0  0
 31 32  1  0  0  0
 31 61  1  0  0  0
 31 62  1  0  0  0
 32 33  1  0  0  0
 32 63  1  0  0  0
 32 64  1  0  0  0
 33 34  1  0  0  0
 33 65  1  0  0  0
 33 66  1  0  0  0
 34 35  1  0  0  0
 34 67  1  0  0  0
 34 68  1  0  0  0
 35 36  1  0  0  0
 35 40  2  0  0  0
 36 37  2  0  0  0
 36 69  1  0  0  0
 37 38  1  0  0  0
 37 70  1  0  0  0
 38 39  2  0  0  0
 38 71  1  0  0  0
 39 40  1  0  0  0
 39 72  1  0  0  0
 40 73  1  0  0  0
M  CHG  3   9   1  19  -1  30  -1
M  END
>  <Activity>
9.54

>  <set>
2

>  <Min_dist>
0.244186

>  <Avg_dist>
0.640857

$$$$
SQ29852_2H
  Cerius2 12110214443D 1   1.00000                          
 
 68 70  0  0  0  0  0  0  0  0999 V2000
   -1.3973    0.4144   -0.1587 P   0  0  0  0  0  0
   -0.8747   -0.7251   -1.0618 O   0  0  0  0  0  0
   -0.3146    0.7273    0.9910 O   0  0  0  0  0  0
    0.8902    1.1171    0.3288 C   0  0  0  0  0  0
    1.2716    2.5356    0.7569 C   0  0  0  0  0  0
    0.1932    3.5161    0.2912 C   0  0  0  0  0  0
    0.5746    4.9346    0.7193 C   0  0  0  0  0  0
   -0.5038    5.9151    0.2536 C   0  0  0  0  0  0
   -0.1376    7.2770    0.6646 N   0  3  0  0  0  0
   -0.8488    7.9236    0.3575 H   0  0  0  0  0  0
   -0.0596    7.3155    1.6699 H   0  0  0  0  0  0
    0.7469    7.5275    0.2488 H   0  0  0  0  0  0
    1.9981    0.1654    0.7002 C   0  0  0  0  0  0
    1.9045   -0.5132    1.7012 O   0  0  0  0  0  0
    3.0929    0.0683   -0.0798 N   0  0  0  0  0  0
    3.1418    0.7712   -1.3642 C   0  0  0  0  0  0
    2.6153   -0.1307   -2.4508 C   0  0  0  0  0  0
    2.6646    0.2429   -3.6691 O   0  0  0  0  0  0
    2.1204   -1.2674   -2.1519 O   0  5  0  0  0  0
    4.1841   -0.7049    0.3377 C   0  0  0  0  0  0
    5.2670   -0.8927   -0.5108 C   0  0  0  0  0  0
    6.3453   -1.6564   -0.0976 C   0  0  0  0  0  0
    6.3412   -2.2352    1.1698 C   0  0  0  0  0  0
    5.2590   -2.0453    2.0131 C   0  0  0  0  0  0
    4.1853   -1.2783    1.6017 C   0  0  0  0  0  0
    7.5052   -2.9308    1.3349 O   0  0  0  0  0  0
    8.3964   -2.4353    0.3184 C   0  0  0  0  0  0
    7.5108   -1.9894   -0.7255 O   0  0  0  0  0  0
   -1.6254    1.6831   -1.0104 O   0  5  0  0  0  0
   -2.9706   -0.0925    0.6100 C   0  0  0  0  0  0
   -3.9995   -0.3899   -0.4827 C   0  0  0  0  0  0
   -5.3200   -0.8154    0.1625 C   0  0  0  0  0  0
   -6.3489   -1.1128   -0.9302 C   0  0  0  0  0  0
   -7.6496   -1.5318   -0.2947 C   0  0  0  0  0  0
   -8.6023   -0.5814    0.0211 C   0  0  0  0  0  0
   -9.7954   -0.9658    0.6040 C   0  0  0  0  0  0
  -10.0358   -2.3007    0.8707 C   0  0  0  0  0  0
   -9.0835   -3.2512    0.5540 C   0  0  0  0  0  0
   -7.8922   -2.8673   -0.0329 C   0  0  0  0  0  0
    0.7363    1.0921   -0.7500 H   0  0  0  0  0  0
    1.3559    2.5771    1.8428 H   0  0  0  0  0  0
    2.2271    2.8062    0.3076 H   0  0  0  0  0  0
    0.1089    3.4746   -0.7947 H   0  0  0  0  0  0
   -0.7623    3.2455    0.7404 H   0  0  0  0  0  0
    0.6589    4.9761    1.8052 H   0  0  0  0  0  0
    1.5301    5.2052    0.2700 H   0  0  0  0  0  0
   -0.5881    5.8736   -0.8323 H   0  0  0  0  0  0
   -1.4593    5.6445    0.7029 H   0  0  0  0  0  0
    2.5286    1.6707   -1.3098 H   0  0  0  0  0  0
    4.1722    1.0469   -1.5885 H   0  0  0  0  0  0
    5.2680   -0.4435   -1.4930 H   0  0  0  0  0  0
    5.2559   -2.4940    2.9955 H   0  0  0  0  0  0
    3.3427   -1.1319    2.2612 H   0  0  0  0  0  0
    8.9879   -1.6032    0.7003 H   0  0  0  0  0  0
    9.0449   -3.2328   -0.0442 H   0  0  0  0  0  0
   -2.8097   -0.9876    1.2108 H   0  0  0  0  0  0
   -3.3393    0.7113    1.2471 H   0  0  0  0  0  0
   -4.1605    0.5051   -1.0835 H   0  0  0  0  0  0
   -3.6308   -1.1938   -1.1198 H   0  0  0  0  0  0
   -5.1591   -1.7105    0.7633 H   0  0  0  0  0  0
   -5.6887   -0.0115    0.7996 H   0  0  0  0  0  0
   -6.5099   -0.2177   -1.5310 H   0  0  0  0  0  0
   -5.9802   -1.9167   -1.5673 H   0  0  0  0  0  0
   -8.4144    0.4616   -0.1872 H   0  0  0  0  0  0
  -10.5394   -0.2231    0.8514 H   0  0  0  0  0  0
  -10.9677   -2.6009    1.3267 H   0  0  0  0  0  0
   -9.2712   -4.2941    0.7626 H   0  0  0  0  0  0
   -7.1481   -3.6100   -0.2803 H   0  0  0  0  0  0
  1  2  2  0  0  0
  1  3  1  0  0  0
  1 29  1  0  0  0
  1 30  1  0  0  0
  3  4  1  0  0  0
  4  5  1  0  0  0
  4 13  1  0  0  0
  4 40  1  0  0  0
  5  6  1  0  0  0
  5 41  1  0  0  0
  5 42  1  0  0  0
  6  7  1  0  0  0
  6 43  1  0  0  0
  6 44  1  0  0  0
  7  8  1  0  0  0
  7 45  1  0  0  0
  7 46  1  0  0  0
  8  9  1  0  0  0
  8 47  1  0  0  0
  8 48  1  0  0  0
  9 10  1  0  0  0
  9 11  1  0  0  0
  9 12  1  0  0  0
 13 14  2  0  0  0
 13 15  1  0  0  0
 15 16  1  0  0  0
 15 20  1  0  0  0
 16 17  1  0  0  0
 16 49  1  0  0  0
 16 50  1  0  0  0
 17 18  2  0  0  0
 17 19  1  0  0  0
 20 21  1  0  0  0
 20 25  2  0  0  0
 21 22  2  0  0  0
 21 51  1  0  0  0
 22 23  1  0  0  0
 22 28  1  0  0  0
 23 24  2  0  0  0
 23 26  1  0  0  0
 24 25  1  0  0  0
 24 52  1  0  0  0
 25 53  1  0  0  0
 26 27  1  0  0  0
 27 28  1  0  0  0
 27 54  1  0  0  0
 27 55  1  0  0  0
 30 31  1  0  0  0
 30 56  1  0  0  0
 30 57  1  0  0  0
 31 32  1  0  0  0
 31 58  1  0  0  0
 31 59  1  0  0  0
 32 33  1  0  0  0
 32 60  1  0  0  0
 32 61  1  0  0  0
 33 34  1  0  0  0
 33 62  1  0  0  0
 33 63  1  0  0  0
 34 35  1  0  0  0
 34 39  2  0  0  0
 35 36  2  0  0  0
 35 64  1  0  0  0
 36 37  1  0  0  0
 36 65  1  0  0  0
 37 38  2  0  0  0
 37 66  1  0  0  0
 38 39  1  0  0  0
 38 67  1  0  0  0
 39 68  1  0  0  0
M  CHG  3   9   1  19  -1  29  -1
M  END
>  <Activity>
9.94

>  <set>
2

>  <Min_dist>
0.244186

>  <Avg_dist>
0.641589

$$$$
THIOL_12
  Cerius2 12110214443D 1   1.00000                          
 
 25 25  0  0  0  0  0  0  0  0999 V2000
    3.7687   -1.6812   -0.2434 S   0  0  0  0  0  0
    2.3768   -1.1520    0.7926 C   0  0  0  0  0  0
    1.4964   -0.2125    0.0095 C   0  0  0  0  0  0
    1.7800    0.0721   -1.1348 O   0  0  0  0  0  0
    0.3939    0.3115    0.5808 N   0  0  0  0  0  0
   -0.4619    1.2249   -0.1805 C   0  0  0  0  0  0
   -1.9069    1.0937    0.3052 C   0  0  0  0  0  0
   -2.3784   -0.3231    0.1022 C   0  0  0  0  0  0
   -2.2724   -1.3544    0.9961 N   0  0  0  0  0  0
   -1.8783   -1.3105    1.8813 H   0  0  0  0  0  0
   -2.8188   -2.4442    0.4153 C   0  0  0  0  0  0
   -3.2432   -2.1159   -0.7743 N   0  0  0  0  0  0
   -2.9904   -0.8166   -0.9912 C   0  0  0  0  0  0
    0.0096    2.6417    0.0225 C   0  0  0  0  0  0
    0.5477    2.9613    1.0693 O   0  0  0  0  0  0
   -0.1469    3.4689   -0.8601 O   0  5  0  0  0  0
    4.4093   -2.4885    0.6208 H   0  0  0  0  0  0
    1.7978   -2.0241    1.0965 H   0  0  0  0  0  0
    2.7562   -0.6414    1.6778 H   0  0  0  0  0  0
    0.1671    0.0839    1.4961 H   0  0  0  0  0  0
   -0.4104    0.9730   -1.2397 H   0  0  0  0  0  0
   -1.9584    1.3456    1.3644 H   0  0  0  0  0  0
   -2.5437    1.7733   -0.2612 H   0  0  0  0  0  0
   -2.8921   -3.4251    0.8612 H   0  0  0  0  0  0
   -3.2293   -0.2647   -1.8882 H   0  0  0  0  0  0
  1  2  1  0  0  0
  1 17  1  0  0  0
  2  3  1  0  0  0
  2 18  1  0  0  0
  2 19  1  0  0  0
  3  4  2  0  0  0
  3  5  1  0  0  0
  5  6  1  0  0  0
  5 20  1  0  0  0
  6  7  1  0  0  0
  6 14  1  0  0  0
  6 21  1  0  0  0
  7  8  1  0  0  0
  7 22  1  0  0  0
  7 23  1  0  0  0
  8  9  1  0  0  0
  8 13  2  0  0  0
  9 10  1  0  0  0
  9 11  1  0  0  0
 11 12  2  0  0  0
 11 24  1  0  0  0
 12 13  1  0  0  0
 13 25  1  0  0  0
 14 15  2  0  0  0
 14 16  1  0  0  0
M  CHG  1  16  -1
M  END
>  <Activity>
3.59

>  <set>
2

>  <Min_dist>
0.054054

>  <Avg_dist>
0.60853

$$$$
THIOL_22
  Cerius2 12110214443D 1   1.00000                          
 
 38 39  0  0  0  0  0  0  0  0999 V2000
    3.6533    2.1116    1.2268 S   0  0  0  0  0  0
    2.8119    1.3063   -0.1639 C   0  0  0  0  0  0
    1.9593    2.3352   -0.9092 C   0  0  0  0  0  0
    3.8530    0.7189   -1.1189 C   0  0  0  0  0  0
    1.9271    0.2024    0.3554 C   0  0  0  0  0  0
    1.8699   -0.0193    1.5464 O   0  0  0  0  0  0
    1.1996   -0.5386   -0.5037 N   0  0  0  0  0  0
    0.3395   -1.6117    0.0011 C   0  0  0  0  0  0
   -0.8619   -1.7834   -0.9307 C   0  0  0  0  0  0
   -1.6438   -0.4963   -0.9845 C   0  0  0  0  0  0
   -1.4586    0.5151   -1.8475 C   0  0  0  0  0  0
   -2.3564    1.5157   -1.5931 N   0  0  0  0  0  0
   -2.4168    2.3489   -2.0862 H   0  0  0  0  0  0
   -3.1618    1.1637   -0.5333 C   0  0  0  0  0  0
   -2.7544   -0.1142   -0.1091 C   0  0  0  0  0  0
   -3.4021   -0.7317    0.9628 C   0  0  0  0  0  0
   -4.4297   -0.0905    1.5949 C   0  0  0  0  0  0
   -4.8357    1.1706    1.1798 C   0  0  0  0  0  0
   -4.2130    1.7966    0.1225 C   0  0  0  0  0  0
    1.1215   -2.8988    0.0549 C   0  0  0  0  0  0
    2.0663   -3.1061   -0.7761 O   0  0  0  0  0  0
    0.8383   -3.7808    0.9315 O   0  5  0  0  0  0
    4.3692    3.0366    0.5627 H   0  0  0  0  0  0
    1.2176    2.7537   -0.2288 H   0  0  0  0  0  0
    2.5992    3.1337   -1.2848 H   0  0  0  0  0  0
    1.4538    1.8513   -1.7448 H   0  0  0  0  0  0
    4.4604   -0.0141   -0.5879 H   0  0  0  0  0  0
    3.3474    0.2350   -1.9545 H   0  0  0  0  0  0
    4.4929    1.5174   -1.4945 H   0  0  0  0  0  0
    1.2454   -0.3613   -1.4563 H   0  0  0  0  0  0
   -0.0101   -1.3569    1.0015 H   0  0  0  0  0  0
   -0.5122   -2.0383   -1.9311 H   0  0  0  0  0  0
   -1.5018   -2.5819   -0.5551 H   0  0  0  0  0  0
   -0.7111    0.5361   -2.6268 H   0  0  0  0  0  0
   -3.0921   -1.7129    1.2907 H   0  0  0  0  0  0
   -4.9303   -0.5685    2.4238 H   0  0  0  0  0  0
   -5.6498    1.6646    1.6892 H   0  0  0  0  0  0
   -4.5362    2.7776   -0.1929 H   0  0  0  0  0  0
  1  2  1  0  0  0
  1 23  1  0  0  0
  2  3  1  0  0  0
  2  4  1  0  0  0
  2  5  1  0  0  0
  3 24  1  0  0  0
  3 25  1  0  0  0
  3 26  1  0  0  0
  4 27  1  0  0  0
  4 28  1  0  0  0
  4 29  1  0  0  0
  5  6  2  0  0  0
  5  7  1  0  0  0
  7  8  1  0  0  0
  7 30  1  0  0  0
  8  9  1  0  0  0
  8 20  1  0  0  0
  8 31  1  0  0  0
  9 10  1  0  0  0
  9 32  1  0  0  0
  9 33  1  0  0  0
 10 11  2  0  0  0
 10 15  1  0  0  0
 11 12  1  0  0  0
 11 34  1  0  0  0
 12 13  1  0  0  0
 12 14  1  0  0  0
 14 15  2  0  0  0
 14 19  1  0  0  0
 15 16  1  0  0  0
 16 17  2  0  0  0
 16 35  1  0  0  0
 17 18  1  0  0  0
 17 36  1  0  0  0
 18 19  2  0  0  0
 18 37  1  0  0  0
 19 38  1  0  0  0
 20 21  2  0  0  0
 20 22  1  0  0  0
M  CHG  1  22  -1
M  END
>  <Activity>
4.42

>  <set>
2

>  <Min_dist>
0.040541

>  <Avg_dist>
0.563254

$$$$
THIOL_28
  Cerius2 12110214443D 1   1.00000                          
 
 35 36  0  0  0  0  0  0  0  0999 V2000
    4.3808   -2.6847    0.0722 S   0  0  0  0  0  0
    3.5406   -1.2018    0.6930 C   0  0  0  0  0  0
    2.3792   -0.8464   -0.2374 C   0  0  0  0  0  0
    1.6811    0.3856    0.2784 C   0  0  0  0  0  0
    2.0739    0.9261    1.2905 O   0  0  0  0  0  0
    0.6204    0.8867   -0.3851 N   0  0  0  0  0  0
   -0.0582    2.0843    0.1163 C   0  0  0  0  0  0
   -1.5368    2.0337   -0.2737 C   0  0  0  0  0  0
   -2.1731    0.8070    0.3274 C   0  0  0  0  0  0
   -2.7633    0.7215    1.5300 C   0  0  0  0  0  0
   -3.2263   -0.5500    1.7331 N   0  0  0  0  0  0
   -3.6890   -0.8540    2.5296 H   0  0  0  0  0  0
   -2.9380   -1.3335    0.6382 C   0  0  0  0  0  0
   -2.2706   -0.5167   -0.2925 C   0  0  0  0  0  0
   -1.8528   -1.0497   -1.5136 C   0  0  0  0  0  0
   -2.0948   -2.3638   -1.7984 C   0  0  0  0  0  0
   -2.7535   -3.1740   -0.8834 C   0  0  0  0  0  0
   -3.1772   -2.6679    0.3257 C   0  0  0  0  0  0
    0.5782    3.3110   -0.4848 C   0  0  0  0  0  0
    1.0829    3.2549   -1.5937 O   0  0  0  0  0  0
    0.5884    4.3598    0.1376 O   0  5  0  0  0  0
    5.3385   -2.8191    1.0069 H   0  0  0  0  0  0
    3.1575   -1.3940    1.6952 H   0  0  0  0  0  0
    4.2462   -0.3717    0.7268 H   0  0  0  0  0  0
    2.7622   -0.6542   -1.2396 H   0  0  0  0  0  0
    1.6736   -1.6765   -0.2712 H   0  0  0  0  0  0
    0.3063    0.4543   -1.1946 H   0  0  0  0  0  0
    0.0300    2.1242    1.2020 H   0  0  0  0  0  0
   -2.0417    2.9247    0.0993 H   0  0  0  0  0  0
   -1.6250    1.9938   -1.3594 H   0  0  0  0  0  0
   -2.8581    1.5355    2.2334 H   0  0  0  0  0  0
   -1.3405   -0.4252   -2.2305 H   0  0  0  0  0  0
   -1.7714   -2.7756   -2.7430 H   0  0  0  0  0  0
   -2.9378   -4.2108   -1.1230 H   0  0  0  0  0  0
   -3.6888   -3.3063    1.0308 H   0  0  0  0  0  0
  1  2  1  0  0  0
  1 22  1  0  0  0
  2  3  1  0  0  0
  2 23  1  0  0  0
  2 24  1  0  0  0
  3  4  1  0  0  0
  3 25  1  0  0  0
  3 26  1  0  0  0
  4  5  2  0  0  0
  4  6  1  0  0  0
  6  7  1  0  0  0
  6 27  1  0  0  0
  7  8  1  0  0  0
  7 19  1  0  0  0
  7 28  1  0  0  0
  8  9  1  0  0  0
  8 29  1  0  0  0
  8 30  1  0  0  0
  9 10  2  0  0  0
  9 14  1  0  0  0
 10 11  1  0  0  0
 10 31  1  0  0  0
 11 12  1  0  0  0
 11 13  1  0  0  0
 13 14  2  0  0  0
 13 18  1  0  0  0
 14 15  1  0  0  0
 15 16  2  0  0  0
 15 32  1  0  0  0
 16 17  1  0  0  0
 16 33  1  0  0  0
 17 18  2  0  0  0
 17 34  1  0  0  0
 18 35  1  0  0  0
 19 20  2  0  0  0
 19 21  1  0  0  0
M  CHG  1  21  -1
M  END
>  <Activity>
3

>  <set>
2

>  <Min_dist>
0

>  <Avg_dist>
0.556702

$$$$
