1-1
  Cerius2 12110214483D 1   1.00000                          
 
 51 53  0  0  0  0  0  0  0  0999 V2000
    0.8732   -1.5177    0.0248 C   0  0  0  0  0  0
   -0.5592   -1.5034   -0.5129 C   0  0  0  0  0  0
   -1.3628   -2.6313    0.1408 C   0  0  0  0  0  0
   -2.8136   -2.5619   -0.3409 C   0  0  0  0  0  0
   -3.3948   -1.2663    0.0304 N   0  3  0  0  0  0
   -3.3238   -1.1407    1.0290 H   0  0  0  0  0  0
   -2.6739   -0.1837   -0.6498 C   0  0  0  0  0  0
   -1.2178   -0.1615   -0.1800 C   0  0  0  0  0  0
   -4.8088   -1.2339   -0.3664 C   0  0  0  0  0  0
   -5.4070    0.0959    0.0142 C   0  0  0  0  0  0
   -5.3717    1.1507   -0.8787 C   0  0  0  0  0  0
   -5.9203    2.3705   -0.5295 C   0  0  0  0  0  0
   -6.5048    2.5354    0.7123 C   0  0  0  0  0  0
   -6.5409    1.4805    1.6048 C   0  0  0  0  0  0
   -5.9961    0.2594    1.2540 C   0  0  0  0  0  0
    1.6746   -0.3904   -0.6292 C   0  0  0  0  0  0
    3.0461   -0.4040   -0.1144 N   0  0  0  0  0  0
    3.9392    0.5057   -0.5518 C   0  0  0  0  0  0
    3.6067    1.3375   -1.3734 O   0  0  0  0  0  0
    5.3233    0.4919   -0.0323 C   0  0  0  0  0  0
    6.2506    1.4326   -0.4831 C   0  0  0  0  0  0
    7.5404    1.4145    0.0060 C   0  0  0  0  0  0
    7.9156    0.4664    0.9412 C   0  0  0  0  0  0
    7.0013   -0.4690    1.3923 C   0  0  0  0  0  0
    5.7068   -0.4583    0.9155 C   0  0  0  0  0  0
    0.8572   -1.3728    1.1050 H   0  0  0  0  0  0
    1.3385   -2.4758   -0.2065 H   0  0  0  0  0  0
   -0.5443   -1.6454   -1.5935 H   0  0  0  0  0  0
   -0.9325   -3.5933   -0.1374 H   0  0  0  0  0  0
   -1.3334   -2.5184    1.2245 H   0  0  0  0  0  0
   -2.8419   -2.6752   -1.4246 H   0  0  0  0  0  0
   -3.3885   -3.3637    0.1225 H   0  0  0  0  0  0
   -2.7052   -0.3476   -1.7270 H   0  0  0  0  0  0
   -3.1457    0.7704   -0.4146 H   0  0  0  0  0  0
   -1.1853    0.0027    0.8971 H   0  0  0  0  0  0
   -0.6837    0.6419   -0.6876 H   0  0  0  0  0  0
   -4.8869   -1.3721   -1.4448 H   0  0  0  0  0  0
   -5.3474   -2.0334    0.1423 H   0  0  0  0  0  0
   -4.9150    1.0218   -1.8489 H   0  0  0  0  0  0
   -5.8921    3.1947   -1.2268 H   0  0  0  0  0  0
   -6.9328    3.4887    0.9853 H   0  0  0  0  0  0
   -6.9973    1.6094    2.5751 H   0  0  0  0  0  0
   -6.0244   -0.5649    1.9513 H   0  0  0  0  0  0
    1.6905   -0.5352   -1.7094 H   0  0  0  0  0  0
    1.2093    0.5678   -0.3979 H   0  0  0  0  0  0
    3.3115   -1.0678    0.5412 H   0  0  0  0  0  0
    5.9592    2.1728   -1.2136 H   0  0  0  0  0  0
    8.2589    2.1419   -0.3420 H   0  0  0  0  0  0
    8.9268    0.4561    1.3205 H   0  0  0  0  0  0
    7.3006   -1.2064    2.1224 H   0  0  0  0  0  0
    4.9939   -1.1887    1.2687 H   0  0  0  0  0  0
  1  2  1  0  0  0
  1 16  1  0  0  0
  1 26  1  0  0  0
  1 27  1  0  0  0
  2  3  1  0  0  0
  2  8  1  0  0  0
  2 28  1  0  0  0
  3  4  1  0  0  0
  3 29  1  0  0  0
  3 30  1  0  0  0
  4  5  1  0  0  0
  4 31  1  0  0  0
  4 32  1  0  0  0
  5  6  1  0  0  0
  5  7  1  0  0  0
  5  9  1  0  0  0
  7  8  1  0  0  0
  7 33  1  0  0  0
  7 34  1  0  0  0
  8 35  1  0  0  0
  8 36  1  0  0  0
  9 10  1  0  0  0
  9 37  1  0  0  0
  9 38  1  0  0  0
 10 11  2  0  0  0
 10 15  1  0  0  0
 11 12  1  0  0  0
 11 39  1  0  0  0
 12 13  2  0  0  0
 12 40  1  0  0  0
 13 14  1  0  0  0
 13 41  1  0  0  0
 14 15  2  0  0  0
 14 42  1  0  0  0
 15 43  1  0  0  0
 16 17  1  0  0  0
 16 44  1  0  0  0
 16 45  1  0  0  0
 17 18  1  0  0  0
 17 46  1  0  0  0
 18 19  2  0  0  0
 18 20  1  0  0  0
 20 21  2  0  0  0
 20 25  1  0  0  0
 21 22  1  0  0  0
 21 47  1  0  0  0
 22 23  2  0  0  0
 22 48  1  0  0  0
 23 24  1  0  0  0
 23 49  1  0  0  0
 24 25  2  0  0  0
 24 50  1  0  0  0
 25 51  1  0  0  0
M  CHG  1   5   1
M  END
>  <Activity>
6.25181

>  <set>
1

>  <Min_dist>
999.9

>  <Avg_dist>
999.9

$$$$
1-10
  Cerius2 12110214483D 1   1.00000                          
 
 51 54  0  0  0  0  0  0  0  0999 V2000
    0.8187    1.0687   -0.3608 C   0  0  0  0  0  0
   -0.6312    1.4166   -0.0176 C   0  0  0  0  0  0
   -1.2933    2.0957   -1.2199 C   0  0  0  0  0  0
   -2.7642    2.3689   -0.8984 C   0  0  0  0  0  0
   -3.4492    1.1029   -0.6111 N   0  3  0  0  0  0
   -3.3458    0.4796   -1.3979 H   0  0  0  0  0  0
   -2.8662    0.4811    0.5838 C   0  0  0  0  0  0
   -1.3993    0.1352    0.3193 C   0  0  0  0  0  0
   -4.8763    1.3620   -0.3779 C   0  0  0  0  0  0
   -5.5810    0.0631   -0.0829 C   0  0  0  0  0  0
   -5.6867   -0.3854    1.2204 C   0  0  0  0  0  0
   -6.3331   -1.5770    1.4911 C   0  0  0  0  0  0
   -6.8743   -2.3198    0.4585 C   0  0  0  0  0  0
   -6.7694   -1.8708   -0.8447 C   0  0  0  0  0  0
   -6.1268   -0.6771   -1.1149 C   0  0  0  0  0  0
    1.4786    0.3903    0.8413 C   0  0  0  0  0  0
    2.8669    0.0572    0.5127 N   0  0  0  0  0  0
    3.9153    0.8740    0.7209 C   0  0  0  0  0  0
    3.8618    1.9872    1.2033 O   0  0  0  0  0  0
    5.1435    0.1896    0.2646 C   0  0  0  0  0  0
    6.4856    0.5309    0.2307 C   0  0  0  0  0  0
    7.4110   -0.3685   -0.2767 C   0  0  0  0  0  0
    7.0034   -1.6017   -0.7483 C   0  0  0  0  0  0
    5.6634   -1.9569   -0.7211 C   0  0  0  0  0  0
    4.7277   -1.0687   -0.2165 C   0  0  0  0  0  0
    3.2617   -1.1079   -0.0317 C   0  0  0  0  0  0
    2.5348   -2.0358   -0.3246 O   0  0  0  0  0  0
    0.8375    0.3922   -1.2153 H   0  0  0  0  0  0
    1.3625    1.9806   -0.6072 H   0  0  0  0  0  0
   -0.6514    2.0908    0.8386 H   0  0  0  0  0  0
   -0.7860    3.0371   -1.4311 H   0  0  0  0  0  0
   -1.2261    1.4422   -2.0897 H   0  0  0  0  0  0
   -2.8302    3.0227   -0.0287 H   0  0  0  0  0  0
   -3.2385    2.8526   -1.7523 H   0  0  0  0  0  0
   -2.9301    1.1751    1.4219 H   0  0  0  0  0  0
   -3.4160   -0.4290    0.8242 H   0  0  0  0  0  0
   -1.3343   -0.5590   -0.5185 H   0  0  0  0  0  0
   -0.9678   -0.3247    1.2083 H   0  0  0  0  0  0
   -4.9891    2.0374    0.4702 H   0  0  0  0  0  0
   -5.3126    1.8185   -1.2664 H   0  0  0  0  0  0
   -5.2638    0.1949    2.0272 H   0  0  0  0  0  0
   -6.4150   -1.9277    2.5092 H   0  0  0  0  0  0
   -7.3787   -3.2511    0.6699 H   0  0  0  0  0  0
   -7.1920   -2.4513   -1.6515 H   0  0  0  0  0  0
   -6.0449   -0.3263   -2.1331 H   0  0  0  0  0  0
    1.4598    1.0667    1.6958 H   0  0  0  0  0  0
    0.9348   -0.5216    1.0878 H   0  0  0  0  0  0
    6.8098    1.4935    0.5976 H   0  0  0  0  0  0
    8.4575   -0.1031   -0.3039 H   0  0  0  0  0  0
    7.7337   -2.2937   -1.1412 H   0  0  0  0  0  0
    5.3505   -2.9218   -1.0917 H   0  0  0  0  0  0
  1  2  1  0  0  0
  1 16  1  0  0  0
  1 28  1  0  0  0
  1 29  1  0  0  0
  2  3  1  0  0  0
  2  8  1  0  0  0
  2 30  1  0  0  0
  3  4  1  0  0  0
  3 31  1  0  0  0
  3 32  1  0  0  0
  4  5  1  0  0  0
  4 33  1  0  0  0
  4 34  1  0  0  0
  5  6  1  0  0  0
  5  7  1  0  0  0
  5  9  1  0  0  0
  7  8  1  0  0  0
  7 35  1  0  0  0
  7 36  1  0  0  0
  8 37  1  0  0  0
  8 38  1  0  0  0
  9 10  1  0  0  0
  9 39  1  0  0  0
  9 40  1  0  0  0
 10 11  2  0  0  0
 10 15  1  0  0  0
 11 12  1  0  0  0
 11 41  1  0  0  0
 12 13  2  0  0  0
 12 42  1  0  0  0
 13 14  1  0  0  0
 13 43  1  0  0  0
 14 15  2  0  0  0
 14 44  1  0  0  0
 15 45  1  0  0  0
 16 17  1  0  0  0
 16 46  1  0  0  0
 16 47  1  0  0  0
 17 18  1  0  0  0
 17 26  1  0  0  0
 18 19  2  0  0  0
 18 20  1  0  0  0
 20 21  2  0  0  0
 20 25  1  0  0  0
 21 22  1  0  0  0
 21 48  1  0  0  0
 22 23  2  0  0  0
 22 49  1  0  0  0
 23 24  1  0  0  0
 23 50  1  0  0  0
 24 25  2  0  0  0
 24 51  1  0  0  0
 25 26  1  0  0  0
 26 27  2  0  0  0
M  CHG  1   5   1
M  END
>  <Activity>
7.52288

>  <set>
1

>  <Min_dist>
999.9

>  <Avg_dist>
999.9

$$$$
1-12
  Cerius2 12110214483D 1   1.00000                          
 
 50 53  0  0  0  0  0  0  0  0999 V2000
   -4.5376    1.7473   -0.8580 C   0  0  0  0  0  0
   -5.0561    0.9846    0.1710 C   0  0  0  0  0  0
   -4.4018   -0.1621    0.5946 C   0  0  0  0  0  0
   -3.2204   -0.5450   -0.0190 C   0  0  0  0  0  0
   -2.6916    0.2329   -1.0693 C   0  0  0  0  0  0
   -3.3560    1.3763   -1.4816 C   0  0  0  0  0  0
   -1.4478   -0.4466   -1.4890 C   0  0  0  0  0  0
   -0.7027   -0.0778   -2.3743 O   0  0  0  0  0  0
   -1.2791   -1.5417   -0.7261 N   0  0  0  0  0  0
   -2.2798   -1.6706    0.1636 C   0  0  0  0  0  0
   -2.3914   -2.5622    0.9806 O   0  0  0  0  0  0
   -0.1540   -2.4719   -0.8486 C   0  0  0  0  0  0
    0.9864   -2.0158    0.0638 C   0  0  0  0  0  0
    2.1635   -2.9872   -0.0630 C   0  0  0  0  0  0
    3.3288   -2.4821    0.7904 C   0  0  0  0  0  0
    3.7387   -1.1512    0.3268 N   0  3  0  0  0  0
    3.9814   -1.1969   -0.6515 H   0  0  0  0  0  0
    2.6379   -0.1982    0.5123 C   0  0  0  0  0  0
    1.4460   -0.6154   -0.3519 C   0  0  0  0  0  0
    4.9055   -0.7033    1.0987 C   0  0  0  0  0  0
    5.3276    0.6632    0.6238 C   0  0  0  0  0  0
    4.7941    1.7947    1.2121 C   0  0  0  0  0  0
    5.1813    3.0482    0.7764 C   0  0  0  0  0  0
    6.1022    3.1702   -0.2473 C   0  0  0  0  0  0
    6.6364    2.0387   -0.8350 C   0  0  0  0  0  0
    6.2525    0.7853   -0.3963 C   0  0  0  0  0  0
   -6.3186    1.3948    0.8259 N   0  3  0  0  0  0
   -6.8966    2.4016    0.4574 O   0  0  0  0  0  0
   -6.7793    0.7257    1.7334 O   0  5  0  0  0  0
   -5.0587    2.6361   -1.1819 H   0  0  0  0  0  0
   -4.8112   -0.7540    1.3999 H   0  0  0  0  0  0
   -2.9556    1.9761   -2.2855 H   0  0  0  0  0  0
   -0.4755   -3.4715   -0.5563 H   0  0  0  0  0  0
    0.1923   -2.4892   -1.8820 H   0  0  0  0  0  0
    0.6404   -1.9954    1.0972 H   0  0  0  0  0  0
    1.8594   -3.9748    0.2839 H   0  0  0  0  0  0
    2.4752   -3.0471   -1.1058 H   0  0  0  0  0  0
    3.0161   -2.4229    1.8329 H   0  0  0  0  0  0
    4.1685   -3.1716    0.7026 H   0  0  0  0  0  0
    2.3399   -0.1876    1.5608 H   0  0  0  0  0  0
    2.9675    0.7986    0.2191 H   0  0  0  0  0  0
    1.7428   -0.6260   -1.4006 H   0  0  0  0  0  0
    0.6290    0.0924   -0.2113 H   0  0  0  0  0  0
    4.6453   -0.6560    2.1561 H   0  0  0  0  0  0
    5.7263   -1.4065    0.9576 H   0  0  0  0  0  0
    4.0746    1.6994    2.0118 H   0  0  0  0  0  0
    4.7640    3.9322    1.2355 H   0  0  0  0  0  0
    6.4041    4.1495   -0.5882 H   0  0  0  0  0  0
    7.3556    2.1340   -1.6350 H   0  0  0  0  0  0
    6.6698   -0.0987   -0.8555 H   0  0  0  0  0  0
  1  2  2  0  0  0
  1  6  1  0  0  0
  1 30  1  0  0  0
  2  3  1  0  0  0
  2 27  1  0  0  0
  3  4  2  0  0  0
  3 31  1  0  0  0
  4  5  1  0  0  0
  4 10  1  0  0  0
  5  6  2  0  0  0
  5  7  1  0  0  0
  6 32  1  0  0  0
  7  8  2  0  0  0
  7  9  1  0  0  0
  9 10  1  0  0  0
  9 12  1  0  0  0
 10 11  2  0  0  0
 12 13  1  0  0  0
 12 33  1  0  0  0
 12 34  1  0  0  0
 13 14  1  0  0  0
 13 19  1  0  0  0
 13 35  1  0  0  0
 14 15  1  0  0  0
 14 36  1  0  0  0
 14 37  1  0  0  0
 15 16  1  0  0  0
 15 38  1  0  0  0
 15 39  1  0  0  0
 16 17  1  0  0  0
 16 18  1  0  0  0
 16 20  1  0  0  0
 18 19  1  0  0  0
 18 40  1  0  0  0
 18 41  1  0  0  0
 19 42  1  0  0  0
 19 43  1  0  0  0
 20 21  1  0  0  0
 20 44  1  0  0  0
 20 45  1  0  0  0
 21 22  2  0  0  0
 21 26  1  0  0  0
 22 23  1  0  0  0
 22 46  1  0  0  0
 23 24  2  0  0  0
 23 47  1  0  0  0
 24 25  1  0  0  0
 24 48  1  0  0  0
 25 26  2  0  0  0
 25 49  1  0  0  0
 26 50  1  0  0  0
 27 28  2  0  0  0
 27 29  1  0  0  0
M  CHG  3  16   1  27   1  29  -1
M  END
>  <Activity>
5.52288

>  <set>
1

>  <Min_dist>
999.9

>  <Avg_dist>
999.9

$$$$
1-13
  Cerius2 12110214483D 1   1.00000                          
 
 53 56  0  0  0  0  0  0  0  0999 V2000
   -0.2548    1.3136   -0.4491 C   0  0  0  0  0  0
   -1.7466    1.5626   -0.2181 C   0  0  0  0  0  0
   -2.4133    1.9438   -1.5431 C   0  0  0  0  0  0
   -3.9177    2.1137   -1.3205 C   0  0  0  0  0  0
   -4.4885    0.8541   -0.8283 N   0  3  0  0  0  0
   -4.2866    0.1153   -1.4852 H   0  0  0  0  0  0
   -3.9056    0.5194    0.4766 C   0  0  0  0  0  0
   -2.4008    0.2882    0.3231 C   0  0  0  0  0  0
   -5.9436    0.9992   -0.6887 C   0  0  0  0  0  0
   -6.5311   -0.2933   -0.1834 C   0  0  0  0  0  0
   -6.6550   -0.5115    1.1760 C   0  0  0  0  0  0
   -7.1938   -1.6971    1.6394 C   0  0  0  0  0  0
   -7.6092   -2.6644    0.7435 C   0  0  0  0  0  0
   -7.4862   -2.4458   -0.6159 C   0  0  0  0  0  0
   -6.9513   -1.2584   -1.0794 C   0  0  0  0  0  0
    0.4098    0.9329    0.8754 C   0  0  0  0  0  0
    1.8382    0.6944    0.6543 N   0  0  0  0  0  0
    2.7903    1.6407    0.7421 C   0  0  0  0  0  0
    2.6048    2.8100    1.0126 O   0  0  0  0  0  0
    4.1001    1.0190    0.4541 C   0  0  0  0  0  0
    5.4025    1.4879    0.3991 C   0  0  0  0  0  0
    6.4349    0.6150    0.0912 C   0  0  0  0  0  0
    6.1732   -0.7183   -0.1609 C   0  0  0  0  0  0
    4.8747   -1.2017   -0.1095 C   0  0  0  0  0  0
    3.8332   -0.3412    0.1968 C   0  0  0  0  0  0
    2.3709   -0.5008    0.3424 C   0  0  0  0  0  0
    1.7536   -1.5373    0.2027 O   0  0  0  0  0  0
    7.2868   -1.6366   -0.4886 N   0  3  0  0  0  0
    8.4291   -1.2163   -0.5353 O   0  0  0  0  0  0
    7.0610   -2.8125   -0.7116 O   0  5  0  0  0  0
   -0.1286    0.5017   -1.1654 H   0  0  0  0  0  0
    0.2084    2.2191   -0.8410 H   0  0  0  0  0  0
   -1.8740    2.3725    0.5002 H   0  0  0  0  0  0
   -1.9911    2.8805   -1.9068 H   0  0  0  0  0  0
   -2.2406    1.1567   -2.2771 H   0  0  0  0  0  0
   -4.0893    2.9011   -0.5866 H   0  0  0  0  0  0
   -4.3954    2.3852   -2.2618 H   0  0  0  0  0  0
   -4.0775    1.3408    1.1722 H   0  0  0  0  0  0
   -4.3745   -0.3860    0.8620 H   0  0  0  0  0  0
   -2.2278   -0.5333   -0.3721 H   0  0  0  0  0  0
   -1.9697    0.0416    1.2934 H   0  0  0  0  0  0
   -6.1628    1.7990    0.0187 H   0  0  0  0  0  0
   -6.3792    1.2419   -1.6579 H   0  0  0  0  0  0
   -6.3304    0.2443    1.8759 H   0  0  0  0  0  0
   -7.2900   -1.8678    2.7015 H   0  0  0  0  0  0
   -8.0296   -3.5910    1.1056 H   0  0  0  0  0  0
   -7.8104   -3.2017   -1.3159 H   0  0  0  0  0  0
   -6.8552   -1.0877   -2.1415 H   0  0  0  0  0  0
    0.2836    1.7448    1.5917 H   0  0  0  0  0  0
   -0.0534    0.0274    1.2673 H   0  0  0  0  0  0
    5.6128    2.5289    0.5950 H   0  0  0  0  0  0
    7.4505    0.9796    0.0478 H   0  0  0  0  0  0
    4.6760   -2.2445   -0.3078 H   0  0  0  0  0  0
  1  2  1  0  0  0
  1 16  1  0  0  0
  1 31  1  0  0  0
  1 32  1  0  0  0
  2  3  1  0  0  0
  2  8  1  0  0  0
  2 33  1  0  0  0
  3  4  1  0  0  0
  3 34  1  0  0  0
  3 35  1  0  0  0
  4  5  1  0  0  0
  4 36  1  0  0  0
  4 37  1  0  0  0
  5  6  1  0  0  0
  5  7  1  0  0  0
  5  9  1  0  0  0
  7  8  1  0  0  0
  7 38  1  0  0  0
  7 39  1  0  0  0
  8 40  1  0  0  0
  8 41  1  0  0  0
  9 10  1  0  0  0
  9 42  1  0  0  0
  9 43  1  0  0  0
 10 11  2  0  0  0
 10 15  1  0  0  0
 11 12  1  0  0  0
 11 44  1  0  0  0
 12 13  2  0  0  0
 12 45  1  0  0  0
 13 14  1  0  0  0
 13 46  1  0  0  0
 14 15  2  0  0  0
 14 47  1  0  0  0
 15 48  1  0  0  0
 16 17  1  0  0  0
 16 49  1  0  0  0
 16 50  1  0  0  0
 17 18  1  0  0  0
 17 26  1  0  0  0
 18 19  2  0  0  0
 18 20  1  0  0  0
 20 21  2  0  0  0
 20 25  1  0  0  0
 21 22  1  0  0  0
 21 51  1  0  0  0
 22 23  2  0  0  0
 22 52  1  0  0  0
 23 24  1  0  0  0
 23 28  1  0  0  0
 24 25  2  0  0  0
 24 53  1  0  0  0
 25 26  1  0  0  0
 26 27  2  0  0  0
 28 29  2  0  0  0
 28 30  1  0  0  0
M  CHG  3   5   1  28   1  30  -1
M  END
>  <Activity>
7.90309

>  <set>
1

>  <Min_dist>
999.9

>  <Avg_dist>
999.9

$$$$
1-14
  Cerius2 12110214483D 1   1.00000                          
 
 57 60  0  0  0  0  0  0  0  0999 V2000
    0.4819    1.5990   -0.4111 C   0  0  0  0  0  0
   -0.9843    1.9700   -0.1794 C   0  0  0  0  0  0
   -1.5989    2.4713   -1.4894 C   0  0  0  0  0  0
   -3.0845    2.7650   -1.2699 C   0  0  0  0  0  0
   -3.7712    1.5401   -0.8427 N   0  3  0  0  0  0
   -3.6287    0.8177   -1.5327 H   0  0  0  0  0  0
   -3.2358    1.0935    0.4489 C   0  0  0  0  0  0
   -1.7560    0.7354    0.2955 C   0  0  0  0  0  0
   -5.2091    1.8086   -0.7069 C   0  0  0  0  0  0
   -5.9156    0.5518   -0.2684 C   0  0  0  0  0  0
   -6.0735    0.2831    1.0787 C   0  0  0  0  0  0
   -6.7208   -0.8683    1.4833 C   0  0  0  0  0  0
   -7.2124   -1.7554    0.5368 C   0  0  0  0  0  0
   -7.0527   -1.4835   -0.8142 C   0  0  0  0  0  0
   -6.4097   -0.3279   -1.2137 C   0  0  0  0  0  0
   -7.8491   -2.8890    0.9323 O   0  0  0  0  0  0
   -8.2319   -3.5839   -0.2563 C   0  0  0  0  0  0
    1.0944    1.0985    0.8985 C   0  0  0  0  0  0
    2.4983    0.7433    0.6766 N   0  0  0  0  0  0
    3.5301    1.5950    0.8165 C   0  0  0  0  0  0
    3.4468    2.7622    1.1413 O   0  0  0  0  0  0
    4.7823    0.8724    0.5087 C   0  0  0  0  0  0
    6.1220    1.2244    0.4857 C   0  0  0  0  0  0
    7.0756    0.2777    0.1439 C   0  0  0  0  0  0
    6.6988   -1.0133   -0.1736 C   0  0  0  0  0  0
    5.3617   -1.3800   -0.1549 C   0  0  0  0  0  0
    4.3979   -0.4448    0.1847 C   0  0  0  0  0  0
    2.9256   -0.4790    0.3119 C   0  0  0  0  0  0
    2.2198   -1.4482    0.1183 O   0  0  0  0  0  0
    7.7296   -2.0115   -0.5368 N   0  3  0  0  0  0
    8.9053   -1.6939   -0.5550 O   0  0  0  0  0  0
    7.4021   -3.1506   -0.8174 O   0  5  0  0  0  0
    0.5433    0.8137   -1.1645 H   0  0  0  0  0  0
    1.0286    2.4767   -0.7558 H   0  0  0  0  0  0
   -1.0470    2.7534    0.5759 H   0  0  0  0  0  0
   -1.0904    3.3824   -1.8048 H   0  0  0  0  0  0
   -1.4887    1.7072   -2.2590 H   0  0  0  0  0  0
   -3.1935    3.5293   -0.5005 H   0  0  0  0  0  0
   -3.5251    3.1223   -2.2007 H   0  0  0  0  0  0
   -3.3415    1.8934    1.1817 H   0  0  0  0  0  0
   -3.7881    0.2168    0.7871 H   0  0  0  0  0  0
   -1.6491   -0.0646   -0.4369 H   0  0  0  0  0  0
   -1.3598    0.4058    1.2560 H   0  0  0  0  0  0
   -5.3641    2.5907    0.0363 H   0  0  0  0  0  0
   -5.6100    2.1347   -1.6666 H   0  0  0  0  0  0
   -5.6903    0.9738    1.8152 H   0  0  0  0  0  0
   -6.8436   -1.0779    2.5357 H   0  0  0  0  0  0
   -7.4346   -2.1725   -1.5531 H   0  0  0  0  0  0
   -6.2850   -0.1158   -2.2653 H   0  0  0  0  0  0
   -8.7491   -4.5051    0.0120 H   0  0  0  0  0  0
   -8.8959   -2.9535   -0.8478 H   0  0  0  0  0  0
   -7.3428   -3.8230   -0.8397 H   0  0  0  0  0  0
    1.0330    1.8838    1.6519 H   0  0  0  0  0  0
    0.5477    0.2208    1.2432 H   0  0  0  0  0  0
    6.4222    2.2320    0.7326 H   0  0  0  0  0  0
    8.1202    0.5513    0.1254 H   0  0  0  0  0  0
    5.0729   -2.3903   -0.4043 H   0  0  0  0  0  0
  1  2  1  0  0  0
  1 18  1  0  0  0
  1 33  1  0  0  0
  1 34  1  0  0  0
  2  3  1  0  0  0
  2  8  1  0  0  0
  2 35  1  0  0  0
  3  4  1  0  0  0
  3 36  1  0  0  0
  3 37  1  0  0  0
  4  5  1  0  0  0
  4 38  1  0  0  0
  4 39  1  0  0  0
  5  6  1  0  0  0
  5  7  1  0  0  0
  5  9  1  0  0  0
  7  8  1  0  0  0
  7 40  1  0  0  0
  7 41  1  0  0  0
  8 42  1  0  0  0
  8 43  1  0  0  0
  9 10  1  0  0  0
  9 44  1  0  0  0
  9 45  1  0  0  0
 10 11  2  0  0  0
 10 15  1  0  0  0
 11 12  1  0  0  0
 11 46  1  0  0  0
 12 13  2  0  0  0
 12 47  1  0  0  0
 13 14  1  0  0  0
 13 16  1  0  0  0
 14 15  2  0  0  0
 14 48  1  0  0  0
 15 49  1  0  0  0
 16 17  1  0  0  0
 17 50  1  0  0  0
 17 51  1  0  0  0
 17 52  1  0  0  0
 18 19  1  0  0  0
 18 53  1  0  0  0
 18 54  1  0  0  0
 19 20  1  0  0  0
 19 28  1  0  0  0
 20 21  2  0  0  0
 20 22  1  0  0  0
 22 23  2  0  0  0
 22 27  1  0  0  0
 23 24  1  0  0  0
 23 55  1  0  0  0
 24 25  2  0  0  0
 24 56  1  0  0  0
 25 26  1  0  0  0
 25 30  1  0  0  0
 26 27  2  0  0  0
 26 57  1  0  0  0
 27 28  1  0  0  0
 28 29  2  0  0  0
 30 31  2  0  0  0
 30 32  1  0  0  0
M  CHG  3   5   1  30   1  32  -1
M  END
>  <Activity>
6.35655

>  <set>
1

>  <Min_dist>
999.9

>  <Avg_dist>
999.9

$$$$
1-15
  Cerius2 12110214483D 1   1.00000                          
 
 53 56  0  0  0  0  0  0  0  0999 V2000
    0.5857    1.6558   -0.3330 C   0  0  0  0  0  0
   -0.8809    2.0221   -0.0970 C   0  0  0  0  0  0
   -1.4681    2.6320   -1.3731 C   0  0  0  0  0  0
   -2.9547    2.9225   -1.1557 C   0  0  0  0  0  0
   -3.6596    1.6747   -0.8388 N   0  3  0  0  0  0
   -3.5114    1.0079   -1.5815 H   0  0  0  0  0  0
   -3.1506    1.1215    0.4219 C   0  0  0  0  0  0
   -1.6716    0.7617    0.2653 C   0  0  0  0  0  0
   -5.0971    1.9462   -0.7061 C   0  0  0  0  0  0
   -5.8222    0.6658   -0.3807 C   0  0  0  0  0  0
   -6.0065    0.2919    0.9374 C   0  0  0  0  0  0
   -6.6714   -0.8823    1.2364 C   0  0  0  0  0  0
   -7.1527   -1.6836    0.2164 C   0  0  0  0  0  0
   -6.9680   -1.3088   -1.1026 C   0  0  0  0  0  0
   -6.3078   -0.1316   -1.4003 C   0  0  0  0  0  0
   -7.9874   -3.1588    0.5912 Cl  0  0  0  0  0  0
    1.1709    1.0466    0.9426 C   0  0  0  0  0  0
    2.5752    0.6959    0.7166 N   0  0  0  0  0  0
    3.6120    1.5232    0.9410 C   0  0  0  0  0  0
    3.5333    2.6618    1.3561 O   0  0  0  0  0  0
    4.8629    0.8146    0.5976 C   0  0  0  0  0  0
    6.2058    1.1537    0.6250 C   0  0  0  0  0  0
    7.1569    0.2274    0.2250 C   0  0  0  0  0  0
    6.7742   -1.0304   -0.2005 C   0  0  0  0  0  0
    5.4339   -1.3838   -0.2332 C   0  0  0  0  0  0
    4.4725   -0.4687    0.1635 C   0  0  0  0  0  0
    2.9980   -0.4979    0.2630 C   0  0  0  0  0  0
    2.2871   -1.4414   -0.0188 O   0  0  0  0  0  0
    7.8023   -2.0071   -0.6246 N   0  3  0  0  0  0
    8.9810   -1.7010   -0.5979 O   0  0  0  0  0  0
    7.4698   -3.1169   -1.0004 O   0  5  0  0  0  0
    0.6533    0.9321   -1.1454 H   0  0  0  0  0  0
    1.1461    2.5525   -0.5977 H   0  0  0  0  0  0
   -0.9499    2.7437    0.7170 H   0  0  0  0  0  0
   -0.9462    3.5601   -1.6065 H   0  0  0  0  0  0
   -1.3513    1.9304   -2.1990 H   0  0  0  0  0  0
   -3.0703    3.6244   -0.3298 H   0  0  0  0  0  0
   -3.3759    3.3571   -2.0623 H   0  0  0  0  0  0
   -3.2621    1.8618    1.2142 H   0  0  0  0  0  0
   -3.7165    0.2264    0.6801 H   0  0  0  0  0  0
   -1.5591    0.0212   -0.5266 H   0  0  0  0  0  0
   -1.2952    0.3528    1.2030 H   0  0  0  0  0  0
   -5.2581    2.6684    0.0943 H   0  0  0  0  0  0
   -5.4784    2.3515   -1.6433 H   0  0  0  0  0  0
   -5.6305    0.9172    1.7336 H   0  0  0  0  0  0
   -6.8150   -1.1745    2.2662 H   0  0  0  0  0  0
   -7.3434   -1.9339   -1.8993 H   0  0  0  0  0  0
   -6.1636    0.1611   -2.4298 H   0  0  0  0  0  0
    1.1034    1.7703    1.7550 H   0  0  0  0  0  0
    0.6105    0.1500    1.2073 H   0  0  0  0  0  0
    6.5106    2.1354    0.9563 H   0  0  0  0  0  0
    8.2040    0.4910    0.2457 H   0  0  0  0  0  0
    5.1405   -2.3681   -0.5670 H   0  0  0  0  0  0
  1  2  1  0  0  0
  1 17  1  0  0  0
  1 32  1  0  0  0
  1 33  1  0  0  0
  2  3  1  0  0  0
  2  8  1  0  0  0
  2 34  1  0  0  0
  3  4  1  0  0  0
  3 35  1  0  0  0
  3 36  1  0  0  0
  4  5  1  0  0  0
  4 37  1  0  0  0
  4 38  1  0  0  0
  5  6  1  0  0  0
  5  7  1  0  0  0
  5  9  1  0  0  0
  7  8  1  0  0  0
  7 39  1  0  0  0
  7 40  1  0  0  0
  8 41  1  0  0  0
  8 42  1  0  0  0
  9 10  1  0  0  0
  9 43  1  0  0  0
  9 44  1  0  0  0
 10 11  2  0  0  0
 10 15  1  0  0  0
 11 12  1  0  0  0
 11 45  1  0  0  0
 12 13  2  0  0  0
 12 46  1  0  0  0
 13 14  1  0  0  0
 13 16  1  0  0  0
 14 15  2  0  0  0
 14 47  1  0  0  0
 15 48  1  0  0  0
 17 18  1  0  0  0
 17 49  1  0  0  0
 17 50  1  0  0  0
 18 19  1  0  0  0
 18 27  1  0  0  0
 19 20  2  0  0  0
 19 21  1  0  0  0
 21 22  2  0  0  0
 21 26  1  0  0  0
 22 23  1  0  0  0
 22 51  1  0  0  0
 23 24  2  0  0  0
 23 52  1  0  0  0
 24 25  1  0  0  0
 24 29  1  0  0  0
 25 26  2  0  0  0
 25 53  1  0  0  0
 26 27  1  0  0  0
 27 28  2  0  0  0
 29 30  2  0  0  0
 29 31  1  0  0  0
M  CHG  3   5   1  29   1  31  -1
M  END
>  <Activity>
6.61979

>  <set>
1

>  <Min_dist>
999.9

>  <Avg_dist>
999.9

$$$$
1-16
  Cerius2 12110214483D 1   1.00000                          
 
 43 45  0  0  0  0  0  0  0  0999 V2000
   -2.1096    0.4577   -0.4313 C   0  0  0  0  0  0
   -3.6129    0.4783   -0.1476 C   0  0  0  0  0  0
   -4.3843    0.4019   -1.4683 C   0  0  0  0  0  0
   -5.8847    0.3427   -1.1736 C   0  0  0  0  0  0
   -6.1813   -0.8443   -0.3627 N   0  3  0  0  0  0
   -5.8602   -1.6696   -0.8463 H   0  0  0  0  0  0
   -5.5018   -0.7438    0.9345 C   0  0  0  0  0  0
   -3.9866   -0.7264    0.7209 C   0  0  0  0  0  0
   -7.6312   -0.9382   -0.1466 C   0  0  0  0  0  0
   -1.3403    0.5341    0.8891 C   0  0  0  0  0  0
    0.0991    0.5144    0.6174 N   0  0  0  0  0  0
    0.8498    1.6115    0.4111 C   0  0  0  0  0  0
    0.4478    2.7575    0.4201 O   0  0  0  0  0  0
    2.2459    1.1889    0.1718 C   0  0  0  0  0  0
    3.4286    1.8604   -0.0909 C   0  0  0  0  0  0
    4.6014    1.1428   -0.2703 C   0  0  0  0  0  0
    4.5979   -0.2367   -0.1888 C   0  0  0  0  0  0
    3.4216   -0.9223    0.0735 C   0  0  0  0  0  0
    2.2423   -0.2185    0.2549 C   0  0  0  0  0  0
    0.8452   -0.6028    0.5472 C   0  0  0  0  0  0
    0.4387   -1.7372    0.6976 O   0  0  0  0  0  0
    5.8585   -0.9876   -0.3834 N   0  3  0  0  0  0
    6.8941   -0.3895   -0.6144 O   0  0  0  0  0  0
    5.8602   -2.2035   -0.3125 O   0  5  0  0  0  0
   -1.8503   -0.4652   -0.9500 H   0  0  0  0  0  0
   -1.8459    1.3116   -1.0553 H   0  0  0  0  0  0
   -3.8729    1.3996    0.3736 H   0  0  0  0  0  0
   -4.1660    1.2849   -2.0690 H   0  0  0  0  0  0
   -4.0849   -0.4932   -2.0135 H   0  0  0  0  0  0
   -6.1831    1.2383   -0.6286 H   0  0  0  0  0  0
   -6.4370    0.2884   -2.1118 H   0  0  0  0  0  0
   -5.8083    0.1749    1.4345 H   0  0  0  0  0  0
   -5.7713   -1.6002    1.5527 H   0  0  0  0  0  0
   -3.6789   -1.6449    0.2211 H   0  0  0  0  0  0
   -3.4840   -0.6499    1.6851 H   0  0  0  0  0  0
   -7.8526   -1.8194    0.4555 H   0  0  0  0  0  0
   -7.9796   -0.0459    0.3735 H   0  0  0  0  0  0
   -8.1375   -1.0189   -1.1085 H   0  0  0  0  0  0
   -1.5996    1.4570    1.4078 H   0  0  0  0  0  0
   -1.6040   -0.3198    1.5131 H   0  0  0  0  0  0
    3.4372    2.9384   -0.1560 H   0  0  0  0  0  0
    5.5239    1.6655   -0.4755 H   0  0  0  0  0  0
    3.4247   -2.0005    0.1357 H   0  0  0  0  0  0
  1  2  1  0  0  0
  1 10  1  0  0  0
  1 25  1  0  0  0
  1 26  1  0  0  0
  2  3  1  0  0  0
  2  8  1  0  0  0
  2 27  1  0  0  0
  3  4  1  0  0  0
  3 28  1  0  0  0
  3 29  1  0  0  0
  4  5  1  0  0  0
  4 30  1  0  0  0
  4 31  1  0  0  0
  5  6  1  0  0  0
  5  7  1  0  0  0
  5  9  1  0  0  0
  7  8  1  0  0  0
  7 32  1  0  0  0
  7 33  1  0  0  0
  8 34  1  0  0  0
  8 35  1  0  0  0
  9 36  1  0  0  0
  9 37  1  0  0  0
  9 38  1  0  0  0
 10 11  1  0  0  0
 10 39  1  0  0  0
 10 40  1  0  0  0
 11 12  1  0  0  0
 11 20  1  0  0  0
 12 13  2  0  0  0
 12 14  1  0  0  0
 14 15  2  0  0  0
 14 19  1  0  0  0
 15 16  1  0  0  0
 15 41  1  0  0  0
 16 17  2  0  0  0
 16 42  1  0  0  0
 17 18  1  0  0  0
 17 22  1  0  0  0
 18 19  2  0  0  0
 18 43  1  0  0  0
 19 20  1  0  0  0
 20 21  2  0  0  0
 22 23  2  0  0  0
 22 24  1  0  0  0
M  CHG  3   5   1  22   1  24  -1
M  END
>  <Activity>
5.16749

>  <set>
1

>  <Min_dist>
999.9

>  <Avg_dist>
999.9

$$$$
1-18
  Cerius2 12110214483D 1   1.00000                          
 
 58 61  0  0  0  0  0  0  0  0999 V2000
   -0.6241    1.3266   -0.4370 C   0  0  0  0  0  0
   -2.1128    1.5510   -0.1641 C   0  0  0  0  0  0
   -2.8074    2.0013   -1.4525 C   0  0  0  0  0  0
   -4.3082    2.1470   -1.1923 C   0  0  0  0  0  0
   -4.8613    0.8574   -0.7616 N   0  3  0  0  0  0
   -4.6674    0.1584   -1.4629 H   0  0  0  0  0  0
   -4.2512    0.4539    0.5110 C   0  0  0  0  0  0
   -2.7482    0.2431    0.3163 C   0  0  0  0  0  0
   -6.3143    0.9834   -0.5865 C   0  0  0  0  0  0
   -6.8836   -0.3400   -0.1443 C   0  0  0  0  0  0
   -6.9798   -0.6356    1.2027 C   0  0  0  0  0  0
   -7.5020   -1.8496    1.6083 C   0  0  0  0  0  0
   -7.9283   -2.7678    0.6671 C   0  0  0  0  0  0
   -7.8329   -2.4718   -0.6799 C   0  0  0  0  0  0
   -7.3148   -1.2561   -1.0854 C   0  0  0  0  0  0
    0.0683    0.8768    0.8511 C   0  0  0  0  0  0
    1.4937    0.6619    0.5898 N   0  0  0  0  0  0
    2.4409    1.6089    0.7131 C   0  0  0  0  0  0
    2.2521    2.7598    1.0531 O   0  0  0  0  0  0
    3.7477    1.0173    0.3667 C   0  0  0  0  0  0
    5.0463    1.5032    0.3150 C   0  0  0  0  0  0
    6.0803    0.6643   -0.0596 C   0  0  0  0  0  0
    5.8267   -0.6624   -0.3846 C   0  0  0  0  0  0
    4.5254   -1.1622   -0.3364 C   0  0  0  0  0  0
    3.4863   -0.3299    0.0372 C   0  0  0  0  0  0
    2.0278   -0.5098    0.2008 C   0  0  0  0  0  0
    1.4148   -1.5413    0.0130 O   0  0  0  0  0  0
    6.8778   -1.4979   -0.7612 N   0  0  0  0  0  0
    8.0979   -1.3352   -0.2124 C   0  0  0  0  0  0
    8.2589   -0.5297    0.6799 O   0  0  0  0  0  0
    9.2621   -2.1540   -0.7074 C   0  0  0  0  0  0
   -0.5065    0.5575   -1.2004 H   0  0  0  0  0  0
   -0.1745    2.2563   -0.7856 H   0  0  0  0  0  0
   -2.2315    2.3180    0.6012 H   0  0  0  0  0  0
   -2.3983    2.9603   -1.7705 H   0  0  0  0  0  0
   -2.6437    1.2583   -2.2331 H   0  0  0  0  0  0
   -4.4707    2.8904   -0.4118 H   0  0  0  0  0  0
   -4.8058    2.4678   -2.1075 H   0  0  0  0  0  0
   -4.4149    1.2334    1.2552 H   0  0  0  0  0  0
   -4.7067   -0.4753    0.8533 H   0  0  0  0  0  0
   -2.5833   -0.5364   -0.4275 H   0  0  0  0  0  0
   -2.2968   -0.0547    1.2627 H   0  0  0  0  0  0
   -6.5250    1.7402    0.1691 H   0  0  0  0  0  0
   -6.7701    1.2772   -1.5320 H   0  0  0  0  0  0
   -6.6468    0.0818    1.9381 H   0  0  0  0  0  0
   -7.5765   -2.0808    2.6607 H   0  0  0  0  0  0
   -8.3356   -3.7165    0.9840 H   0  0  0  0  0  0
   -8.1657   -3.1894   -1.4153 H   0  0  0  0  0  0
   -7.2403   -1.0249   -2.1377 H   0  0  0  0  0  0
   -0.0493    1.6459    1.6145 H   0  0  0  0  0  0
   -0.3814   -0.0529    1.1997 H   0  0  0  0  0  0
    5.2492    2.5337    0.5663 H   0  0  0  0  0  0
    7.0909    1.0431   -0.1000 H   0  0  0  0  0  0
    4.3305   -2.1940   -0.5891 H   0  0  0  0  0  0
    6.7307   -2.1962   -1.4182 H   0  0  0  0  0  0
   10.1587   -1.8858   -0.1486 H   0  0  0  0  0  0
    9.0482   -3.2132   -0.5644 H   0  0  0  0  0  0
    9.4215   -1.9554   -1.7672 H   0  0  0  0  0  0
  1  2  1  0  0  0
  1 16  1  0  0  0
  1 32  1  0  0  0
  1 33  1  0  0  0
  2  3  1  0  0  0
  2  8  1  0  0  0
  2 34  1  0  0  0
  3  4  1  0  0  0
  3 35  1  0  0  0
  3 36  1  0  0  0
  4  5  1  0  0  0
  4 37  1  0  0  0
  4 38  1  0  0  0
  5  6  1  0  0  0
  5  7  1  0  0  0
  5  9  1  0  0  0
  7  8  1  0  0  0
  7 39  1  0  0  0
  7 40  1  0  0  0
  8 41  1  0  0  0
  8 42  1  0  0  0
  9 10  1  0  0  0
  9 43  1  0  0  0
  9 44  1  0  0  0
 10 11  2  0  0  0
 10 15  1  0  0  0
 11 12  1  0  0  0
 11 45  1  0  0  0
 12 13  2  0  0  0
 12 46  1  0  0  0
 13 14  1  0  0  0
 13 47  1  0  0  0
 14 15  2  0  0  0
 14 48  1  0  0  0
 15 49  1  0  0  0
 16 17  1  0  0  0
 16 50  1  0  0  0
 16 51  1  0  0  0
 17 18  1  0  0  0
 17 26  1  0  0  0
 18 19  2  0  0  0
 18 20  1  0  0  0
 20 21  2  0  0  0
 20 25  1  0  0  0
 21 22  1  0  0  0
 21 52  1  0  0  0
 22 23  2  0  0  0
 22 53  1  0  0  0
 23 24  1  0  0  0
 23 28  1  0  0  0
 24 25  2  0  0  0
 24 54  1  0  0  0
 25 26  1  0  0  0
 26 27  2  0  0  0
 28 29  1  0  0  0
 28 55  1  0  0  0
 29 30  2  0  0  0
 29 31  1  0  0  0
 31 56  1  0  0  0
 31 57  1  0  0  0
 31 58  1  0  0  0
M  CHG  1   5   1
M  END
>  <Activity>
8.55284

>  <set>
1

>  <Min_dist>
999.9

>  <Avg_dist>
999.9

$$$$
1-19
  Cerius2 12110214483D 1   1.00000                          
 
 65 69  0  0  0  0  0  0  0  0999 V2000
   -2.1832    1.4259   -0.6213 C   0  0  0  0  0  0
   -3.6970    1.5303   -0.4252 C   0  0  0  0  0  0
   -4.3820    1.6648   -1.7882 C   0  0  0  0  0  0
   -5.8991    1.6887   -1.5904 C   0  0  0  0  0  0
   -6.3317    0.4436   -0.9445 N   0  3  0  0  0  0
   -6.0377   -0.3436   -1.5031 H   0  0  0  0  0  0
   -5.7350    0.3429    0.3927 C   0  0  0  0  0  0
   -4.2115    0.2672    0.2712 C   0  0  0  0  0  0
   -7.7959    0.4384   -0.8259 C   0  0  0  0  0  0
   -8.2415   -0.8395   -0.1628 C   0  0  0  0  0  0
   -8.3609   -0.8991    1.2131 C   0  0  0  0  0  0
   -8.7696   -2.0712    1.8212 C   0  0  0  0  0  0
   -9.0594   -3.1836    1.0535 C   0  0  0  0  0  0
   -8.9408   -3.1238   -0.3225 C   0  0  0  0  0  0
   -8.5363   -1.9503   -0.9309 C   0  0  0  0  0  0
   -1.5005    1.2916    0.7413 C   0  0  0  0  0  0
   -0.0510    1.1916    0.5535 N   0  0  0  0  0  0
    0.7865    2.2436    0.5227 C   0  0  0  0  0  0
    0.4651    3.4088    0.6445 O   0  0  0  0  0  0
    2.1606    1.7472    0.3165 C   0  0  0  0  0  0
    3.4025    2.3559    0.2046 C   0  0  0  0  0  0
    4.5327    1.5828    0.0099 C   0  0  0  0  0  0
    4.4323    0.1995   -0.0746 C   0  0  0  0  0  0
    3.1892   -0.4238    0.0364 C   0  0  0  0  0  0
    2.0548    0.3423    0.2312 C   0  0  0  0  0  0
    0.6177    0.0352    0.3948 C   0  0  0  0  0  0
    0.1239   -1.0743    0.3858 O   0  0  0  0  0  0
    5.5784   -0.5684   -0.2715 N   0  0  0  0  0  0
    6.7516   -0.1778    0.2646 C   0  0  0  0  0  0
    6.7915    0.7880    1.0016 O   0  0  0  0  0  0
    7.9898   -0.9238   -0.0437 C   0  0  0  0  0  0
    9.2067   -0.5219    0.5099 C   0  0  0  0  0  0
   10.3585   -1.2229    0.2184 C   0  0  0  0  0  0
   10.3095   -2.3221   -0.6205 C   0  0  0  0  0  0
    9.1068   -2.7255   -1.1729 C   0  0  0  0  0  0
    7.9466   -2.0369   -0.8851 C   0  0  0  0  0  0
   -1.9552    0.5507   -1.2298 H   0  0  0  0  0  0
   -1.8192    2.3223   -1.1234 H   0  0  0  0  0  0
   -3.9260    2.4036    0.1856 H   0  0  0  0  0  0
   -4.0626    2.5908   -2.2663 H   0  0  0  0  0  0
   -4.1102    0.8171   -2.4173 H   0  0  0  0  0  0
   -6.1698    2.5368   -0.9615 H   0  0  0  0  0  0
   -6.3899    1.7846   -2.5590 H   0  0  0  0  0  0
   -6.0091    1.2197    0.9794 H   0  0  0  0  0  0
   -6.1046   -0.5548    0.8883 H   0  0  0  0  0  0
   -3.9363   -0.6095   -0.3151 H   0  0  0  0  0  0
   -3.7703    0.1942    1.2653 H   0  0  0  0  0  0
   -8.1148    1.2899   -0.2248 H   0  0  0  0  0  0
   -8.2411    0.5071   -1.8184 H   0  0  0  0  0  0
   -8.1345   -0.0299    1.8129 H   0  0  0  0  0  0
   -8.8622   -2.1180    2.8962 H   0  0  0  0  0  0
   -9.3780   -4.0996    1.5287 H   0  0  0  0  0  0
   -9.1669   -3.9930   -0.9223 H   0  0  0  0  0  0
   -8.4437   -1.9036   -2.0060 H   0  0  0  0  0  0
   -1.7285    2.1668    1.3497 H   0  0  0  0  0  0
   -1.8645    0.3952    1.2433 H   0  0  0  0  0  0
    3.4864    3.4307    0.2692 H   0  0  0  0  0  0
    5.4990    2.0572   -0.0775 H   0  0  0  0  0  0
    3.1133   -1.4992   -0.0291 H   0  0  0  0  0  0
    5.5317   -1.3841   -0.7943 H   0  0  0  0  0  0
    9.2463    0.3361    1.1646 H   0  0  0  0  0  0
   11.3007   -0.9128    0.6457 H   0  0  0  0  0  0
   11.2142   -2.8674   -0.8455 H   0  0  0  0  0  0
    9.0755   -3.5841   -1.8273 H   0  0  0  0  0  0
    7.0084   -2.3528   -1.3169 H   0  0  0  0  0  0
  1  2  1  0  0  0
  1 16  1  0  0  0
  1 37  1  0  0  0
  1 38  1  0  0  0
  2  3  1  0  0  0
  2  8  1  0  0  0
  2 39  1  0  0  0
  3  4  1  0  0  0
  3 40  1  0  0  0
  3 41  1  0  0  0
  4  5  1  0  0  0
  4 42  1  0  0  0
  4 43  1  0  0  0
  5  6  1  0  0  0
  5  7  1  0  0  0
  5  9  1  0  0  0
  7  8  1  0  0  0
  7 44  1  0  0  0
  7 45  1  0  0  0
  8 46  1  0  0  0
  8 47  1  0  0  0
  9 10  1  0  0  0
  9 48  1  0  0  0
  9 49  1  0  0  0
 10 11  2  0  0  0
 10 15  1  0  0  0
 11 12  1  0  0  0
 11 50  1  0  0  0
 12 13  2  0  0  0
 12 51  1  0  0  0
 13 14  1  0  0  0
 13 52  1  0  0  0
 14 15  2  0  0  0
 14 53  1  0  0  0
 15 54  1  0  0  0
 16 17  1  0  0  0
 16 55  1  0  0  0
 16 56  1  0  0  0
 17 18  1  0  0  0
 17 26  1  0  0  0
 18 19  2  0  0  0
 18 20  1  0  0  0
 20 21  2  0  0  0
 20 25  1  0  0  0
 21 22  1  0  0  0
 21 57  1  0  0  0
 22 23  2  0  0  0
 22 58  1  0  0  0
 23 24  1  0  0  0
 23 28  1  0  0  0
 24 25  2  0  0  0
 24 59  1  0  0  0
 25 26  1  0  0  0
 26 27  2  0  0  0
 28 29  1  0  0  0
 28 60  1  0  0  0
 29 30  2  0  0  0
 29 31  1  0  0  0
 31 32  2  0  0  0
 31 36  1  0  0  0
 32 33  1  0  0  0
 32 61  1  0  0  0
 33 34  2  0  0  0
 33 62  1  0  0  0
 34 35  1  0  0  0
 34 63  1  0  0  0
 35 36  2  0  0  0
 35 64  1  0  0  0
 36 65  1  0  0  0
M  CHG  1   5   1
M  END
>  <Activity>
8.92082

>  <set>
1

>  <Min_dist>
999.9

>  <Avg_dist>
999.9

$$$$
1-2
  Cerius2 12110214483D 1   1.00000                          
 
 54 56  0  0  0  0  0  0  0  0999 V2000
    0.8260    0.8383   -0.3407 C   0  0  0  0  0  0
   -0.5844    1.1644    0.1545 C   0  0  0  0  0  0
   -1.2453    2.1612   -0.8020 C   0  0  0  0  0  0
   -2.6824    2.4217   -0.3454 C   0  0  0  0  0  0
   -3.4370    1.1628   -0.3502 N   0  3  0  0  0  0
   -3.4036    0.7553   -1.2726 H   0  0  0  0  0  0
   -2.8515    0.2275    0.6177 C   0  0  0  0  0  0
   -1.4209   -0.1176    0.1982 C   0  0  0  0  0  0
   -4.8345    1.4299    0.0152 C   0  0  0  0  0  0
   -5.6106    0.1381    0.0107 C   0  0  0  0  0  0
   -5.6965   -0.6206    1.1631 C   0  0  0  0  0  0
   -6.4084   -1.8055    1.1590 C   0  0  0  0  0  0
   -7.0347   -2.2316    0.0027 C   0  0  0  0  0  0
   -6.9496   -1.4724   -1.1494 C   0  0  0  0  0  0
   -6.2413   -0.2853   -1.1442 C   0  0  0  0  0  0
    1.4849   -0.1575    0.6159 C   0  0  0  0  0  0
    2.8354   -0.4697    0.1417 N   0  0  0  0  0  0
    3.8824    0.2728    0.5528 C   0  0  0  0  0  0
    3.6952    1.2672    1.2263 O   0  0  0  0  0  0
    5.2587   -0.1223    0.1845 C   0  0  0  0  0  0
    6.2401    0.8517   -0.0064 C   0  0  0  0  0  0
    7.5226    0.4763   -0.3495 C   0  0  0  0  0  0
    7.8367   -0.8622   -0.5048 C   0  0  0  0  0  0
    6.8685   -1.8326   -0.3171 C   0  0  0  0  0  0
    5.5837   -1.4711    0.0318 C   0  0  0  0  0  0
    3.0479   -1.5890   -0.7793 C   0  0  0  0  0  0
    0.7691    0.4012   -1.3376 H   0  0  0  0  0  0
    1.4184    1.7526   -0.3781 H   0  0  0  0  0  0
   -0.5289    1.5990    1.1526 H   0  0  0  0  0  0
   -0.6862    3.0968   -0.7961 H   0  0  0  0  0  0
   -1.2531    1.7475   -1.8104 H   0  0  0  0  0  0
   -2.6734    2.8356    0.6629 H   0  0  0  0  0  0
   -3.1558    3.1311   -1.0242 H   0  0  0  0  0  0
   -2.8389    0.6881    1.6055 H   0  0  0  0  0  0
   -3.4498   -0.6831    0.6501 H   0  0  0  0  0  0
   -1.4324   -0.5785   -0.7894 H   0  0  0  0  0  0
   -0.9874   -0.8107    0.9191 H   0  0  0  0  0  0
   -4.8716    1.8726    1.0106 H   0  0  0  0  0  0
   -5.2731    2.1197   -0.7058 H   0  0  0  0  0  0
   -5.2072   -0.2877    2.0665 H   0  0  0  0  0  0
   -6.4749   -2.3986    2.0591 H   0  0  0  0  0  0
   -7.5903   -3.1577   -0.0007 H   0  0  0  0  0  0
   -7.4386   -1.8055   -2.0529 H   0  0  0  0  0  0
   -6.1748    0.3078   -2.0443 H   0  0  0  0  0  0
    1.5419    0.2796    1.6128 H   0  0  0  0  0  0
    0.8926   -1.0717    0.6533 H   0  0  0  0  0  0
    5.9960    1.8968    0.1139 H   0  0  0  0  0  0
    8.2829    1.2289   -0.4975 H   0  0  0  0  0  0
    8.8420   -1.1507   -0.7742 H   0  0  0  0  0  0
    7.1202   -2.8757   -0.4399 H   0  0  0  0  0  0
    4.8290   -2.2295    0.1784 H   0  0  0  0  0  0
    3.8983   -1.3715   -1.4255 H   0  0  0  0  0  0
    3.2477   -2.4961   -0.2088 H   0  0  0  0  0  0
    2.1557   -1.7324   -1.3888 H   0  0  0  0  0  0
  1  2  1  0  0  0
  1 16  1  0  0  0
  1 27  1  0  0  0
  1 28  1  0  0  0
  2  3  1  0  0  0
  2  8  1  0  0  0
  2 29  1  0  0  0
  3  4  1  0  0  0
  3 30  1  0  0  0
  3 31  1  0  0  0
  4  5  1  0  0  0
  4 32  1  0  0  0
  4 33  1  0  0  0
  5  6  1  0  0  0
  5  7  1  0  0  0
  5  9  1  0  0  0
  7  8  1  0  0  0
  7 34  1  0  0  0
  7 35  1  0  0  0
  8 36  1  0  0  0
  8 37  1  0  0  0
  9 10  1  0  0  0
  9 38  1  0  0  0
  9 39  1  0  0  0
 10 11  2  0  0  0
 10 15  1  0  0  0
 11 12  1  0  0  0
 11 40  1  0  0  0
 12 13  2  0  0  0
 12 41  1  0  0  0
 13 14  1  0  0  0
 13 42  1  0  0  0
 14 15  2  0  0  0
 14 43  1  0  0  0
 15 44  1  0  0  0
 16 17  1  0  0  0
 16 45  1  0  0  0
 16 46  1  0  0  0
 17 18  1  0  0  0
 17 26  1  0  0  0
 18 19  2  0  0  0
 18 20  1  0  0  0
 20 21  2  0  0  0
 20 25  1  0  0  0
 21 22  1  0  0  0
 21 47  1  0  0  0
 22 23  2  0  0  0
 22 48  1  0  0  0
 23 24  1  0  0  0
 23 49  1  0  0  0
 24 25  2  0  0  0
 24 50  1  0  0  0
 25 51  1  0  0  0
 26 52  1  0  0  0
 26 53  1  0  0  0
 26 54  1  0  0  0
M  CHG  1   5   1
M  END
>  <Activity>
6.76955

>  <set>
1

>  <Min_dist>
999.9

>  <Avg_dist>
999.9

$$$$
1-20
  Cerius2 12110214483D 1   1.00000                          
 
 55 58  0  0  0  0  0  0  0  0999 V2000
    0.0760    1.2087   -0.3886 C   0  0  0  0  0  0
   -1.4009    1.5031   -0.1184 C   0  0  0  0  0  0
   -2.0634    2.0172   -1.3998 C   0  0  0  0  0  0
   -3.5564    2.2340   -1.1440 C   0  0  0  0  0  0
   -4.1775    0.9653   -0.7454 N   0  3  0  0  0  0
   -4.0154    0.2730   -1.4613 H   0  0  0  0  0  0
   -3.5970    0.5027    0.5209 C   0  0  0  0  0  0
   -2.1055    0.2192    0.3292 C   0  0  0  0  0  0
   -5.6233    1.1619   -0.5749 C   0  0  0  0  0  0
   -6.2625   -0.1400   -0.1656 C   0  0  0  0  0  0
   -6.3822   -0.4602    1.1738 C   0  0  0  0  0  0
   -6.9684   -1.6545    1.5493 C   0  0  0  0  0  0
   -7.4354   -2.5283    0.5854 C   0  0  0  0  0  0
   -7.3165   -2.2077   -0.7540 C   0  0  0  0  0  0
   -6.7341   -1.0115   -1.1294 C   0  0  0  0  0  0
    0.7363    0.6952    0.8925 C   0  0  0  0  0  0
    2.1505    0.4133    0.6338 N   0  0  0  0  0  0
    3.1443    1.3072    0.7832 C   0  0  0  0  0  0
    3.0128    2.4582    1.1489 O   0  0  0  0  0  0
    4.4210    0.6571    0.4296 C   0  0  0  0  0  0
    5.7431    1.0760    0.3952 C   0  0  0  0  0  0
    6.7345    0.1928    0.0062 C   0  0  0  0  0  0
    6.4148   -1.1098   -0.3502 C   0  0  0  0  0  0
    5.0906   -1.5427   -0.3198 C   0  0  0  0  0  0
    4.0929   -0.6669    0.0682 C   0  0  0  0  0  0
    2.6263   -0.7754    0.2210 C   0  0  0  0  0  0
    1.9626   -1.7700    0.0082 O   0  0  0  0  0  0
    7.3966   -1.9661   -0.7308 O   0  0  0  0  0  0
    8.6263   -1.2415   -0.6615 C   0  0  0  0  0  0
    0.1588    0.4518   -1.1685 H   0  0  0  0  0  0
    0.5749    2.1216   -0.7138 H   0  0  0  0  0  0
   -1.4849    2.2580    0.6635 H   0  0  0  0  0  0
   -1.6037    2.9607   -1.6939 H   0  0  0  0  0  0
   -1.9332    1.2843   -2.1961 H   0  0  0  0  0  0
   -3.6854    2.9672   -0.3478 H   0  0  0  0  0  0
   -4.0311    2.6002   -2.0543 H   0  0  0  0  0  0
   -3.7251    1.2728    1.2816 H   0  0  0  0  0  0
   -4.1016   -0.4093    0.8398 H   0  0  0  0  0  0
   -1.9762   -0.5509   -0.4312 H   0  0  0  0  0  0
   -1.6760   -0.1224    1.2709 H   0  0  0  0  0  0
   -5.7996    1.9115    0.1965 H   0  0  0  0  0  0
   -6.0575    1.4997   -1.5159 H   0  0  0  0  0  0
   -6.0173    0.2225    1.9269 H   0  0  0  0  0  0
   -7.0613   -1.9049    2.5958 H   0  0  0  0  0  0
   -7.8928   -3.4617    0.8787 H   0  0  0  0  0  0
   -7.6810   -2.8906   -1.5072 H   0  0  0  0  0  0
   -6.6413   -0.7611   -2.1758 H   0  0  0  0  0  0
    0.6536    1.4521    1.6725 H   0  0  0  0  0  0
    0.2374   -0.2177    1.2177 H   0  0  0  0  0  0
    5.9976    2.0887    0.6708 H   0  0  0  0  0  0
    7.7637    0.5192   -0.0205 H   0  0  0  0  0  0
    4.8446   -2.5568   -0.5980 H   0  0  0  0  0  0
    9.4486   -1.8919   -0.9599 H   0  0  0  0  0  0
    8.5805   -0.3831   -1.3317 H   0  0  0  0  0  0
    8.7880   -0.8969    0.3599 H   0  0  0  0  0  0
  1  2  1  0  0  0
  1 16  1  0  0  0
  1 30  1  0  0  0
  1 31  1  0  0  0
  2  3  1  0  0  0
  2  8  1  0  0  0
  2 32  1  0  0  0
  3  4  1  0  0  0
  3 33  1  0  0  0
  3 34  1  0  0  0
  4  5  1  0  0  0
  4 35  1  0  0  0
  4 36  1  0  0  0
  5  6  1  0  0  0
  5  7  1  0  0  0
  5  9  1  0  0  0
  7  8  1  0  0  0
  7 37  1  0  0  0
  7 38  1  0  0  0
  8 39  1  0  0  0
  8 40  1  0  0  0
  9 10  1  0  0  0
  9 41  1  0  0  0
  9 42  1  0  0  0
 10 11  2  0  0  0
 10 15  1  0  0  0
 11 12  1  0  0  0
 11 43  1  0  0  0
 12 13  2  0  0  0
 12 44  1  0  0  0
 13 14  1  0  0  0
 13 45  1  0  0  0
 14 15  2  0  0  0
 14 46  1  0  0  0
 15 47  1  0  0  0
 16 17  1  0  0  0
 16 48  1  0  0  0
 16 49  1  0  0  0
 17 18  1  0  0  0
 17 26  1  0  0  0
 18 19  2  0  0  0
 18 20  1  0  0  0
 20 21  2  0  0  0
 20 25  1  0  0  0
 21 22  1  0  0  0
 21 50  1  0  0  0
 22 23  2  0  0  0
 22 51  1  0  0  0
 23 24  1  0  0  0
 23 28  1  0  0  0
 24 25  2  0  0  0
 24 52  1  0  0  0
 25 26  1  0  0  0
 26 27  2  0  0  0
 28 29  1  0  0  0
 29 53  1  0  0  0
 29 54  1  0  0  0
 29 55  1  0  0  0
M  CHG  1   5   1
M  END
>  <Activity>
8.09691

>  <set>
1

>  <Min_dist>
999.9

>  <Avg_dist>
999.9

$$$$
1-24
  Cerius2 12110214483D 1   1.00000                          
 
 53 56  0  0  0  0  0  0  0  0999 V2000
    0.5534    0.9633   -0.4304 C   0  0  0  0  0  0
   -0.8842    1.3594   -0.0882 C   0  0  0  0  0  0
   -1.5401    2.0116   -1.3087 C   0  0  0  0  0  0
   -3.0008    2.3328   -0.9853 C   0  0  0  0  0  0
   -3.7144    1.0955   -0.6472 N   0  3  0  0  0  0
   -3.6335    0.4421   -1.4118 H   0  0  0  0  0  0
   -3.1362    0.5023    0.5646 C   0  0  0  0  0  0
   -1.6807    0.1107    0.3008 C   0  0  0  0  0  0
   -5.1324    1.3985   -0.4119 C   0  0  0  0  0  0
   -5.8665    0.1290   -0.0646 C   0  0  0  0  0  0
   -5.9714   -0.2699    1.2548 C   0  0  0  0  0  0
   -6.6446   -1.4344    1.5734 C   0  0  0  0  0  0
   -7.2134   -2.1998    0.5726 C   0  0  0  0  0  0
   -7.1092   -1.8005   -0.7467 C   0  0  0  0  0  0
   -6.4397   -0.6337   -1.0649 C   0  0  0  0  0  0
    1.2072    0.3120    0.7899 C   0  0  0  0  0  0
    2.5838   -0.0673    0.4622 N   0  0  0  0  0  0
    3.6539    0.7298    0.6323 C   0  0  0  0  0  0
    3.6313    1.8609    1.0759 O   0  0  0  0  0  0
    4.8572    0.0040    0.1925 C   0  0  0  0  0  0
    6.2148    0.3133    0.1345 C   0  0  0  0  0  0
    7.1163   -0.6357   -0.3535 C   0  0  0  0  0  0
    6.6693   -1.8688   -0.7754 C   0  0  0  0  0  0
    5.3186   -2.1878   -0.7221 C   0  0  0  0  0  0
    4.4091   -1.2623   -0.2417 C   0  0  0  0  0  0
    2.9446   -1.2608   -0.0432 C   0  0  0  0  0  0
    2.1932   -2.1810   -0.2961 O   0  0  0  0  0  0
    6.6674    1.5542    0.5576 N   0  0  0  0  0  0
    0.5478    0.2565   -1.2602 H   0  0  0  0  0  0
    1.1174    1.8519   -0.7139 H   0  0  0  0  0  0
   -0.8800    2.0641    0.7434 H   0  0  0  0  0  0
   -1.0116    2.9318   -1.5578 H   0  0  0  0  0  0
   -1.4970    1.3259   -2.1549 H   0  0  0  0  0  0
   -3.0428    3.0187   -0.1392 H   0  0  0  0  0  0
   -3.4707    2.7974   -1.8522 H   0  0  0  0  0  0
   -3.1753    1.2273    1.3776 H   0  0  0  0  0  0
   -3.7061   -0.3844    0.8419 H   0  0  0  0  0  0
   -1.6406   -0.6145   -0.5120 H   0  0  0  0  0  0
   -1.2527   -0.3279    1.2022 H   0  0  0  0  0  0
   -5.2208    2.1064    0.4123 H   0  0  0  0  0  0
   -5.5653    1.8337   -1.3126 H   0  0  0  0  0  0
   -5.5271    0.3281    2.0367 H   0  0  0  0  0  0
   -6.7260   -1.7464    2.6041 H   0  0  0  0  0  0
   -7.7387   -3.1100    0.8214 H   0  0  0  0  0  0
   -7.5532   -2.3987   -1.5287 H   0  0  0  0  0  0
   -6.3583   -0.3217   -2.0956 H   0  0  0  0  0  0
    1.2128    1.0188    1.6196 H   0  0  0  0  0  0
    0.6432   -0.5766    1.0733 H   0  0  0  0  0  0
    8.1695   -0.4014   -0.4007 H   0  0  0  0  0  0
    7.3758   -2.5940   -1.1514 H   0  0  0  0  0  0
    4.9784   -3.1571   -1.0555 H   0  0  0  0  0  0
    7.6132    1.7657    0.5157 H   0  0  0  0  0  0
    6.0382    2.2106    0.8955 H   0  0  0  0  0  0
  1  2  1  0  0  0
  1 16  1  0  0  0
  1 29  1  0  0  0
  1 30  1  0  0  0
  2  3  1  0  0  0
  2  8  1  0  0  0
  2 31  1  0  0  0
  3  4  1  0  0  0
  3 32  1  0  0  0
  3 33  1  0  0  0
  4  5  1  0  0  0
  4 34  1  0  0  0
  4 35  1  0  0  0
  5  6  1  0  0  0
  5  7  1  0  0  0
  5  9  1  0  0  0
  7  8  1  0  0  0
  7 36  1  0  0  0
  7 37  1  0  0  0
  8 38  1  0  0  0
  8 39  1  0  0  0
  9 10  1  0  0  0
  9 40  1  0  0  0
  9 41  1  0  0  0
 10 11  2  0  0  0
 10 15  1  0  0  0
 11 12  1  0  0  0
 11 42  1  0  0  0
 12 13  2  0  0  0
 12 43  1  0  0  0
 13 14  1  0  0  0
 13 44  1  0  0  0
 14 15  2  0  0  0
 14 45  1  0  0  0
 15 46  1  0  0  0
 16 17  1  0  0  0
 16 47  1  0  0  0
 16 48  1  0  0  0
 17 18  1  0  0  0
 17 26  1  0  0  0
 18 19  2  0  0  0
 18 20  1  0  0  0
 20 21  2  0  0  0
 20 25  1  0  0  0
 21 22  1  0  0  0
 21 28  1  0  0  0
 22 23  2  0  0  0
 22 49  1  0  0  0
 23 24  1  0  0  0
 23 50  1  0  0  0
 24 25  2  0  0  0
 24 51  1  0  0  0
 25 26  1  0  0  0
 26 27  2  0  0  0
 28 52  1  0  0  0
 28 53  1  0  0  0
M  CHG  1   5   1
M  END
>  <Activity>
7.95861

>  <set>
1

>  <Min_dist>
999.9

>  <Avg_dist>
999.9

$$$$
1-29
  Cerius2 12110214483D 1   1.00000                          
 
 53 56  0  0  0  0  0  0  0  0999 V2000
    0.7226    0.8013   -0.4076 C   0  0  0  0  0  0
   -0.6968    1.2092   -0.0076 C   0  0  0  0  0  0
   -1.3412    2.0047   -1.1465 C   0  0  0  0  0  0
   -2.7864    2.3409   -0.7725 C   0  0  0  0  0  0
   -3.5399    1.1005   -0.5526 N   0  3  0  0  0  0
   -3.4896    0.5264   -1.3808 H   0  0  0  0  0  0
   -2.9711    0.3672    0.5846 C   0  0  0  0  0  0
   -1.5330   -0.0449    0.2628 C   0  0  0  0  0  0
   -4.9439    1.4261   -0.2687 C   0  0  0  0  0  0
   -5.7188    0.1535   -0.0428 C   0  0  0  0  0  0
   -5.8248   -0.3744    1.2304 C   0  0  0  0  0  0
   -6.5356   -1.5418    1.4377 C   0  0  0  0  0  0
   -7.1408   -2.1810    0.3718 C   0  0  0  0  0  0
   -7.0356   -1.6526   -0.9012 C   0  0  0  0  0  0
   -6.3284   -0.4829   -1.1078 C   0  0  0  0  0  0
    1.3649    0.0066    0.7311 C   0  0  0  0  0  0
    2.7240   -0.3839    0.3481 N   0  0  0  0  0  0
    3.7460    0.4445    0.6410 C   0  0  0  0  0  0
    3.5394    1.4989    1.2145 O   0  0  0  0  0  0
    5.1102    0.0611    0.2615 C   0  0  0  0  0  0
    6.2101    0.8730    0.5362 C   0  0  0  0  0  0
    7.4679    0.4592    0.1555 C   0  0  0  0  0  0
    7.6492   -0.7537   -0.4962 C   0  0  0  0  0  0
    6.5856   -1.5660   -0.7763 C   0  0  0  0  0  0
    5.3001   -1.1732   -0.4023 C   0  0  0  0  0  0
    4.1253   -2.0028   -0.6761 C   0  0  0  0  0  0
    2.9122   -1.5772   -0.2884 C   0  0  0  0  0  0
    0.6838    0.1836   -1.3049 H   0  0  0  0  0  0
    1.3148    1.6944   -0.6066 H   0  0  0  0  0  0
   -0.6595    1.8246    0.8913 H   0  0  0  0  0  0
   -0.7830    2.9270   -1.3075 H   0  0  0  0  0  0
   -1.3306    1.4081   -2.0586 H   0  0  0  0  0  0
   -2.7958    2.9377    0.1396 H   0  0  0  0  0  0
   -3.2481    2.9075   -1.5811 H   0  0  0  0  0  0
   -2.9766    1.0060    1.4677 H   0  0  0  0  0  0
   -3.5692   -0.5234    0.7778 H   0  0  0  0  0  0
   -1.5264   -0.6841   -0.6201 H   0  0  0  0  0  0
   -1.1119   -0.5878    1.1090 H   0  0  0  0  0  0
   -4.9991    2.0485    0.6244 H   0  0  0  0  0  0
   -5.3700    1.9656   -1.1146 H   0  0  0  0  0  0
   -5.3520    0.1250    2.0632 H   0  0  0  0  0  0
   -6.6178   -1.9546    2.4323 H   0  0  0  0  0  0
   -7.6955   -3.0934    0.5337 H   0  0  0  0  0  0
   -7.5081   -2.1522   -1.7340 H   0  0  0  0  0  0
   -6.2462   -0.0701   -2.1024 H   0  0  0  0  0  0
    1.4037    0.6243    1.6284 H   0  0  0  0  0  0
    0.7727   -0.8865    0.9301 H   0  0  0  0  0  0
    6.0772    1.8178    1.0423 H   0  0  0  0  0  0
    8.3224    1.0852    0.3660 H   0  0  0  0  0  0
    8.6437   -1.0593   -0.7860 H   0  0  0  0  0  0
    6.7397   -2.5065   -1.2842 H   0  0  0  0  0  0
    4.2340   -2.9509   -1.1818 H   0  0  0  0  0  0
    2.0527   -2.1974   -0.4956 H   0  0  0  0  0  0
  1  2  1  0  0  0
  1 16  1  0  0  0
  1 28  1  0  0  0
  1 29  1  0  0  0
  2  3  1  0  0  0
  2  8  1  0  0  0
  2 30  1  0  0  0
  3  4  1  0  0  0
  3 31  1  0  0  0
  3 32  1  0  0  0
  4  5  1  0  0  0
  4 33  1  0  0  0
  4 34  1  0  0  0
  5  6  1  0  0  0
  5  7  1  0  0  0
  5  9  1  0  0  0
  7  8  1  0  0  0
  7 35  1  0  0  0
  7 36  1  0  0  0
  8 37  1  0  0  0
  8 38  1  0  0  0
  9 10  1  0  0  0
  9 39  1  0  0  0
  9 40  1  0  0  0
 10 11  2  0  0  0
 10 15  1  0  0  0
 11 12  1  0  0  0
 11 41  1  0  0  0
 12 13  2  0  0  0
 12 42  1  0  0  0
 13 14  1  0  0  0
 13 43  1  0  0  0
 14 15  2  0  0  0
 14 44  1  0  0  0
 15 45  1  0  0  0
 16 17  1  0  0  0
 16 46  1  0  0  0
 16 47  1  0  0  0
 17 18  1  0  0  0
 17 27  1  0  0  0
 18 19  2  0  0  0
 18 20  1  0  0  0
 20 21  2  0  0  0
 20 25  1  0  0  0
 21 22  1  0  0  0
 21 48  1  0  0  0
 22 23  2  0  0  0
 22 49  1  0  0  0
 23 24  1  0  0  0
 23 50  1  0  0  0
 24 25  2  0  0  0
 24 51  1  0  0  0
 25 26  1  0  0  0
 26 27  2  0  0  0
 26 52  1  0  0  0
 27 53  1  0  0  0
M  CHG  1   5   1
M  END
>  <Activity>
5.95861

>  <set>
1

>  <Min_dist>
999.9

>  <Avg_dist>
999.9

$$$$
1-31A
  Cerius2 12110214483D 1   1.00000                          
 
 55 58  0  0  0  0  0  0  0  0999 V2000
    0.7131    0.7531   -0.4075 C   0  0  0  0  0  0
   -0.7093    1.1982   -0.0620 C   0  0  0  0  0  0
   -1.3370    1.8934   -1.2736 C   0  0  0  0  0  0
   -2.7852    2.2649   -0.9480 C   0  0  0  0  0  0
   -3.5461    1.0505   -0.6303 N   0  3  0  0  0  0
   -3.4882    0.4063   -1.4048 H   0  0  0  0  0  0
   -2.9938    0.4173    0.5732 C   0  0  0  0  0  0
   -1.5536   -0.0252    0.3062 C   0  0  0  0  0  0
   -4.9522    1.4035   -0.3931 C   0  0  0  0  0  0
   -5.7347    0.1576   -0.0668 C   0  0  0  0  0  0
   -5.8580   -0.2572    1.2461 C   0  0  0  0  0  0
   -6.5757   -1.4000    1.5454 C   0  0  0  0  0  0
   -7.1705   -2.1279    0.5319 C   0  0  0  0  0  0
   -7.0480   -1.7127   -0.7809 C   0  0  0  0  0  0
   -6.3339   -0.5674   -1.0798 C   0  0  0  0  0  0
    1.3387    0.0588    0.8039 C   0  0  0  0  0  0
    2.7007   -0.3674    0.4730 N   0  0  0  0  0  0
    3.7308    0.4720    0.7008 C   0  0  0  0  0  0
    3.5406    1.5534    1.2222 O   0  0  0  0  0  0
    5.0954    0.0589    0.3081 C   0  0  0  0  0  0
    6.2188    0.6939    0.8295 C   0  0  0  0  0  0
    7.4779    0.2800    0.4404 C   0  0  0  0  0  0
    7.6206   -0.7589   -0.4618 C   0  0  0  0  0  0
    6.5056   -1.3933   -0.9834 C   0  0  0  0  0  0
    5.2447   -0.9897   -0.6036 C   0  0  0  0  0  0
    4.0168   -1.6619   -1.1576 C   0  0  0  0  0  0
    2.9189   -1.6962   -0.0922 C   0  0  0  0  0  0
    0.6827    0.0598   -1.2481 H   0  0  0  0  0  0
    1.3111    1.6239   -0.6762 H   0  0  0  0  0  0
   -0.6804    1.8894    0.7804 H   0  0  0  0  0  0
   -0.7733    2.7966   -1.5074 H   0  0  0  0  0  0
   -1.3178    1.2196   -2.1302 H   0  0  0  0  0  0
   -2.8032    2.9389   -0.0915 H   0  0  0  0  0  0
   -3.2350    2.7602   -1.8085 H   0  0  0  0  0  0
   -3.0074    1.1307    1.3973 H   0  0  0  0  0  0
   -3.5976   -0.4513    0.8358 H   0  0  0  0  0  0
   -1.5389   -0.7389   -0.5176 H   0  0  0  0  0  0
   -1.1448   -0.4935    1.2016 H   0  0  0  0  0  0
   -5.0157    2.1015    0.4417 H   0  0  0  0  0  0
   -5.3660    1.8685   -1.2878 H   0  0  0  0  0  0
   -5.3932    0.3115    2.0380 H   0  0  0  0  0  0
   -6.6714   -1.7245    2.5711 H   0  0  0  0  0  0
   -7.7307   -3.0212    0.7656 H   0  0  0  0  0  0
   -7.5125   -2.2815   -1.5728 H   0  0  0  0  0  0
   -6.2382   -0.2429   -2.1055 H   0  0  0  0  0  0
    1.3691    0.7521    1.6444 H   0  0  0  0  0  0
    0.7406   -0.8120    1.0725 H   0  0  0  0  0  0
    6.1068    1.5052    1.5336 H   0  0  0  0  0  0
    8.3534    0.7691    0.8413 H   0  0  0  0  0  0
    8.6081   -1.0772   -0.7616 H   0  0  0  0  0  0
    6.6246   -2.2037   -1.6873 H   0  0  0  0  0  0
    3.6636   -1.1097   -2.0285 H   0  0  0  0  0  0
    4.2644   -2.6815   -1.4531 H   0  0  0  0  0  0
    3.2108   -2.3854    0.7003 H   0  0  0  0  0  0
    1.9913   -2.0458   -0.5454 H   0  0  0  0  0  0
  1  2  1  0  0  0
  1 16  1  0  0  0
  1 28  1  0  0  0
  1 29  1  0  0  0
  2  3  1  0  0  0
  2  8  1  0  0  0
  2 30  1  0  0  0
  3  4  1  0  0  0
  3 31  1  0  0  0
  3 32  1  0  0  0
  4  5  1  0  0  0
  4 33  1  0  0  0
  4 34  1  0  0  0
  5  6  1  0  0  0
  5  7  1  0  0  0
  5  9  1  0  0  0
  7  8  1  0  0  0
  7 35  1  0  0  0
  7 36  1  0  0  0
  8 37  1  0  0  0
  8 38  1  0  0  0
  9 10  1  0  0  0
  9 39  1  0  0  0
  9 40  1  0  0  0
 10 11  2  0  0  0
 10 15  1  0  0  0
 11 12  1  0  0  0
 11 41  1  0  0  0
 12 13  2  0  0  0
 12 42  1  0  0  0
 13 14  1  0  0  0
 13 43  1  0  0  0
 14 15  2  0  0  0
 14 44  1  0  0  0
 15 45  1  0  0  0
 16 17  1  0  0  0
 16 46  1  0  0  0
 16 47  1  0  0  0
 17 18  1  0  0  0
 17 27  1  0  0  0
 18 19  2  0  0  0
 18 20  1  0  0  0
 20 21  2  0  0  0
 20 25  1  0  0  0
 21 22  1  0  0  0
 21 48  1  0  0  0
 22 23  2  0  0  0
 22 49  1  0  0  0
 23 24  1  0  0  0
 23 50  1  0  0  0
 24 25  2  0  0  0
 24 51  1  0  0  0
 25 26  1  0  0  0
 26 27  1  0  0  0
 26 52  1  0  0  0
 26 53  1  0  0  0
 27 54  1  0  0  0
 27 55  1  0  0  0
M  CHG  1   5   1
M  END
>  <Activity>
6

>  <set>
1

>  <Min_dist>
999.9

>  <Avg_dist>
999.9

$$$$
1-31B
  Cerius2 12110214483D 1   1.00000                          
 
 55 58  0  0  0  0  0  0  0  0999 V2000
    0.6581    1.3486   -0.4521 C   0  0  0  0  0  0
   -0.7975    1.5583   -0.0300 C   0  0  0  0  0  0
   -1.5595    2.2671   -1.1534 C   0  0  0  0  0  0
   -3.0314    2.4024   -0.7576 C   0  0  0  0  0  0
   -3.6073    1.0702   -0.5386 N   0  3  0  0  0  0
   -3.4918    0.5137   -1.3723 H   0  0  0  0  0  0
   -2.9288    0.4127    0.5846 C   0  0  0  0  0  0
   -1.4529    0.2009    0.2405 C   0  0  0  0  0  0
   -5.0383    1.2011   -0.2336 C   0  0  0  0  0  0
   -5.6311   -0.1660   -0.0084 C   0  0  0  0  0  0
   -5.6468   -0.7120    1.2614 C   0  0  0  0  0  0
   -6.1905   -1.9660    1.4679 C   0  0  0  0  0  0
   -6.7189   -2.6739    0.4046 C   0  0  0  0  0  0
   -6.7040   -2.1276   -0.8651 C   0  0  0  0  0  0
   -6.1642   -0.8717   -1.0709 C   0  0  0  0  0  0
    1.4179    0.6403    0.6713 C   0  0  0  0  0  0
    2.8116    0.4396    0.2672 N   0  0  0  0  0  0
    3.6966    1.3952    0.5575 C   0  0  0  0  0  0
    3.3083    2.3907    1.1312 O   0  0  0  0  0  0
    5.1488    1.2914    0.2060 C   0  0  0  0  0  0
    5.5515   -0.1403   -0.0179 C   0  0  0  0  0  0
    4.6184   -1.1107   -0.3133 C   0  0  0  0  0  0
    3.1562   -0.7917   -0.4227 C   0  0  0  0  0  0
    5.0287   -2.4210   -0.5124 C   0  0  0  0  0  0
    6.3640   -2.7565   -0.4167 C   0  0  0  0  0  0
    7.2994   -1.7823   -0.1208 C   0  0  0  0  0  0
    6.8931   -0.4780    0.0774 C   0  0  0  0  0  0
    0.6904    0.7375   -1.3541 H   0  0  0  0  0  0
    1.1215    2.3149   -0.6511 H   0  0  0  0  0  0
   -0.8309    2.1670    0.8736 H   0  0  0  0  0  0
   -1.1332    3.2574   -1.3138 H   0  0  0  0  0  0
   -1.4814    1.6836   -2.0707 H   0  0  0  0  0  0
   -3.1083    2.9863    0.1596 H   0  0  0  0  0  0
   -3.5767    2.9069   -1.5553 H   0  0  0  0  0  0
   -3.0079    1.0390    1.4732 H   0  0  0  0  0  0
   -3.3984   -0.5518    0.7780 H   0  0  0  0  0  0
   -1.3726   -0.4256   -0.6479 H   0  0  0  0  0  0
   -0.9504   -0.2858    1.0765 H   0  0  0  0  0  0
   -5.1644    1.8043    0.6655 H   0  0  0  0  0  0
   -5.5453    1.6838   -1.0691 H   0  0  0  0  0  0
   -5.2340   -0.1589    2.0922 H   0  0  0  0  0  0
   -6.2022   -2.3929    2.4599 H   0  0  0  0  0  0
   -7.1430   -3.6540    0.5658 H   0  0  0  0  0  0
   -7.1165   -2.6808   -1.6959 H   0  0  0  0  0  0
   -6.1525   -0.4448   -2.0628 H   0  0  0  0  0  0
    1.3856    1.2514    1.5733 H   0  0  0  0  0  0
    0.9545   -0.3260    0.8704 H   0  0  0  0  0  0
    5.3384    1.8624   -0.7029 H   0  0  0  0  0  0
    5.7440    1.7072    1.0190 H   0  0  0  0  0  0
    2.5811   -1.6149    0.0012 H   0  0  0  0  0  0
    2.8947   -0.6839   -1.4753 H   0  0  0  0  0  0
    4.2990   -3.1830   -0.7434 H   0  0  0  0  0  0
    6.6777   -3.7782   -0.5722 H   0  0  0  0  0  0
    8.3453   -2.0409   -0.0455 H   0  0  0  0  0  0
    7.6236    0.2831    0.3083 H   0  0  0  0  0  0
  1  2  1  0  0  0
  1 16  1  0  0  0
  1 28  1  0  0  0
  1 29  1  0  0  0
  2  3  1  0  0  0
  2  8  1  0  0  0
  2 30  1  0  0  0
  3  4  1  0  0  0
  3 31  1  0  0  0
  3 32  1  0  0  0
  4  5  1  0  0  0
  4 33  1  0  0  0
  4 34  1  0  0  0
  5  6  1  0  0  0
  5  7  1  0  0  0
  5  9  1  0  0  0
  7  8  1  0  0  0
  7 35  1  0  0  0
  7 36  1  0  0  0
  8 37  1  0  0  0
  8 38  1  0  0  0
  9 10  1  0  0  0
  9 39  1  0  0  0
  9 40  1  0  0  0
 10 11  2  0  0  0
 10 15  1  0  0  0
 11 12  1  0  0  0
 11 41  1  0  0  0
 12 13  2  0  0  0
 12 42  1  0  0  0
 13 14  1  0  0  0
 13 43  1  0  0  0
 14 15  2  0  0  0
 14 44  1  0  0  0
 15 45  1  0  0  0
 16 17  1  0  0  0
 16 46  1  0  0  0
 16 47  1  0  0  0
 17 18  1  0  0  0
 17 23  1  0  0  0
 18 19  2  0  0  0
 18 20  1  0  0  0
 20 21  1  0  0  0
 20 48  1  0  0  0
 20 49  1  0  0  0
 21 22  2  0  0  0
 21 27  1  0  0  0
 22 23  1  0  0  0
 22 24  1  0  0  0
 23 50  1  0  0  0
 23 51  1  0  0  0
 24 25  2  0  0  0
 24 52  1  0  0  0
 25 26  1  0  0  0
 25 53  1  0  0  0
 26 27  2  0  0  0
 26 54  1  0  0  0
 27 55  1  0  0  0
M  CHG  1   5   1
M  END
>  <Activity>
7.76955

>  <set>
1

>  <Min_dist>
999.9

>  <Avg_dist>
999.9

$$$$
1-35
  Cerius2 12110214483D 1   1.00000                          
 
 55 58  0  0  0  0  0  0  0  0999 V2000
    0.6881    0.7986   -0.4018 C   0  0  0  0  0  0
   -0.7403    1.2319   -0.0659 C   0  0  0  0  0  0
   -1.3723    1.9042   -1.2882 C   0  0  0  0  0  0
   -2.8256    2.2634   -0.9714 C   0  0  0  0  0  0
   -3.5736    1.0447   -0.6401 N   0  3  0  0  0  0
   -3.5061    0.3912   -1.4060 H   0  0  0  0  0  0
   -3.0177    0.4334    0.5731 C   0  0  0  0  0  0
   -1.5717    0.0038    0.3157 C   0  0  0  0  0  0
   -4.9843    1.3846   -0.4113 C   0  0  0  0  0  0
   -5.7535    0.1342   -0.0710 C   0  0  0  0  0  0
   -5.8759   -0.2649    1.2468 C   0  0  0  0  0  0
   -6.5814   -1.4119    1.5589 C   0  0  0  0  0  0
   -7.1651   -2.1595    0.5532 C   0  0  0  0  0  0
   -7.0435   -1.7599   -0.7645 C   0  0  0  0  0  0
   -6.3416   -0.6105   -1.0762 C   0  0  0  0  0  0
    1.3180    0.1271    0.8201 C   0  0  0  0  0  0
    2.6857   -0.2878    0.4985 N   0  0  0  0  0  0
    3.7245    0.5558    0.7120 C   0  0  0  0  0  0
    3.5599    1.6527    1.2091 O   0  0  0  0  0  0
    5.0699    0.0808    0.3126 C   0  0  0  0  0  0
    6.2237    0.6801    0.8056 C   0  0  0  0  0  0
    7.4595    0.2033    0.4123 C   0  0  0  0  0  0
    7.5439   -0.8625   -0.4656 C   0  0  0  0  0  0
    6.3969   -1.4596   -0.9596 C   0  0  0  0  0  0
    5.1570   -0.9929   -0.5775 C   0  0  0  0  0  0
    3.9913   -1.5739   -1.0755 N   0  3  0  0  0  0
    3.6639   -1.0352   -1.8633 H   0  0  0  0  0  0
    4.1945   -2.5143   -1.3797 H   0  0  0  0  0  0
    2.9436   -1.6191   -0.0505 C   0  0  0  0  0  0
    0.6680    0.0942   -1.2334 H   0  0  0  0  0  0
    1.2770    1.6726   -0.6801 H   0  0  0  0  0  0
   -0.7217    1.9343    0.7674 H   0  0  0  0  0  0
   -0.8182    2.8107   -1.5321 H   0  0  0  0  0  0
   -1.3430    1.2197   -2.1359 H   0  0  0  0  0  0
   -2.8537    2.9481   -0.1238 H   0  0  0  0  0  0
   -3.2785    2.7424   -1.8395 H   0  0  0  0  0  0
   -3.0417    1.1571    1.3878 H   0  0  0  0  0  0
   -3.6123   -0.4386    0.8452 H   0  0  0  0  0  0
   -1.5466   -0.7202   -0.4987 H   0  0  0  0  0  0
   -1.1602   -0.4482    1.2182 H   0  0  0  0  0  0
   -5.0581    2.0926    0.4142 H   0  0  0  0  0  0
   -5.4007    1.8333   -1.3131 H   0  0  0  0  0  0
   -5.4199    0.3192    2.0325 H   0  0  0  0  0  0
   -6.6764   -1.7241    2.5884 H   0  0  0  0  0  0
   -7.7157   -3.0561    0.7970 H   0  0  0  0  0  0
   -7.4992   -2.3442   -1.5502 H   0  0  0  0  0  0
   -6.2466   -0.2983   -2.1057 H   0  0  0  0  0  0
    1.3381    0.8315    1.6517 H   0  0  0  0  0  0
    0.7291   -0.7468    1.0984 H   0  0  0  0  0  0
    6.1545    1.5122    1.4906 H   0  0  0  0  0  0
    8.3605    0.6634    0.7903 H   0  0  0  0  0  0
    8.5127   -1.2315   -0.7684 H   0  0  0  0  0  0
    6.4732   -2.2909   -1.6448 H   0  0  0  0  0  0
    3.2571   -2.2880    0.7510 H   0  0  0  0  0  0
    2.0254   -2.0026   -0.4953 H   0  0  0  0  0  0
  1  2  1  0  0  0
  1 16  1  0  0  0
  1 30  1  0  0  0
  1 31  1  0  0  0
  2  3  1  0  0  0
  2  8  1  0  0  0
  2 32  1  0  0  0
  3  4  1  0  0  0
  3 33  1  0  0  0
  3 34  1  0  0  0
  4  5  1  0  0  0
  4 35  1  0  0  0
  4 36  1  0  0  0
  5  6  1  0  0  0
  5  7  1  0  0  0
  5  9  1  0  0  0
  7  8  1  0  0  0
  7 37  1  0  0  0
  7 38  1  0  0  0
  8 39  1  0  0  0
  8 40  1  0  0  0
  9 10  1  0  0  0
  9 41  1  0  0  0
  9 42  1  0  0  0
 10 11  2  0  0  0
 10 15  1  0  0  0
 11 12  1  0  0  0
 11 43  1  0  0  0
 12 13  2  0  0  0
 12 44  1  0  0  0
 13 14  1  0  0  0
 13 45  1  0  0  0
 14 15  2  0  0  0
 14 46  1  0  0  0
 15 47  1  0  0  0
 16 17  1  0  0  0
 16 48  1  0  0  0
 16 49  1  0  0  0
 17 18  1  0  0  0
 17 29  1  0  0  0
 18 19  2  0  0  0
 18 20  1  0  0  0
 20 21  2  0  0  0
 20 25  1  0  0  0
 21 22  1  0  0  0
 21 50  1  0  0  0
 22 23  2  0  0  0
 22 51  1  0  0  0
 23 24  1  0  0  0
 23 52  1  0  0  0
 24 25  2  0  0  0
 24 53  1  0  0  0
 25 26  1  0  0  0
 26 27  1  0  0  0
 26 28  1  0  0  0
 26 29  1  0  0  0
 29 54  1  0  0  0
 29 55  1  0  0  0
M  CHG  2   5   1  26   1
M  END
>  <Activity>
6.09691

>  <set>
1

>  <Min_dist>
999.9

>  <Avg_dist>
999.9

$$$$
1-37
  Cerius2 12110214483D 1   1.00000                          
 
 53 56  0  0  0  0  0  0  0  0999 V2000
    0.6092    0.9089   -0.4122 C   0  0  0  0  0  0
   -0.8173    1.3130   -0.0344 C   0  0  0  0  0  0
   -1.4681    2.0517   -1.2075 C   0  0  0  0  0  0
   -2.9193    2.3826   -0.8528 C   0  0  0  0  0  0
   -3.6564    1.1419   -0.5846 N   0  3  0  0  0  0
   -3.5947    0.5348   -1.3882 H   0  0  0  0  0  0
   -3.0822    0.4641    0.5840 C   0  0  0  0  0  0
   -1.6371    0.0594    0.2846 C   0  0  0  0  0  0
   -5.0660    1.4590   -0.3193 C   0  0  0  0  0  0
   -5.8240    0.1861   -0.0437 C   0  0  0  0  0  0
   -5.9279   -0.2903    1.2498 C   0  0  0  0  0  0
   -6.6232   -1.4580    1.5026 C   0  0  0  0  0  0
   -7.2150   -2.1491    0.4620 C   0  0  0  0  0  0
   -7.1120   -1.6723   -0.8315 C   0  0  0  0  0  0
   -6.4203   -0.5023   -1.0837 C   0  0  0  0  0  0
    1.2578    0.1711    0.7607 C   0  0  0  0  0  0
    2.6237   -0.2158    0.3989 N   0  0  0  0  0  0
    3.6427    0.6325    0.6570 C   0  0  0  0  0  0
    3.4396    1.7093    1.1841 O   0  0  0  0  0  0
    5.0072    0.2190    0.2835 C   0  0  0  0  0  0
    6.1101    1.0365    0.5166 C   0  0  0  0  0  0
    7.3670    0.6030    0.1487 C   0  0  0  0  0  0
    7.5349   -0.6364   -0.4488 C   0  0  0  0  0  0
    6.4493   -1.4564   -0.6859 C   0  0  0  0  0  0
    5.1787   -1.0380   -0.3226 C   0  0  0  0  0  0
    4.0617   -1.8308   -0.5433 N   0  0  0  0  0  0
    2.8391   -1.4085   -0.1776 C   0  0  0  0  0  0
    1.8861   -2.1334   -0.3883 O   0  0  0  0  0  0
    0.5827    0.2543   -1.2834 H   0  0  0  0  0  0
    1.1897    1.8014   -0.6459 H   0  0  0  0  0  0
   -0.7923    1.9654    0.8384 H   0  0  0  0  0  0
   -0.9221    2.9743   -1.4045 H   0  0  0  0  0  0
   -1.4455    1.4181   -2.0941 H   0  0  0  0  0  0
   -2.9408    3.0163    0.0338 H   0  0  0  0  0  0
   -3.3856    2.9087   -1.6858 H   0  0  0  0  0  0
   -3.1001    1.1387    1.4399 H   0  0  0  0  0  0
   -3.6686   -0.4260    0.8117 H   0  0  0  0  0  0
   -1.6180   -0.6155   -0.5711 H   0  0  0  0  0  0
   -1.2120   -0.4420    1.1540 H   0  0  0  0  0  0
   -5.1336    2.1170    0.5471 H   0  0  0  0  0  0
   -5.4961    1.9571   -1.1882 H   0  0  0  0  0  0
   -5.4655    0.2497    2.0629 H   0  0  0  0  0  0
   -6.7038   -1.8305    2.5131 H   0  0  0  0  0  0
   -7.7577   -3.0618    0.6594 H   0  0  0  0  0  0
   -7.5740   -2.2124   -1.6445 H   0  0  0  0  0  0
   -6.3398   -0.1297   -2.0942 H   0  0  0  0  0  0
    1.2843    0.8257    1.6318 H   0  0  0  0  0  0
    0.6773   -0.7214    0.9943 H   0  0  0  0  0  0
    5.9824    2.0028    0.9817 H   0  0  0  0  0  0
    8.2256    1.2334    0.3270 H   0  0  0  0  0  0
    8.5243   -0.9638   -0.7320 H   0  0  0  0  0  0
    6.5898   -2.4205   -1.1520 H   0  0  0  0  0  0
    4.1645   -2.7000   -0.9615 H   0  0  0  0  0  0
  1  2  1  0  0  0
  1 16  1  0  0  0
  1 29  1  0  0  0
  1 30  1  0  0  0
  2  3  1  0  0  0
  2  8  1  0  0  0
  2 31  1  0  0  0
  3  4  1  0  0  0
  3 32  1  0  0  0
  3 33  1  0  0  0
  4  5  1  0  0  0
  4 34  1  0  0  0
  4 35  1  0  0  0
  5  6  1  0  0  0
  5  7  1  0  0  0
  5  9  1  0  0  0
  7  8  1  0  0  0
  7 36  1  0  0  0
  7 37  1  0  0  0
  8 38  1  0  0  0
  8 39  1  0  0  0
  9 10  1  0  0  0
  9 40  1  0  0  0
  9 41  1  0  0  0
 10 11  2  0  0  0
 10 15  1  0  0  0
 11 12  1  0  0  0
 11 42  1  0  0  0
 12 13  2  0  0  0
 12 43  1  0  0  0
 13 14  1  0  0  0
 13 44  1  0  0  0
 14 15  2  0  0  0
 14 45  1  0  0  0
 15 46  1  0  0  0
 16 17  1  0  0  0
 16 47  1  0  0  0
 16 48  1  0  0  0
 17 18  1  0  0  0
 17 27  1  0  0  0
 18 19  2  0  0  0
 18 20  1  0  0  0
 20 21  2  0  0  0
 20 25  1  0  0  0
 21 22  1  0  0  0
 21 49  1  0  0  0
 22 23  2  0  0  0
 22 50  1  0  0  0
 23 24  1  0  0  0
 23 51  1  0  0  0
 24 25  2  0  0  0
 24 52  1  0  0  0
 25 26  1  0  0  0
 26 27  1  0  0  0
 26 53  1  0  0  0
 27 28  2  0  0  0
M  CHG  1   5   1
M  END
>  <Activity>
8.37675

>  <set>
1

>  <Min_dist>
999.9

>  <Avg_dist>
999.9

$$$$
1-3A
  Cerius2 12110214483D 1   1.00000                          
 
 61 64  0  0  0  0  0  0  0  0999 V2000
    0.2280    1.1314   -0.9181 C   0  0  0  0  0  0
   -1.1735    1.5416   -0.4618 C   0  0  0  0  0  0
   -1.9789    2.0390   -1.6656 C   0  0  0  0  0  0
   -3.4033    2.3724   -1.2168 C   0  0  0  0  0  0
   -4.0395    1.1710   -0.6632 N   0  3  0  0  0  0
   -4.0253    0.4355   -1.3538 H   0  0  0  0  0  0
   -3.3140    0.7300    0.5341 C   0  0  0  0  0  0
   -1.8861    0.3334    0.1527 C   0  0  0  0  0  0
   -5.4308    1.4768   -0.3042 C   0  0  0  0  0  0
   -6.0854    0.2442    0.2644 C   0  0  0  0  0  0
   -6.0320   -0.0022    1.6236 C   0  0  0  0  0  0
   -6.6324   -1.1329    2.1452 C   0  0  0  0  0  0
   -7.2865   -2.0169    1.3076 C   0  0  0  0  0  0
   -7.3406   -1.7701   -0.0515 C   0  0  0  0  0  0
   -6.7440   -0.6372   -0.5725 C   0  0  0  0  0  0
    1.0313    0.6347    0.2856 C   0  0  0  0  0  0
    2.3733    0.2419   -0.1514 N   0  0  0  0  0  0
    3.3717    1.1473   -0.1586 C   0  0  0  0  0  0
    3.2182    2.2169   -0.7155 O   0  0  0  0  0  0
    4.6532    0.8397    0.5107 C   0  0  0  0  0  0
    5.7359    1.7121    0.3869 C   0  0  0  0  0  0
    6.9291    1.4190    1.0140 C   0  0  0  0  0  0
    7.0541    0.2633    1.7645 C   0  0  0  0  0  0
    5.9849   -0.6056    1.8914 C   0  0  0  0  0  0
    4.7843   -0.3216    1.2741 C   0  0  0  0  0  0
    2.6185   -1.0726   -0.5611 C   0  0  0  0  0  0
    3.8527   -1.4155   -1.0980 C   0  0  0  0  0  0
    4.0917   -2.7146   -1.5012 C   0  0  0  0  0  0
    3.1039   -3.6735   -1.3707 C   0  0  0  0  0  0
    1.8739   -3.3353   -0.8369 C   0  0  0  0  0  0
    1.6303   -2.0392   -0.4265 C   0  0  0  0  0  0
    0.1506    0.3340   -1.6573 H   0  0  0  0  0  0
    0.7317    1.9903   -1.3617 H   0  0  0  0  0  0
   -1.0972    2.3371    0.2795 H   0  0  0  0  0  0
   -1.5076    2.9327   -2.0747 H   0  0  0  0  0  0
   -2.0103    1.2615   -2.4289 H   0  0  0  0  0  0
   -3.3707    3.1501   -0.4538 H   0  0  0  0  0  0
   -3.9794    2.7270   -2.0715 H   0  0  0  0  0  0
   -3.2833    1.5427    1.2598 H   0  0  0  0  0  0
   -3.8241   -0.1279    0.9721 H   0  0  0  0  0  0
   -1.9156   -0.4795   -0.5728 H   0  0  0  0  0  0
   -1.3485    0.0080    1.0433 H   0  0  0  0  0  0
   -5.4474    2.2731    0.4400 H   0  0  0  0  0  0
   -5.9731    1.7989   -1.1932 H   0  0  0  0  0  0
   -5.5210    0.6885    2.2780 H   0  0  0  0  0  0
   -6.5901   -1.3257    3.2070 H   0  0  0  0  0  0
   -7.7550   -2.9006    1.7150 H   0  0  0  0  0  0
   -7.8514   -2.4609   -0.7059 H   0  0  0  0  0  0
   -6.7862   -0.4443   -1.6343 H   0  0  0  0  0  0
    1.1088    1.4321    1.0247 H   0  0  0  0  0  0
    0.5277   -0.2242    0.7291 H   0  0  0  0  0  0
    5.6397    2.6143   -0.1990 H   0  0  0  0  0  0
    7.7677    2.0929    0.9187 H   0  0  0  0  0  0
    7.9906    0.0384    2.2532 H   0  0  0  0  0  0
    6.0891   -1.5060    2.4787 H   0  0  0  0  0  0
    3.9505   -1.0007    1.3739 H   0  0  0  0  0  0
    4.6244   -0.6670   -1.2005 H   0  0  0  0  0  0
    5.0510   -2.9818   -1.9191 H   0  0  0  0  0  0
    3.2933   -4.6887   -1.6868 H   0  0  0  0  0  0
    1.1044   -4.0864   -0.7367 H   0  0  0  0  0  0
    0.6695   -1.7757   -0.0097 H   0  0  0  0  0  0
  1  2  1  0  0  0
  1 16  1  0  0  0
  1 32  1  0  0  0
  1 33  1  0  0  0
  2  3  1  0  0  0
  2  8  1  0  0  0
  2 34  1  0  0  0
  3  4  1  0  0  0
  3 35  1  0  0  0
  3 36  1  0  0  0
  4  5  1  0  0  0
  4 37  1  0  0  0
  4 38  1  0  0  0
  5  6  1  0  0  0
  5  7  1  0  0  0
  5  9  1  0  0  0
  7  8  1  0  0  0
  7 39  1  0  0  0
  7 40  1  0  0  0
  8 41  1  0  0  0
  8 42  1  0  0  0
  9 10  1  0  0  0
  9 43  1  0  0  0
  9 44  1  0  0  0
 10 11  2  0  0  0
 10 15  1  0  0  0
 11 12  1  0  0  0
 11 45  1  0  0  0
 12 13  2  0  0  0
 12 46  1  0  0  0
 13 14  1  0  0  0
 13 47  1  0  0  0
 14 15  2  0  0  0
 14 48  1  0  0  0
 15 49  1  0  0  0
 16 17  1  0  0  0
 16 50  1  0  0  0
 16 51  1  0  0  0
 17 18  1  0  0  0
 17 26  1  0  0  0
 18 19  2  0  0  0
 18 20  1  0  0  0
 20 21  2  0  0  0
 20 25  1  0  0  0
 21 22  1  0  0  0
 21 52  1  0  0  0
 22 23  2  0  0  0
 22 53  1  0  0  0
 23 24  1  0  0  0
 23 54  1  0  0  0
 24 25  2  0  0  0
 24 55  1  0  0  0
 25 56  1  0  0  0
 26 27  2  0  0  0
 26 31  1  0  0  0
 27 28  1  0  0  0
 27 57  1  0  0  0
 28 29  2  0  0  0
 28 58  1  0  0  0
 29 30  1  0  0  0
 29 59  1  0  0  0
 30 31  2  0  0  0
 30 60  1  0  0  0
 31 61  1  0  0  0
M  CHG  1   5   1
M  END
>  <Activity>
7.45593

>  <set>
1

>  <Min_dist>
999.9

>  <Avg_dist>
999.9

$$$$
1-3B
  Cerius2 12110214483D 1   1.00000                          
 
 65 68  0  0  0  0  0  0  0  0999 V2000
   -0.4309    1.2717   -0.9660 C   0  0  0  0  0  0
   -1.8067    1.6038   -0.3848 C   0  0  0  0  0  0
   -2.6962    2.1967   -1.4814 C   0  0  0  0  0  0
   -4.0941    2.4525   -0.9138 C   0  0  0  0  0  0
   -4.6732    1.1890   -0.4418 N   0  3  0  0  0  0
   -4.6913    0.5242   -1.2006 H   0  0  0  0  0  0
   -3.8646    0.6510    0.6588 C   0  0  0  0  0  0
   -2.4580    0.3259    0.1518 C   0  0  0  0  0  0
   -6.0433    1.4268    0.0318 C   0  0  0  0  0  0
   -6.6392    0.1304    0.5169 C   0  0  0  0  0  0
   -6.4942   -0.2449    1.8394 C   0  0  0  0  0  0
   -7.0408   -1.4341    2.2843 C   0  0  0  0  0  0
   -7.7327   -2.2478    1.4068 C   0  0  0  0  0  0
   -7.8785   -1.8721    0.0845 C   0  0  0  0  0  0
   -7.3356   -0.6808   -0.3594 C   0  0  0  0  0  0
    0.4566    0.6795    0.1307 C   0  0  0  0  0  0
    1.7739    0.3615   -0.4257 N   0  0  0  0  0  0
    2.7545    1.2860   -0.4067 C   0  0  0  0  0  0
    2.5478    2.4007   -0.8462 O   0  0  0  0  0  0
    4.0791    0.9452    0.1475 C   0  0  0  0  0  0
    5.1373    1.8519    0.0414 C   0  0  0  0  0  0
    6.3716    1.5304    0.5603 C   0  0  0  0  0  0
    6.5658    0.3059    1.1888 C   0  0  0  0  0  0
    5.5160   -0.5987    1.2963 C   0  0  0  0  0  0
    4.2772   -0.2826    0.7848 C   0  0  0  0  0  0
    7.7840   -0.0074    1.6984 O   0  0  0  0  0  0
    7.6689   -1.3113    2.2717 C   0  0  0  0  0  0
    2.0140   -0.9013   -0.9767 C   0  0  0  0  0  0
    3.2165   -1.1624   -1.6208 C   0  0  0  0  0  0
    3.4504   -2.4105   -2.1639 C   0  0  0  0  0  0
    2.4888   -3.3995   -2.0672 C   0  0  0  0  0  0
    1.2903   -3.1427   -1.4269 C   0  0  0  0  0  0
    1.0528   -1.8987   -0.8759 C   0  0  0  0  0  0
   -0.5425    0.5479   -1.7733 H   0  0  0  0  0  0
    0.0287    2.1807   -1.3539 H   0  0  0  0  0  0
   -1.6959    2.3254    0.4245 H   0  0  0  0  0  0
   -2.2673    3.1362   -1.8297 H   0  0  0  0  0  0
   -2.7639    1.4960   -2.3136 H   0  0  0  0  0  0
   -4.0253    3.1534   -0.0819 H   0  0  0  0  0  0
   -4.7299    2.8748   -1.6919 H   0  0  0  0  0  0
   -3.8007    1.3903    1.4572 H   0  0  0  0  0  0
   -4.3311   -0.2566    1.0418 H   0  0  0  0  0  0
   -2.5207   -0.4136   -0.6465 H   0  0  0  0  0  0
   -1.8587   -0.0717    0.9709 H   0  0  0  0  0  0
   -6.0251    2.1469    0.8499 H   0  0  0  0  0  0
   -6.6470    1.8208   -0.7857 H   0  0  0  0  0  0
   -5.9536    0.3908    2.5249 H   0  0  0  0  0  0
   -6.9269   -1.7277    3.3174 H   0  0  0  0  0  0
   -8.1591   -3.1772    1.7542 H   0  0  0  0  0  0
   -8.4188   -2.5079   -0.6012 H   0  0  0  0  0  0
   -7.4495   -0.3872   -1.3925 H   0  0  0  0  0  0
    0.5683    1.4033    0.9380 H   0  0  0  0  0  0
   -0.0030   -0.2295    0.5187 H   0  0  0  0  0  0
    4.9872    2.8033   -0.4471 H   0  0  0  0  0  0
    7.1899    2.2304    0.4784 H   0  0  0  0  0  0
    5.6710   -1.5490    1.7854 H   0  0  0  0  0  0
    3.4619   -0.9858    0.8691 H   0  0  0  0  0  0
    8.6282   -1.6076    2.6961 H   0  0  0  0  0  0
    6.9129   -1.2976    3.0568 H   0  0  0  0  0  0
    7.3779   -2.0233    1.4994 H   0  0  0  0  0  0
    3.9676   -0.3902   -1.6973 H   0  0  0  0  0  0
    4.3852   -2.6142   -2.6649 H   0  0  0  0  0  0
    2.6740   -4.3746   -2.4930 H   0  0  0  0  0  0
    0.5410   -3.9170   -1.3537 H   0  0  0  0  0  0
    0.1167   -1.6988   -0.3757 H   0  0  0  0  0  0
  1  2  1  0  0  0
  1 16  1  0  0  0
  1 34  1  0  0  0
  1 35  1  0  0  0
  2  3  1  0  0  0
  2  8  1  0  0  0
  2 36  1  0  0  0
  3  4  1  0  0  0
  3 37  1  0  0  0
  3 38  1  0  0  0
  4  5  1  0  0  0
  4 39  1  0  0  0
  4 40  1  0  0  0
  5  6  1  0  0  0
  5  7  1  0  0  0
  5  9  1  0  0  0
  7  8  1  0  0  0
  7 41  1  0  0  0
  7 42  1  0  0  0
  8 43  1  0  0  0
  8 44  1  0  0  0
  9 10  1  0  0  0
  9 45  1  0  0  0
  9 46  1  0  0  0
 10 11  2  0  0  0
 10 15  1  0  0  0
 11 12  1  0  0  0
 11 47  1  0  0  0
 12 13  2  0  0  0
 12 48  1  0  0  0
 13 14  1  0  0  0
 13 49  1  0  0  0
 14 15  2  0  0  0
 14 50  1  0  0  0
 15 51  1  0  0  0
 16 17  1  0  0  0
 16 52  1  0  0  0
 16 53  1  0  0  0
 17 18  1  0  0  0
 17 28  1  0  0  0
 18 19  2  0  0  0
 18 20  1  0  0  0
 20 21  2  0  0  0
 20 25  1  0  0  0
 21 22  1  0  0  0
 21 54  1  0  0  0
 22 23  2  0  0  0
 22 55  1  0  0  0
 23 24  1  0  0  0
 23 26  1  0  0  0
 24 25  2  0  0  0
 24 56  1  0  0  0
 25 57  1  0  0  0
 26 27  1  0  0  0
 27 58  1  0  0  0
 27 59  1  0  0  0
 27 60  1  0  0  0
 28 29  2  0  0  0
 28 33  1  0  0  0
 29 30  1  0  0  0
 29 61  1  0  0  0
 30 31  2  0  0  0
 30 62  1  0  0  0
 31 32  1  0  0  0
 31 63  1  0  0  0
 32 33  2  0  0  0
 32 64  1  0  0  0
 33 65  1  0  0  0
M  CHG  1   5   1
M  END
>  <Activity>
6.22915

>  <set>
1

>  <Min_dist>
999.9

>  <Avg_dist>
999.9

$$$$
1-3C
  Cerius2 12110214483D 1   1.00000                          
 
 61 64  0  0  0  0  0  0  0  0999 V2000
   -0.1648    1.1333   -1.0140 C   0  0  0  0  0  0
   -1.5484    1.5426   -0.5051 C   0  0  0  0  0  0
   -2.3983    2.0414   -1.6774 C   0  0  0  0  0  0
   -3.8050    2.3738   -1.1754 C   0  0  0  0  0  0
   -4.4199    1.1715   -0.6000 N   0  3  0  0  0  0
   -4.4313    0.4370   -1.2916 H   0  0  0  0  0  0
   -3.6501    0.7291    0.5688 C   0  0  0  0  0  0
   -2.2374    0.3334    0.1339 C   0  0  0  0  0  0
   -5.7969    1.4765   -0.1890 C   0  0  0  0  0  0
   -6.4295    0.2430    0.4020 C   0  0  0  0  0  0
   -6.3255   -0.0052    1.7579 C   0  0  0  0  0  0
   -6.9057   -1.1367    2.3000 C   0  0  0  0  0  0
   -7.5904   -2.0198    1.4863 C   0  0  0  0  0  0
   -7.6952   -1.7712    0.1305 C   0  0  0  0  0  0
   -7.1187   -0.6375   -0.4109 C   0  0  0  0  0  0
    0.6830    0.6353    0.1583 C   0  0  0  0  0  0
    2.0078    0.2434   -0.3289 N   0  0  0  0  0  0
    3.0050    1.1491   -0.3721 C   0  0  0  0  0  0
    2.8307    2.2194   -0.9218 O   0  0  0  0  0  0
    4.3095    0.8413    0.2483 C   0  0  0  0  0  0
    5.3868    1.7150    0.0849 C   0  0  0  0  0  0
    6.6018    1.4231    0.6665 C   0  0  0  0  0  0
    6.7557    0.2647    1.4128 C   0  0  0  0  0  0
    5.6896   -0.6064    1.5778 C   0  0  0  0  0  0
    4.4685   -0.3215    1.0054 C   0  0  0  0  0  0
    7.9488   -0.0166    1.9807 F   0  0  0  0  0  0
    2.2378   -1.0705   -0.7492 C   0  0  0  0  0  0
    3.4511   -1.4123   -1.3322 C   0  0  0  0  0  0
    3.6751   -2.7107   -1.7462 C   0  0  0  0  0  0
    2.6928   -3.6700   -1.5807 C   0  0  0  0  0  0
    1.4835   -3.3328   -1.0010 C   0  0  0  0  0  0
    1.2555   -2.0376   -0.5792 C   0  0  0  0  0  0
   -0.2696    0.3369   -1.7507 H   0  0  0  0  0  0
    0.3218    1.9929   -1.4749 H   0  0  0  0  0  0
   -1.4447    2.3372    0.2338 H   0  0  0  0  0  0
   -1.9428    2.9357   -2.1026 H   0  0  0  0  0  0
   -2.4580    1.2648   -2.4400 H   0  0  0  0  0  0
   -3.7442    3.1505   -0.4131 H   0  0  0  0  0  0
   -4.4127    2.7294   -2.0075 H   0  0  0  0  0  0
   -3.5926    1.5409    1.2939 H   0  0  0  0  0  0
   -4.1434   -0.1295    1.0244 H   0  0  0  0  0  0
   -2.2937   -0.4786   -0.5911 H   0  0  0  0  0  0
   -1.6669    0.0070    1.0034 H   0  0  0  0  0  0
   -5.7859    2.2718    0.5563 H   0  0  0  0  0  0
   -6.3720    1.7996   -1.0567 H   0  0  0  0  0  0
   -5.7905    0.6848    2.3937 H   0  0  0  0  0  0
   -6.8239   -1.3309    3.3593 H   0  0  0  0  0  0
   -8.0432   -2.9042    1.9097 H   0  0  0  0  0  0
   -8.2299   -2.4613   -0.5053 H   0  0  0  0  0  0
   -7.2005   -0.4432   -1.4701 H   0  0  0  0  0  0
    0.7877    1.4318    0.8951 H   0  0  0  0  0  0
    0.1964   -0.2243    0.6192 H   0  0  0  0  0  0
    5.2681    2.6174   -0.4964 H   0  0  0  0  0  0
    7.4357    2.0978    0.5405 H   0  0  0  0  0  0
    5.8151   -1.5077    2.1595 H   0  0  0  0  0  0
    3.6388   -1.0006    1.1346 H   0  0  0  0  0  0
    4.2185   -0.6636   -1.4621 H   0  0  0  0  0  0
    4.6182   -2.9772   -2.2000 H   0  0  0  0  0  0
    2.8704   -4.6846   -1.9053 H   0  0  0  0  0  0
    0.7183   -4.0842   -0.8735 H   0  0  0  0  0  0
    0.3108   -1.7748   -0.1265 H   0  0  0  0  0  0
  1  2  1  0  0  0
  1 16  1  0  0  0
  1 33  1  0  0  0
  1 34  1  0  0  0
  2  3  1  0  0  0
  2  8  1  0  0  0
  2 35  1  0  0  0
  3  4  1  0  0  0
  3 36  1  0  0  0
  3 37  1  0  0  0
  4  5  1  0  0  0
  4 38  1  0  0  0
  4 39  1  0  0  0
  5  6  1  0  0  0
  5  7  1  0  0  0
  5  9  1  0  0  0
  7  8  1  0  0  0
  7 40  1  0  0  0
  7 41  1  0  0  0
  8 42  1  0  0  0
  8 43  1  0  0  0
  9 10  1  0  0  0
  9 44  1  0  0  0
  9 45  1  0  0  0
 10 11  2  0  0  0
 10 15  1  0  0  0
 11 12  1  0  0  0
 11 46  1  0  0  0
 12 13  2  0  0  0
 12 47  1  0  0  0
 13 14  1  0  0  0
 13 48  1  0  0  0
 14 15  2  0  0  0
 14 49  1  0  0  0
 15 50  1  0  0  0
 16 17  1  0  0  0
 16 51  1  0  0  0
 16 52  1  0  0  0
 17 18  1  0  0  0
 17 27  1  0  0  0
 18 19  2  0  0  0
 18 20  1  0  0  0
 20 21  2  0  0  0
 20 25  1  0  0  0
 21 22  1  0  0  0
 21 53  1  0  0  0
 22 23  2  0  0  0
 22 54  1  0  0  0
 23 24  1  0  0  0
 23 26  1  0  0  0
 24 25  2  0  0  0
 24 55  1  0  0  0
 25 56  1  0  0  0
 27 28  2  0  0  0
 27 32  1  0  0  0
 28 29  1  0  0  0
 28 57  1  0  0  0
 29 30  2  0  0  0
 29 58  1  0  0  0
 30 31  1  0  0  0
 30 59  1  0  0  0
 31 32  2  0  0  0
 31 60  1  0  0  0
 32 61  1  0  0  0
M  CHG  1   5   1
M  END
>  <Activity>
7.74473

>  <set>
1

>  <Min_dist>
999.9

>  <Avg_dist>
999.9

$$$$
1-3D
  Cerius2 12110214483D 1   1.00000                          
 
 63 66  0  0  0  0  0  0  0  0999 V2000
   -0.7573    1.1976   -1.0660 C   0  0  0  0  0  0
   -2.1166    1.5734   -0.4726 C   0  0  0  0  0  0
   -3.0231    2.1237   -1.5774 C   0  0  0  0  0  0
   -4.4055    2.4229   -0.9934 C   0  0  0  0  0  0
   -4.9879    1.1905   -0.4491 N   0  3  0  0  0  0
   -5.0297    0.4905   -1.1746 H   0  0  0  0  0  0
   -4.1617    0.6961    0.6587 C   0  0  0  0  0  0
   -2.7699    0.3304    0.1384 C   0  0  0  0  0  0
   -6.3448    1.4668    0.0413 C   0  0  0  0  0  0
   -6.9441    0.2023    0.6004 C   0  0  0  0  0  0
   -6.7747   -0.1111    1.9361 C   0  0  0  0  0  0
   -7.3244   -1.2711    2.4490 C   0  0  0  0  0  0
   -8.0439   -2.1175    1.6264 C   0  0  0  0  0  0
   -8.2142   -1.8037    0.2909 C   0  0  0  0  0  0
   -7.6681   -0.6415   -0.2210 C   0  0  0  0  0  0
    0.1471    0.6480    0.0389 C   0  0  0  0  0  0
    1.4487    0.2882   -0.5293 N   0  0  0  0  0  0
    2.4394    1.2007   -0.5753 C   0  0  0  0  0  0
    2.2352    2.2955   -1.0627 O   0  0  0  0  0  0
    3.7743    0.8704   -0.0332 C   0  0  0  0  0  0
    4.8392    1.7565   -0.2042 C   0  0  0  0  0  0
    6.0825    1.4420    0.3042 C   0  0  0  0  0  0
    6.2751    0.2514    0.9823 C   0  0  0  0  0  0
    5.2238   -0.6313    1.1552 C   0  0  0  0  0  0
    3.9741   -0.3265    0.6568 C   0  0  0  0  0  0
    7.6120   -0.0796    1.5246 N   0  3  0  0  0  0
    7.7846   -1.1270    2.1220 O   0  0  0  0  0  0
    8.5395    0.6953    1.3736 O   0  5  0  0  0  0
    1.6630   -1.0022   -1.0239 C   0  0  0  0  0  0
    2.8484   -1.3081   -1.6799 C   0  0  0  0  0  0
    3.0572   -2.5836   -2.1667 C   0  0  0  0  0  0
    2.0876   -3.5556   -2.0016 C   0  0  0  0  0  0
    0.9061   -3.2542   -1.3493 C   0  0  0  0  0  0
    0.6934   -1.9823   -0.8551 C   0  0  0  0  0  0
   -0.8943    0.4375   -1.8351 H   0  0  0  0  0  0
   -0.2964    2.0815   -1.5068 H   0  0  0  0  0  0
   -1.9805    2.3315    0.2987 H   0  0  0  0  0  0
   -2.5916    3.0404   -1.9794 H   0  0  0  0  0  0
   -3.1164    1.3850   -2.3734 H   0  0  0  0  0  0
   -4.3111    3.1619   -0.1977 H   0  0  0  0  0  0
   -5.0534    2.8151   -1.7773 H   0  0  0  0  0  0
   -4.0725    1.4719    1.4192 H   0  0  0  0  0  0
   -4.6296   -0.1866    1.0946 H   0  0  0  0  0  0
   -2.8579   -0.4455   -0.6220 H   0  0  0  0  0  0
   -2.1574   -0.0347    0.9628 H   0  0  0  0  0  0
   -6.3011    2.2249    0.8233 H   0  0  0  0  0  0
   -6.9618    1.8285   -0.7813 H   0  0  0  0  0  0
   -6.2125    0.5501    2.5788 H   0  0  0  0  0  0
   -7.1914   -1.5163    3.4924 H   0  0  0  0  0  0
   -8.4728   -3.0242    2.0269 H   0  0  0  0  0  0
   -8.7761   -2.4651   -0.3519 H   0  0  0  0  0  0
   -7.8012   -0.3963   -1.2644 H   0  0  0  0  0  0
    0.2841    1.4082    0.8080 H   0  0  0  0  0  0
   -0.3138   -0.2359    0.4797 H   0  0  0  0  0  0
    4.6903    2.6860   -0.7335 H   0  0  0  0  0  0
    6.9074    2.1265    0.1724 H   0  0  0  0  0  0
    5.3809   -1.5592    1.6851 H   0  0  0  0  0  0
    3.1542   -1.0162    0.7928 H   0  0  0  0  0  0
    3.6059   -0.5493   -1.8095 H   0  0  0  0  0  0
    3.9786   -2.8220   -2.6773 H   0  0  0  0  0  0
    2.2533   -4.5523   -2.3833 H   0  0  0  0  0  0
    0.1507   -4.0156   -1.2223 H   0  0  0  0  0  0
   -0.2295   -1.7475   -0.3457 H   0  0  0  0  0  0
  1  2  1  0  0  0
  1 16  1  0  0  0
  1 35  1  0  0  0
  1 36  1  0  0  0
  2  3  1  0  0  0
  2  8  1  0  0  0
  2 37  1  0  0  0
  3  4  1  0  0  0
  3 38  1  0  0  0
  3 39  1  0  0  0
  4  5  1  0  0  0
  4 40  1  0  0  0
  4 41  1  0  0  0
  5  6  1  0  0  0
  5  7  1  0  0  0
  5  9  1  0  0  0
  7  8  1  0  0  0
  7 42  1  0  0  0
  7 43  1  0  0  0
  8 44  1  0  0  0
  8 45  1  0  0  0
  9 10  1  0  0  0
  9 46  1  0  0  0
  9 47  1  0  0  0
 10 11  2  0  0  0
 10 15  1  0  0  0
 11 12  1  0  0  0
 11 48  1  0  0  0
 12 13  2  0  0  0
 12 49  1  0  0  0
 13 14  1  0  0  0
 13 50  1  0  0  0
 14 15  2  0  0  0
 14 51  1  0  0  0
 15 52  1  0  0  0
 16 17  1  0  0  0
 16 53  1  0  0  0
 16 54  1  0  0  0
 17 18  1  0  0  0
 17 29  1  0  0  0
 18 19  2  0  0  0
 18 20  1  0  0  0
 20 21  2  0  0  0
 20 25  1  0  0  0
 21 22  1  0  0  0
 21 55  1  0  0  0
 22 23  2  0  0  0
 22 56  1  0  0  0
 23 24  1  0  0  0
 23 26  1  0  0  0
 24 25  2  0  0  0
 24 57  1  0  0  0
 25 58  1  0  0  0
 26 27  2  0  0  0
 26 28  1  0  0  0
 29 30  2  0  0  0
 29 34  1  0  0  0
 30 31  1  0  0  0
 30 59  1  0  0  0
 31 32  2  0  0  0
 31 60  1  0  0  0
 32 33  1  0  0  0
 32 61  1  0  0  0
 33 34  2  0  0  0
 33 62  1  0  0  0
 34 63  1  0  0  0
M  CHG  3   5   1  26   1  28  -1
M  END
>  <Activity>
8.26761

>  <set>
1

>  <Min_dist>
999.9

>  <Avg_dist>
999.9

$$$$
1-3F
  Cerius2 12110214483D 1   1.00000                          
 
 67 70  0  0  0  0  0  0  0  0999 V2000
    0.7019    0.0101   -0.9171 C   0  0  0  0  0  0
   -0.6180    0.7651   -0.7476 C   0  0  0  0  0  0
   -1.2891    0.9363   -2.1134 C   0  0  0  0  0  0
   -2.6448    1.6212   -1.9272 C   0  0  0  0  0  0
   -3.4977    0.7986   -1.0609 N   0  3  0  0  0  0
   -3.5936   -0.1224   -1.4617 H   0  0  0  0  0  0
   -2.8950    0.6897    0.2730 C   0  0  0  0  0  0
   -1.5490   -0.0309    0.1715 C   0  0  0  0  0  0
   -4.8230    1.4218   -0.9469 C   0  0  0  0  0  0
   -5.6999    0.5783   -0.0577 C   0  0  0  0  0  0
   -5.7291    0.8100    1.3048 C   0  0  0  0  0  0
   -6.5334    0.0362    2.1204 C   0  0  0  0  0  0
   -7.3089   -0.9689    1.5736 C   0  0  0  0  0  0
   -7.2804   -1.2001    0.2110 C   0  0  0  0  0  0
   -6.4794   -0.4235   -0.6052 C   0  0  0  0  0  0
    1.3711   -0.1601    0.4482 C   0  0  0  0  0  0
    2.6666   -0.8226    0.2779 N   0  0  0  0  0  0
    3.8017   -0.0959    0.2889 C   0  0  0  0  0  0
    4.8573   -0.6156   -0.0052 O   0  0  0  0  0  0
    3.7591    1.3624    0.6666 C   0  0  0  0  0  0
    5.1806    1.8623    0.9316 C   0  0  0  0  0  0
    5.1374    3.3428    1.3150 C   0  0  0  0  0  0
    4.5187    4.1481    0.1707 C   0  0  0  0  0  0
    3.0971    3.6483   -0.0943 C   0  0  0  0  0  0
    3.1403    2.1677   -0.4778 C   0  0  0  0  0  0
    2.7256   -2.2097    0.1037 C   0  0  0  0  0  0
    3.9321   -2.8207   -0.2117 C   0  0  0  0  0  0
    3.9870   -4.1901   -0.3830 C   0  0  0  0  0  0
    2.8421   -4.9525   -0.2412 C   0  0  0  0  0  0
    1.6391   -4.3471    0.0724 C   0  0  0  0  0  0
    1.5789   -2.9789    0.2515 C   0  0  0  0  0  0
    0.5063   -0.9707   -1.3507 H   0  0  0  0  0  0
    1.3610    0.5741   -1.5770 H   0  0  0  0  0  0
   -0.4239    1.7451   -0.3114 H   0  0  0  0  0  0
   -0.6567    1.5495   -2.7554 H   0  0  0  0  0  0
   -1.4353   -0.0415   -2.5722 H   0  0  0  0  0  0
   -2.4975    2.5989   -1.4685 H   0  0  0  0  0  0
   -3.1252    1.7448   -2.8977 H   0  0  0  0  0  0
   -2.7424    1.6874    0.6848 H   0  0  0  0  0  0
   -3.5602    0.1257    0.9268 H   0  0  0  0  0  0
   -1.7005   -1.0289   -0.2399 H   0  0  0  0  0  0
   -1.1023   -0.1092    1.1627 H   0  0  0  0  0  0
   -4.7203    2.4179   -0.5164 H   0  0  0  0  0  0
   -5.2749    1.4982   -1.9358 H   0  0  0  0  0  0
   -5.1232    1.5953    1.7321 H   0  0  0  0  0  0
   -6.5556    0.2168    3.1850 H   0  0  0  0  0  0
   -7.9367   -1.5739    2.2109 H   0  0  0  0  0  0
   -7.8860   -1.9856   -0.2163 H   0  0  0  0  0  0
   -6.4572   -0.6040   -1.6698 H   0  0  0  0  0  0
    1.5206    0.8186    0.9041 H   0  0  0  0  0  0
    0.7344   -0.7673    1.0918 H   0  0  0  0  0  0
    3.1564    1.4873    1.5661 H   0  0  0  0  0  0
    5.6215    1.2885    1.7468 H   0  0  0  0  0  0
    5.7833    1.7374    0.0320 H   0  0  0  0  0  0
    4.5347    3.4677    2.2146 H   0  0  0  0  0  0
    6.1502    3.6989    1.5038 H   0  0  0  0  0  0
    4.4879    5.2029    0.4439 H   0  0  0  0  0  0
    5.1214    4.0232   -0.7289 H   0  0  0  0  0  0
    2.4944    3.7732    0.8053 H   0  0  0  0  0  0
    2.6563    4.2220   -0.9096 H   0  0  0  0  0  0
    3.7430    2.0428   -1.3774 H   0  0  0  0  0  0
    2.1276    1.8116   -0.6666 H   0  0  0  0  0  0
    4.8265   -2.2257   -0.3233 H   0  0  0  0  0  0
    4.9250   -4.6658   -0.6283 H   0  0  0  0  0  0
    2.8876   -6.0231   -0.3760 H   0  0  0  0  0  0
    0.7466   -4.9452    0.1818 H   0  0  0  0  0  0
    0.6391   -2.5067    0.4968 H   0  0  0  0  0  0
  1  2  1  0  0  0
  1 16  1  0  0  0
  1 32  1  0  0  0
  1 33  1  0  0  0
  2  3  1  0  0  0
  2  8  1  0  0  0
  2 34  1  0  0  0
  3  4  1  0  0  0
  3 35  1  0  0  0
  3 36  1  0  0  0
  4  5  1  0  0  0
  4 37  1  0  0  0
  4 38  1  0  0  0
  5  6  1  0  0  0
  5  7  1  0  0  0
  5  9  1  0  0  0
  7  8  1  0  0  0
  7 39  1  0  0  0
  7 40  1  0  0  0
  8 41  1  0  0  0
  8 42  1  0  0  0
  9 10  1  0  0  0
  9 43  1  0  0  0
  9 44  1  0  0  0
 10 11  2  0  0  0
 10 15  1  0  0  0
 11 12  1  0  0  0
 11 45  1  0  0  0
 12 13  2  0  0  0
 12 46  1  0  0  0
 13 14  1  0  0  0
 13 47  1  0  0  0
 14 15  2  0  0  0
 14 48  1  0  0  0
 15 49  1  0  0  0
 16 17  1  0  0  0
 16 50  1  0  0  0
 16 51  1  0  0  0
 17 18  1  0  0  0
 17 26  1  0  0  0
 18 19  2  0  0  0
 18 20  1  0  0  0
 20 21  1  0  0  0
 20 25  1  0  0  0
 20 52  1  0  0  0
 21 22  1  0  0  0
 21 53  1  0  0  0
 21 54  1  0  0  0
 22 23  1  0  0  0
 22 55  1  0  0  0
 22 56  1  0  0  0
 23 24  1  0  0  0
 23 57  1  0  0  0
 23 58  1  0  0  0
 24 25  1  0  0  0
 24 59  1  0  0  0
 24 60  1  0  0  0
 25 61  1  0  0  0
 25 62  1  0  0  0
 26 27  2  0  0  0
 26 31  1  0  0  0
 27 28  1  0  0  0
 27 63  1  0  0  0
 28 29  2  0  0  0
 28 64  1  0  0  0
 29 30  1  0  0  0
 29 65  1  0  0  0
 30 31  2  0  0  0
 30 66  1  0  0  0
 31 67  1  0  0  0
M  CHG  1   5   1
M  END
>  <Activity>
5.02687

>  <set>
1

>  <Min_dist>
999.9

>  <Avg_dist>
999.9

$$$$
1-3G
  Cerius2 12110214483D 1   1.00000                          
 
 54 56  0  0  0  0  0  0  0  0999 V2000
    1.3674    1.3240   -0.4647 C   0  0  0  0  0  0
   -0.0940    1.6340   -0.1343 C   0  0  0  0  0  0
   -0.7935    2.1897   -1.3781 C   0  0  0  0  0  0
   -2.2728    2.4227   -1.0634 C   0  0  0  0  0  0
   -2.8995    1.1539   -0.6735 N   0  3  0  0  0  0
   -2.7741    0.4773   -1.4114 H   0  0  0  0  0  0
   -2.2816    0.6513    0.5594 C   0  0  0  0  0  0
   -0.8027    0.3502    0.3071 C   0  0  0  0  0  0
   -4.3349    1.3681   -0.4462 C   0  0  0  0  0  0
   -4.9798    0.0662   -0.0458 C   0  0  0  0  0  0
   -5.0567   -0.2853    1.2889 C   0  0  0  0  0  0
   -5.6482   -1.4795    1.6561 C   0  0  0  0  0  0
   -6.1632   -2.3220    0.6887 C   0  0  0  0  0  0
   -6.0872   -1.9701   -0.6459 C   0  0  0  0  0  0
   -5.4995   -0.7738   -1.0129 C   0  0  0  0  0  0
    2.0648    0.7690    0.7789 C   0  0  0  0  0  0
    3.4641    0.4722    0.4625 N   0  0  0  0  0  0
    4.3907    1.4489    0.5240 C   0  0  0  0  0  0
    5.5236    1.2347    0.1477 O   0  0  0  0  0  0
    4.0191    2.8074    1.0604 C   0  0  0  0  0  0
    3.8386   -0.8254    0.0964 C   0  0  0  0  0  0
    5.1819   -1.1485   -0.0438 C   0  0  0  0  0  0
    5.5482   -2.4302   -0.4053 C   0  0  0  0  0  0
    4.5790   -3.3910   -0.6280 C   0  0  0  0  0  0
    3.2406   -3.0723   -0.4898 C   0  0  0  0  0  0
    2.8679   -1.7942   -0.1220 C   0  0  0  0  0  0
    1.4101    0.5856   -1.2653 H   0  0  0  0  0  0
    1.8689    2.2371   -0.7854 H   0  0  0  0  0  0
   -0.1380    2.3703    0.6682 H   0  0  0  0  0  0
   -0.3296    3.1332   -1.6656 H   0  0  0  0  0  0
   -0.7036    1.4750   -2.1961 H   0  0  0  0  0  0
   -2.3615    3.1377   -0.2454 H   0  0  0  0  0  0
   -2.7737    2.8185   -1.9468 H   0  0  0  0  0  0
   -2.3701    1.4041    1.3427 H   0  0  0  0  0  0
   -2.7890   -0.2606    0.8740 H   0  0  0  0  0  0
   -0.7129   -0.4027   -0.4759 H   0  0  0  0  0  0
   -0.3452   -0.0212    1.2242 H   0  0  0  0  0  0
   -4.4715    2.1009    0.3490 H   0  0  0  0  0  0
   -4.7970    1.7358   -1.3624 H   0  0  0  0  0  0
   -4.6543    0.3729    2.0447 H   0  0  0  0  0  0
   -5.7076   -1.7545    2.6988 H   0  0  0  0  0  0
   -6.6247   -3.2553    0.9756 H   0  0  0  0  0  0
   -6.4892   -2.6284   -1.4018 H   0  0  0  0  0  0
   -5.4401   -0.4989   -2.0556 H   0  0  0  0  0  0
    2.0220    1.5074    1.5795 H   0  0  0  0  0  0
    1.5632   -0.1441    1.0996 H   0  0  0  0  0  0
    2.9475    2.8396    1.2571 H   0  0  0  0  0  0
    4.5642    2.9942    1.9856 H   0  0  0  0  0  0
    4.2768    3.5708    0.3263 H   0  0  0  0  0  0
    5.9392   -0.3983    0.1294 H   0  0  0  0  0  0
    6.5927   -2.6821   -0.5144 H   0  0  0  0  0  0
    4.8681   -4.3924   -0.9110 H   0  0  0  0  0  0
    2.4860   -3.8248   -0.6651 H   0  0  0  0  0  0
    1.8224   -1.5460   -0.0139 H   0  0  0  0  0  0
  1  2  1  0  0  0
  1 16  1  0  0  0
  1 27  1  0  0  0
  1 28  1  0  0  0
  2  3  1  0  0  0
  2  8  1  0  0  0
  2 29  1  0  0  0
  3  4  1  0  0  0
  3 30  1  0  0  0
  3 31  1  0  0  0
  4  5  1  0  0  0
  4 32  1  0  0  0
  4 33  1  0  0  0
  5  6  1  0  0  0
  5  7  1  0  0  0
  5  9  1  0  0  0
  7  8  1  0  0  0
  7 34  1  0  0  0
  7 35  1  0  0  0
  8 36  1  0  0  0
  8 37  1  0  0  0
  9 10  1  0  0  0
  9 38  1  0  0  0
  9 39  1  0  0  0
 10 11  2  0  0  0
 10 15  1  0  0  0
 11 12  1  0  0  0
 11 40  1  0  0  0
 12 13  2  0  0  0
 12 41  1  0  0  0
 13 14  1  0  0  0
 13 42  1  0  0  0
 14 15  2  0  0  0
 14 43  1  0  0  0
 15 44  1  0  0  0
 16 17  1  0  0  0
 16 45  1  0  0  0
 16 46  1  0  0  0
 17 18  1  0  0  0
 17 21  1  0  0  0
 18 19  2  0  0  0
 18 20  1  0  0  0
 20 47  1  0  0  0
 20 48  1  0  0  0
 20 49  1  0  0  0
 21 22  2  0  0  0
 21 26  1  0  0  0
 22 23  1  0  0  0
 22 50  1  0  0  0
 23 24  2  0  0  0
 23 51  1  0  0  0
 24 25  1  0  0  0
 24 52  1  0  0  0
 25 26  2  0  0  0
 25 53  1  0  0  0
 26 54  1  0  0  0
M  CHG  1   5   1
M  END
>  <Activity>
7.284

>  <set>
1

>  <Min_dist>
999.9

>  <Avg_dist>
999.9

$$$$
1-3H
  Cerius2 12110214483D 1   1.00000                          
 
 57 59  0  0  0  0  0  0  0  0999 V2000
    1.2180    1.0530   -0.5809 C   0  0  0  0  0  0
   -0.2207    1.4719   -0.2717 C   0  0  0  0  0  0
   -0.8994    1.9587   -1.5554 C   0  0  0  0  0  0
   -2.3604    2.3007   -1.2552 C   0  0  0  0  0  0
   -3.0535    1.1070   -0.7559 N   0  3  0  0  0  0
   -2.9729    0.3642   -1.4339 H   0  0  0  0  0  0
   -2.4534    0.6768    0.5127 C   0  0  0  0  0  0
   -0.9960    0.2723    0.2806 C   0  0  0  0  0  0
   -4.4726    1.4204   -0.5414 C   0  0  0  0  0  0
   -5.1855    0.1957   -0.0287 C   0  0  0  0  0  0
   -5.2697   -0.0364    1.3314 C   0  0  0  0  0  0
   -5.9237   -1.1598    1.8018 C   0  0  0  0  0  0
   -6.4938   -2.0509    0.9120 C   0  0  0  0  0  0
   -6.4104   -1.8184   -0.4481 C   0  0  0  0  0  0
   -5.7602   -0.6927   -0.9183 C   0  0  0  0  0  0
    1.8946    0.5670    0.7024 C   0  0  0  0  0  0
    3.2722    0.1659    0.4064 N   0  0  0  0  0  0
    4.2696    1.0684    0.4901 C   0  0  0  0  0  0
    5.4201    0.7168    0.3365 O   0  0  0  0  0  0
    3.9553    2.5146    0.7745 C   0  0  0  0  0  0
    5.2553    3.3202    0.8170 C   0  0  0  0  0  0
    3.5524   -1.1542    0.0367 C   0  0  0  0  0  0
    3.6290   -1.4995   -1.3062 C   0  0  0  0  0  0
    3.9057   -2.8034   -1.6677 C   0  0  0  0  0  0
    4.1059   -3.7648   -0.6942 C   0  0  0  0  0  0
    4.0298   -3.4243    0.6439 C   0  0  0  0  0  0
    3.7600   -2.1208    1.0121 C   0  0  0  0  0  0
    1.2120    0.2480   -1.3158 H   0  0  0  0  0  0
    1.7668    1.9058   -0.9805 H   0  0  0  0  0  0
   -0.2161    2.2750    0.4652 H   0  0  0  0  0  0
   -0.3861    2.8466   -1.9243 H   0  0  0  0  0  0
   -0.8571    1.1731   -2.3099 H   0  0  0  0  0  0
   -2.4016    3.0864   -0.5009 H   0  0  0  0  0  0
   -2.8466    2.6477   -2.1670 H   0  0  0  0  0  0
   -2.4926    1.4971    1.2294 H   0  0  0  0  0  0
   -3.0081   -0.1750    0.9061 H   0  0  0  0  0  0
   -0.9556   -0.5483   -0.4358 H   0  0  0  0  0  0
   -0.5516   -0.0452    1.2239 H   0  0  0  0  0  0
   -4.5607    2.2246    0.1890 H   0  0  0  0  0  0
   -4.9217    1.7344   -1.4836 H   0  0  0  0  0  0
   -4.8243    0.6598    2.0266 H   0  0  0  0  0  0
   -5.9888   -1.3414    2.8644 H   0  0  0  0  0  0
   -7.0041   -2.9290    1.2794 H   0  0  0  0  0  0
   -6.8555   -2.5148   -1.1433 H   0  0  0  0  0  0
   -5.6950   -0.5111   -1.9809 H   0  0  0  0  0  0
    1.9005    1.3720    1.4373 H   0  0  0  0  0  0
    1.3458   -0.2857    1.1020 H   0  0  0  0  0  0
    3.3099    2.9075   -0.0112 H   0  0  0  0  0  0
    3.4472    2.5938    1.7355 H   0  0  0  0  0  0
    5.0280    4.3662    1.0227 H   0  0  0  0  0  0
    5.9007    2.9274    1.6026 H   0  0  0  0  0  0
    5.7634    3.2411   -0.1441 H   0  0  0  0  0  0
    3.4720   -0.7492   -2.0670 H   0  0  0  0  0  0
    3.9654   -3.0726   -2.7120 H   0  0  0  0  0  0
    4.3218   -4.7838   -0.9795 H   0  0  0  0  0  0
    4.1860   -4.1776    1.4019 H   0  0  0  0  0  0
    3.7011   -1.8554    2.0573 H   0  0  0  0  0  0
  1  2  1  0  0  0
  1 16  1  0  0  0
  1 28  1  0  0  0
  1 29  1  0  0  0
  2  3  1  0  0  0
  2  8  1  0  0  0
  2 30  1  0  0  0
  3  4  1  0  0  0
  3 31  1  0  0  0
  3 32  1  0  0  0
  4  5  1  0  0  0
  4 33  1  0  0  0
  4 34  1  0  0  0
  5  6  1  0  0  0
  5  7  1  0  0  0
  5  9  1  0  0  0
  7  8  1  0  0  0
  7 35  1  0  0  0
  7 36  1  0  0  0
  8 37  1  0  0  0
  8 38  1  0  0  0
  9 10  1  0  0  0
  9 39  1  0  0  0
  9 40  1  0  0  0
 10 11  2  0  0  0
 10 15  1  0  0  0
 11 12  1  0  0  0
 11 41  1  0  0  0
 12 13  2  0  0  0
 12 42  1  0  0  0
 13 14  1  0  0  0
 13 43  1  0  0  0
 14 15  2  0  0  0
 14 44  1  0  0  0
 15 45  1  0  0  0
 16 17  1  0  0  0
 16 46  1  0  0  0
 16 47  1  0  0  0
 17 18  1  0  0  0
 17 22  1  0  0  0
 18 19  2  0  0  0
 18 20  1  0  0  0
 20 21  1  0  0  0
 20 48  1  0  0  0
 20 49  1  0  0  0
 21 50  1  0  0  0
 21 51  1  0  0  0
 21 52  1  0  0  0
 22 23  2  0  0  0
 22 27  1  0  0  0
 23 24  1  0  0  0
 23 53  1  0  0  0
 24 25  2  0  0  0
 24 54  1  0  0  0
 25 26  1  0  0  0
 25 55  1  0  0  0
 26 27  2  0  0  0
 26 56  1  0  0  0
 27 57  1  0  0  0
M  CHG  1   5   1
M  END
>  <Activity>
6.08092

>  <set>
1

>  <Min_dist>
999.9

>  <Avg_dist>
999.9

$$$$
1-3I
  Cerius2 12110214483D 1   1.00000                          
 
 58 60  0  0  0  0  0  0  0  0999 V2000
    0.6192    1.6687   -0.4787 C   0  0  0  0  0  0
   -0.8752    1.8212   -0.1886 C   0  0  0  0  0  0
   -1.6075    2.2243   -1.4718 C   0  0  0  0  0  0
   -3.1103    2.2975   -1.1934 C   0  0  0  0  0  0
   -3.5929    0.9861   -0.7443 N   0  3  0  0  0  0
   -3.3732    0.2910   -1.4420 H   0  0  0  0  0  0
   -2.9476    0.6254    0.5237 C   0  0  0  0  0  0
   -1.4385    0.4878    0.3114 C   0  0  0  0  0  0
   -5.0482    1.0412   -0.5516 C   0  0  0  0  0  0
   -5.5451   -0.3047   -0.0905 C   0  0  0  0  0  0
   -5.6096   -0.5921    1.2602 C   0  0  0  0  0  0
   -6.0654   -1.8267    1.6831 C   0  0  0  0  0  0
   -6.4572   -2.7738    0.7555 C   0  0  0  0  0  0
   -6.3935   -2.4861   -0.5951 C   0  0  0  0  0  0
   -5.9418   -1.2499   -1.0179 C   0  0  0  0  0  0
    1.3493    1.2659    0.8041 C   0  0  0  0  0  0
    2.7803    1.1199    0.5263 N   0  0  0  0  0  0
    3.5849    2.2009    0.5487 C   0  0  0  0  0  0
    4.7430    2.1022    0.2024 O   0  0  0  0  0  0
    3.0454    3.5324    1.0040 C   0  0  0  0  0  0
    3.3117   -0.1419    0.2378 C   0  0  0  0  0  0
    2.4651   -1.2270    0.0519 C   0  0  0  0  0  0
    2.9899   -2.4730   -0.2330 C   0  0  0  0  0  0
    4.3574   -2.6429   -0.3337 C   0  0  0  0  0  0
    5.2084   -1.5620   -0.1488 C   0  0  0  0  0  0
    4.6854   -0.3095    0.1314 C   0  0  0  0  0  0
    6.5532   -1.7306   -0.2481 O   0  0  0  0  0  0
    6.7756   -3.1103   -0.5465 C   0  0  0  0  0  0
    0.7655    0.8993   -1.2368 H   0  0  0  0  0  0
    1.0176    2.6163   -0.8412 H   0  0  0  0  0  0
   -1.0225    2.5884    0.5715 H   0  0  0  0  0  0
   -1.2508    3.1995   -1.8033 H   0  0  0  0  0  0
   -1.4167    1.4831   -2.2479 H   0  0  0  0  0  0
   -3.3000    3.0392   -0.4174 H   0  0  0  0  0  0
   -3.6347    2.5845   -2.1049 H   0  0  0  0  0  0
   -3.1407    1.4026    1.2631 H   0  0  0  0  0  0
   -3.3519   -0.3222    0.8800 H   0  0  0  0  0  0
   -1.2443   -0.2895   -0.4276 H   0  0  0  0  0  0
   -0.9610    0.2217    1.2545 H   0  0  0  0  0  0
   -5.2869    1.7936    0.2001 H   0  0  0  0  0  0
   -5.5298    1.3031   -1.4936 H   0  0  0  0  0  0
   -5.3036    0.1478    1.9849 H   0  0  0  0  0  0
   -6.1152   -2.0515    2.7383 H   0  0  0  0  0  0
   -6.8126   -3.7386    1.0859 H   0  0  0  0  0  0
   -6.6992   -3.2261   -1.3199 H   0  0  0  0  0  0
   -5.8920   -1.0251   -2.0731 H   0  0  0  0  0  0
    1.2030    2.0353    1.5623 H   0  0  0  0  0  0
    0.9510    0.3183    1.1666 H   0  0  0  0  0  0
    1.9734    3.4484    1.1820 H   0  0  0  0  0  0
    3.5446    3.8306    1.9259 H   0  0  0  0  0  0
    3.2282    4.2812    0.2333 H   0  0  0  0  0  0
    1.3958   -1.0970    0.1303 H   0  0  0  0  0  0
    2.3300   -3.3158   -0.3769 H   0  0  0  0  0  0
    4.7648   -3.6181   -0.5561 H   0  0  0  0  0  0
    5.3460    0.5327    0.2756 H   0  0  0  0  0  0
    7.8461   -3.2947   -0.6360 H   0  0  0  0  0  0
    6.3666   -3.7258    0.2548 H   0  0  0  0  0  0
    6.2836   -3.3628   -1.4858 H   0  0  0  0  0  0
  1  2  1  0  0  0
  1 16  1  0  0  0
  1 29  1  0  0  0
  1 30  1  0  0  0
  2  3  1  0  0  0
  2  8  1  0  0  0
  2 31  1  0  0  0
  3  4  1  0  0  0
  3 32  1  0  0  0
  3 33  1  0  0  0
  4  5  1  0  0  0
  4 34  1  0  0  0
  4 35  1  0  0  0
  5  6  1  0  0  0
  5  7  1  0  0  0
  5  9  1  0  0  0
  7  8  1  0  0  0
  7 36  1  0  0  0
  7 37  1  0  0  0
  8 38  1  0  0  0
  8 39  1  0  0  0
  9 10  1  0  0  0
  9 40  1  0  0  0
  9 41  1  0  0  0
 10 11  2  0  0  0
 10 15  1  0  0  0
 11 12  1  0  0  0
 11 42  1  0  0  0
 12 13  2  0  0  0
 12 43  1  0  0  0
 13 14  1  0  0  0
 13 44  1  0  0  0
 14 15  2  0  0  0
 14 45  1  0  0  0
 15 46  1  0  0  0
 16 17  1  0  0  0
 16 47  1  0  0  0
 16 48  1  0  0  0
 17 18  1  0  0  0
 17 21  1  0  0  0
 18 19  2  0  0  0
 18 20  1  0  0  0
 20 49  1  0  0  0
 20 50  1  0  0  0
 20 51  1  0  0  0
 21 22  2  0  0  0
 21 26  1  0  0  0
 22 23  1  0  0  0
 22 52  1  0  0  0
 23 24  2  0  0  0
 23 53  1  0  0  0
 24 25  1  0  0  0
 24 54  1  0  0  0
 25 26  2  0  0  0
 25 27  1  0  0  0
 26 55  1  0  0  0
 27 28  1  0  0  0
 28 56  1  0  0  0
 28 57  1  0  0  0
 28 58  1  0  0  0
M  CHG  1   5   1
M  END
>  <Activity>
7.33724

>  <set>
1

>  <Min_dist>
999.9

>  <Avg_dist>
999.9

$$$$
1-3L
  Cerius2 12110214483D 1   1.00000                          
 
 54 56  0  0  0  0  0  0  0  0999 V2000
    0.9880    1.6213   -0.4989 C   0  0  0  0  0  0
   -0.4991    1.8255   -0.2029 C   0  0  0  0  0  0
   -1.2239    2.2437   -1.4854 C   0  0  0  0  0  0
   -2.7221    2.3688   -1.2005 C   0  0  0  0  0  0
   -3.2458    1.0774   -0.7396 N   0  3  0  0  0  0
   -3.0527    0.3704   -1.4332 H   0  0  0  0  0  0
   -2.6065    0.7044    0.5280 C   0  0  0  0  0  0
   -1.1039    0.5152    0.3095 C   0  0  0  0  0  0
   -4.6974    1.1822   -0.5404 C   0  0  0  0  0  0
   -5.2365   -0.1431   -0.0671 C   0  0  0  0  0  0
   -5.3038   -0.4186    1.2858 C   0  0  0  0  0  0
   -5.7983   -1.6343    1.7199 C   0  0  0  0  0  0
   -6.2259   -2.5744    0.8010 C   0  0  0  0  0  0
   -6.1594   -2.2986   -0.5519 C   0  0  0  0  0  0
   -5.6690   -1.0812   -0.9858 C   0  0  0  0  0  0
    1.7107    1.2037    0.7834 C   0  0  0  0  0  0
    3.1346    1.0081    0.4999 N   0  0  0  0  0  0
    3.9747    2.0620    0.5105 C   0  0  0  0  0  0
    5.1273    1.9223    0.1595 O   0  0  0  0  0  0
    3.4821    3.4139    0.9585 C   0  0  0  0  0  0
    3.6228   -0.2736    0.2178 C   0  0  0  0  0  0
    4.9904   -0.4889    0.1115 C   0  0  0  0  0  0
    5.4699   -1.7540   -0.1662 C   0  0  0  0  0  0
    4.5877   -2.8073   -0.3387 C   0  0  0  0  0  0
    3.2235   -2.5948   -0.2330 C   0  0  0  0  0  0
    2.7402   -1.3323    0.0498 C   0  0  0  0  0  0
    5.0587   -4.0440   -0.6107 F   0  0  0  0  0  0
    1.1049    0.8421   -1.2521 H   0  0  0  0  0  0
    1.4158    2.5526   -0.8702 H   0  0  0  0  0  0
   -0.6171    2.6026    0.5523 H   0  0  0  0  0  0
   -0.8367    3.2040   -1.8258 H   0  0  0  0  0  0
   -1.0618    1.4910   -2.2570 H   0  0  0  0  0  0
   -2.8831    3.1218   -0.4291 H   0  0  0  0  0  0
   -3.2412    2.6666   -2.1116 H   0  0  0  0  0  0
   -2.7700    1.4929    1.2626 H   0  0  0  0  0  0
   -3.0402   -0.2266    0.8930 H   0  0  0  0  0  0
   -0.9393   -0.2733   -0.4248 H   0  0  0  0  0  0
   -0.6308    0.2401    1.2522 H   0  0  0  0  0  0
   -4.9072    1.9475    0.2069 H   0  0  0  0  0  0
   -5.1748    1.4533   -1.4820 H   0  0  0  0  0  0
   -4.9698    0.3159    2.0037 H   0  0  0  0  0  0
   -5.8502   -1.8497    2.7769 H   0  0  0  0  0  0
   -6.6115   -3.5245    1.1402 H   0  0  0  0  0  0
   -6.4931   -3.0332   -1.2698 H   0  0  0  0  0  0
   -5.6170   -0.8657   -2.0428 H   0  0  0  0  0  0
    1.5938    1.9829    1.5365 H   0  0  0  0  0  0
    1.2829    0.2724    1.1546 H   0  0  0  0  0  0
    2.4087    3.3669    1.1422 H   0  0  0  0  0  0
    3.9954    3.7019    1.8760 H   0  0  0  0  0  0
    3.6858    4.1506    0.1815 H   0  0  0  0  0  0
    5.6787    0.3325    0.2456 H   0  0  0  0  0  0
    6.5335   -1.9217   -0.2494 H   0  0  0  0  0  0
    2.5371   -3.4176   -0.3682 H   0  0  0  0  0  0
    1.6761   -1.1669    0.1321 H   0  0  0  0  0  0
  1  2  1  0  0  0
  1 16  1  0  0  0
  1 28  1  0  0  0
  1 29  1  0  0  0
  2  3  1  0  0  0
  2  8  1  0  0  0
  2 30  1  0  0  0
  3  4  1  0  0  0
  3 31  1  0  0  0
  3 32  1  0  0  0
  4  5  1  0  0  0
  4 33  1  0  0  0
  4 34  1  0  0  0
  5  6  1  0  0  0
  5  7  1  0  0  0
  5  9  1  0  0  0
  7  8  1  0  0  0
  7 35  1  0  0  0
  7 36  1  0  0  0
  8 37  1  0  0  0
  8 38  1  0  0  0
  9 10  1  0  0  0
  9 39  1  0  0  0
  9 40  1  0  0  0
 10 11  2  0  0  0
 10 15  1  0  0  0
 11 12  1  0  0  0
 11 41  1  0  0  0
 12 13  2  0  0  0
 12 42  1  0  0  0
 13 14  1  0  0  0
 13 43  1  0  0  0
 14 15  2  0  0  0
 14 44  1  0  0  0
 15 45  1  0  0  0
 16 17  1  0  0  0
 16 46  1  0  0  0
 16 47  1  0  0  0
 17 18  1  0  0  0
 17 21  1  0  0  0
 18 19  2  0  0  0
 18 20  1  0  0  0
 20 48  1  0  0  0
 20 49  1  0  0  0
 20 50  1  0  0  0
 21 22  2  0  0  0
 21 26  1  0  0  0
 22 23  1  0  0  0
 22 51  1  0  0  0
 23 24  2  0  0  0
 23 52  1  0  0  0
 24 25  1  0  0  0
 24 27  1  0  0  0
 25 26  2  0  0  0
 25 53  1  0  0  0
 26 54  1  0  0  0
M  CHG  1   5   1
M  END
>  <Activity>
6.68825

>  <set>
1

>  <Min_dist>
999.9

>  <Avg_dist>
999.9

$$$$
1-3M
  Cerius2 12110214483D 1   1.00000                          
 
 55 57  0  0  0  0  0  0  0  0999 V2000
    1.5180    1.4437   -0.5469 C   0  0  0  0  0  0
    0.0491    1.7283   -0.2274 C   0  0  0  0  0  0
   -0.6714    2.1893   -1.4976 C   0  0  0  0  0  0
   -2.1559    2.3957   -1.1892 C   0  0  0  0  0  0
   -2.7424    1.1335   -0.7229 N   0  3  0  0  0  0
   -2.5992    0.4191   -1.4209 H   0  0  0  0  0  0
   -2.1052    0.7224    0.5338 C   0  0  0  0  0  0
   -0.6187    0.4517    0.2917 C   0  0  0  0  0  0
   -4.1829    1.3172   -0.5009 C   0  0  0  0  0  0
   -4.7866    0.0221   -0.0221 C   0  0  0  0  0  0
   -4.8481   -0.2532    1.3312 C   0  0  0  0  0  0
   -5.4018   -1.4412    1.7704 C   0  0  0  0  0  0
   -5.8944   -2.3537    0.8563 C   0  0  0  0  0  0
   -5.8338   -2.0780   -0.4969 C   0  0  0  0  0  0
   -5.2840   -0.8881   -0.9359 C   0  0  0  0  0  0
    2.2363    0.9833    0.7231 C   0  0  0  0  0  0
    3.6428    0.7108    0.4171 N   0  0  0  0  0  0
    4.6385    1.7789    0.5353 C   0  0  0  0  0  0
    5.2759    1.7304    1.9254 C   0  0  0  0  0  0
    4.0346   -0.5674    0.0125 C   0  0  0  0  0  0
    3.0788   -1.5504   -0.2107 C   0  0  0  0  0  0
    3.4695   -2.8130   -0.6111 C   0  0  0  0  0  0
    4.8106   -3.0993   -0.7898 C   0  0  0  0  0  0
    5.7647   -2.1231   -0.5684 C   0  0  0  0  0  0
    5.3805   -0.8569   -0.1730 C   0  0  0  0  0  0
    1.5803    0.6615   -1.3035 H   0  0  0  0  0  0
    1.9905    2.3512   -0.9229 H   0  0  0  0  0  0
   -0.0144    2.5085    0.5312 H   0  0  0  0  0  0
   -0.2373    3.1280   -1.8420 H   0  0  0  0  0  0
   -0.5627    1.4312   -2.2732 H   0  0  0  0  0  0
   -2.2634    3.1541   -0.4138 H   0  0  0  0  0  0
   -2.6717    2.7241   -2.0914 H   0  0  0  0  0  0
   -2.2138    1.5165    1.2725 H   0  0  0  0  0  0
   -2.5837   -0.1845    0.9036 H   0  0  0  0  0  0
   -0.5090   -0.3426   -0.4468 H   0  0  0  0  0  0
   -0.1470    0.1483    1.2263 H   0  0  0  0  0  0
   -4.3389    2.0907    0.2511 H   0  0  0  0  0  0
   -4.6591    1.6169   -1.4344 H   0  0  0  0  0  0
   -4.4632    0.4597    2.0453 H   0  0  0  0  0  0
   -5.4492   -1.6566    2.8276 H   0  0  0  0  0  0
   -6.3264   -3.2822    1.1994 H   0  0  0  0  0  0
   -6.2184   -2.7911   -1.2111 H   0  0  0  0  0  0
   -5.2366   -0.6727   -1.9931 H   0  0  0  0  0  0
    2.1740    1.7655    1.4796 H   0  0  0  0  0  0
    1.7638    0.0758    1.0990 H   0  0  0  0  0  0
    5.4096    1.6425   -0.2229 H   0  0  0  0  0  0
    4.1541    2.7447    0.3913 H   0  0  0  0  0  0
    6.0166    2.5251    2.0134 H   0  0  0  0  0  0
    4.5048    1.8668    2.6836 H   0  0  0  0  0  0
    5.7602    0.7646    2.0695 H   0  0  0  0  0  0
    2.0313   -1.3276   -0.0710 H   0  0  0  0  0  0
    2.7270   -3.5778   -0.7845 H   0  0  0  0  0  0
    5.1135   -4.0877   -1.1026 H   0  0  0  0  0  0
    6.8112   -2.3500   -0.7088 H   0  0  0  0  0  0
    6.1261   -0.0949   -0.0006 H   0  0  0  0  0  0
  1  2  1  0  0  0
  1 16  1  0  0  0
  1 26  1  0  0  0
  1 27  1  0  0  0
  2  3  1  0  0  0
  2  8  1  0  0  0
  2 28  1  0  0  0
  3  4  1  0  0  0
  3 29  1  0  0  0
  3 30  1  0  0  0
  4  5  1  0  0  0
  4 31  1  0  0  0
  4 32  1  0  0  0
  5  6  1  0  0  0
  5  7  1  0  0  0
  5  9  1  0  0  0
  7  8  1  0  0  0
  7 33  1  0  0  0
  7 34  1  0  0  0
  8 35  1  0  0  0
  8 36  1  0  0  0
  9 10  1  0  0  0
  9 37  1  0  0  0
  9 38  1  0  0  0
 10 11  2  0  0  0
 10 15  1  0  0  0
 11 12  1  0  0  0
 11 39  1  0  0  0
 12 13  2  0  0  0
 12 40  1  0  0  0
 13 14  1  0  0  0
 13 41  1  0  0  0
 14 15  2  0  0  0
 14 42  1  0  0  0
 15 43  1  0  0  0
 16 17  1  0  0  0
 16 44  1  0  0  0
 16 45  1  0  0  0
 17 18  1  0  0  0
 17 20  1  0  0  0
 18 19  1  0  0  0
 18 46  1  0  0  0
 18 47  1  0  0  0
 19 48  1  0  0  0
 19 49  1  0  0  0
 19 50  1  0  0  0
 20 21  2  0  0  0
 20 25  1  0  0  0
 21 22  1  0  0  0
 21 51  1  0  0  0
 22 23  2  0  0  0
 22 52  1  0  0  0
 23 24  1  0  0  0
 23 53  1  0  0  0
 24 25  2  0  0  0
 24 54  1  0  0  0
 25 55  1  0  0  0
M  CHG  1   5   1
M  END
>  <Activity>
4.92082

>  <set>
1

>  <Min_dist>
999.9

>  <Avg_dist>
999.9

$$$$
1-3N
  Cerius2 12110214483D 1   1.00000                          
 
 53 55  0  0  0  0  0  0  0  0999 V2000
    1.3516    1.3352   -0.4624 C   0  0  0  0  0  0
   -0.1107    1.6415   -0.1324 C   0  0  0  0  0  0
   -0.8110    2.1961   -1.3763 C   0  0  0  0  0  0
   -2.2910    2.4254   -1.0621 C   0  0  0  0  0  0
   -2.9148    1.1550   -0.6730 N   0  3  0  0  0  0
   -2.7875    0.4790   -1.4112 H   0  0  0  0  0  0
   -2.2962    0.6532    0.5599 C   0  0  0  0  0  0
   -0.8164    0.3558    0.3081 C   0  0  0  0  0  0
   -4.3508    1.3655   -0.4462 C   0  0  0  0  0  0
   -4.9927    0.0619   -0.0467 C   0  0  0  0  0  0
   -5.0693   -0.2904    1.2878 C   0  0  0  0  0  0
   -5.6581   -1.4862    1.6543 C   0  0  0  0  0  0
   -6.1707   -2.3295    0.6862 C   0  0  0  0  0  0
   -6.0949   -1.9767   -0.6482 C   0  0  0  0  0  0
   -5.5100   -0.7789   -1.0143 C   0  0  0  0  0  0
    2.0498    0.7813    0.7812 C   0  0  0  0  0  0
    3.4499    0.4880    0.4652 N   0  0  0  0  0  0
    4.3741    1.4670    0.5273 C   0  0  0  0  0  0
    5.5083    1.2548    0.1540 O   0  0  0  0  0  0
    3.9981    2.8254    1.0606 C   0  0  0  0  0  0
    3.8267   -0.8050    0.0999 C   0  0  0  0  0  0
    5.1705   -1.1410   -0.0563 C   0  0  0  0  0  0
    5.5015   -2.4303   -0.4184 C   0  0  0  0  0  0
    4.5651   -3.3389   -0.6160 N   0  0  0  0  0  0
    3.2826   -3.0600   -0.4781 C   0  0  0  0  0  0
    2.8693   -1.7956   -0.1126 C   0  0  0  0  0  0
    1.3964    0.5973   -1.2634 H   0  0  0  0  0  0
    1.8510    2.2497   -0.7825 H   0  0  0  0  0  0
   -0.1568    2.3774    0.6704 H   0  0  0  0  0  0
   -0.3493    3.1409   -1.6632 H   0  0  0  0  0  0
   -0.7191    1.4820   -2.1946 H   0  0  0  0  0  0
   -2.3818    3.1398   -0.2438 H   0  0  0  0  0  0
   -2.7925    2.8204   -1.9455 H   0  0  0  0  0  0
   -2.3869    1.4054    1.3435 H   0  0  0  0  0  0
   -2.8016   -0.2600    0.8739 H   0  0  0  0  0  0
   -0.7246   -0.3965   -0.4753 H   0  0  0  0  0  0
   -0.3585   -0.0149    1.2251 H   0  0  0  0  0  0
   -4.4895    2.0976    0.3493 H   0  0  0  0  0  0
   -4.8134    1.7325   -1.3625 H   0  0  0  0  0  0
   -4.6688    0.3684    2.0441 H   0  0  0  0  0  0
   -5.7173   -1.7618    2.6968 H   0  0  0  0  0  0
   -6.6301   -3.2640    0.9725 H   0  0  0  0  0  0
   -6.4951   -2.6357   -1.4045 H   0  0  0  0  0  0
   -5.4508   -0.5033   -2.0569 H   0  0  0  0  0  0
    2.0050    1.5193    1.5821 H   0  0  0  0  0  0
    1.5503   -0.1331    1.1013 H   0  0  0  0  0  0
    2.9261    2.8554    1.2552 H   0  0  0  0  0  0
    4.5409    3.0152    1.9866 H   0  0  0  0  0  0
    4.2554    3.5882    0.3257 H   0  0  0  0  0  0
    5.9418   -0.4021    0.1036 H   0  0  0  0  0  0
    6.5401   -2.6994   -0.5420 H   0  0  0  0  0  0
    2.5476   -3.8324   -0.6495 H   0  0  0  0  0  0
    1.8181   -1.5740   -0.0015 H   0  0  0  0  0  0
  1  2  1  0  0  0
  1 16  1  0  0  0
  1 27  1  0  0  0
  1 28  1  0  0  0
  2  3  1  0  0  0
  2  8  1  0  0  0
  2 29  1  0  0  0
  3  4  1  0  0  0
  3 30  1  0  0  0
  3 31  1  0  0  0
  4  5  1  0  0  0
  4 32  1  0  0  0
  4 33  1  0  0  0
  5  6  1  0  0  0
  5  7  1  0  0  0
  5  9  1  0  0  0
  7  8  1  0  0  0
  7 34  1  0  0  0
  7 35  1  0  0  0
  8 36  1  0  0  0
  8 37  1  0  0  0
  9 10  1  0  0  0
  9 38  1  0  0  0
  9 39  1  0  0  0
 10 11  2  0  0  0
 10 15  1  0  0  0
 11 12  1  0  0  0
 11 40  1  0  0  0
 12 13  2  0  0  0
 12 41  1  0  0  0
 13 14  1  0  0  0
 13 42  1  0  0  0
 14 15  2  0  0  0
 14 43  1  0  0  0
 15 44  1  0  0  0
 16 17  1  0  0  0
 16 45  1  0  0  0
 16 46  1  0  0  0
 17 18  1  0  0  0
 17 21  1  0  0  0
 18 19  2  0  0  0
 18 20  1  0  0  0
 20 47  1  0  0  0
 20 48  1  0  0  0
 20 49  1  0  0  0
 21 22  2  0  0  0
 21 26  1  0  0  0
 22 23  1  0  0  0
 22 50  1  0  0  0
 23 24  2  0  0  0
 23 51  1  0  0  0
 24 25  1  0  0  0
 25 26  2  0  0  0
 25 52  1  0  0  0
 26 53  1  0  0  0
M  CHG  1   5   1
M  END
>  <Activity>
6.96658

>  <set>
1

>  <Min_dist>
999.9

>  <Avg_dist>
999.9

$$$$
1-9
  Cerius2 12110214483D 1   1.00000                          
 
 52 55  0  0  0  0  0  0  0  0999 V2000
    0.9127    0.9770   -0.3452 C   0  0  0  0  0  0
   -0.5323    1.3317    0.0115 C   0  0  0  0  0  0
   -1.1879    2.0559   -1.1679 C   0  0  0  0  0  0
   -2.6548    2.3369   -0.8351 C   0  0  0  0  0  0
   -3.3549    1.0711   -0.5860 N   0  3  0  0  0  0
   -3.2603    0.4713   -1.3919 H   0  0  0  0  0  0
   -2.7776    0.4054    0.5880 C   0  0  0  0  0  0
   -1.3154    0.0501    0.3100 C   0  0  0  0  0  0
   -4.7782    1.3402   -0.3420 C   0  0  0  0  0  0
   -5.4984    0.0414   -0.0860 C   0  0  0  0  0  0
   -5.6074   -0.4460    1.2029 C   0  0  0  0  0  0
   -6.2680   -1.6374    1.4377 C   0  0  0  0  0  0
   -6.8199   -2.3411    0.3837 C   0  0  0  0  0  0
   -6.7116   -1.8532   -0.9052 C   0  0  0  0  0  0
   -6.0548   -0.6596   -1.1395 C   0  0  0  0  0  0
    1.5662    0.2536    0.8340 C   0  0  0  0  0  0
    2.9498   -0.0860    0.4925 N   0  0  0  0  0  0
    4.0240    0.6913    0.7131 C   0  0  0  0  0  0
    3.9915    1.7906    1.2308 O   0  0  0  0  0  0
    5.2483    0.0191    0.2374 C   0  0  0  0  0  0
    6.5911    0.4003    0.2381 C   0  0  0  0  0  0
    7.5457   -0.4484   -0.2838 C   0  0  0  0  0  0
    7.1783   -1.6749   -0.8076 C   0  0  0  0  0  0
    5.8477   -2.0600   -0.8123 C   0  0  0  0  0  0
    4.8884   -1.2218   -0.2941 C   0  0  0  0  0  0
    3.3920   -1.3334   -0.1411 C   0  0  0  0  0  0
    0.9219    0.3273   -1.2203 H   0  0  0  0  0  0
    1.4673    1.8894   -0.5643 H   0  0  0  0  0  0
   -0.5428    1.9793    0.8883 H   0  0  0  0  0  0
   -0.6694    2.9971   -1.3508 H   0  0  0  0  0  0
   -1.1301    1.4289   -2.0576 H   0  0  0  0  0  0
   -2.7114    2.9641    0.0545 H   0  0  0  0  0  0
   -3.1245    2.8526   -1.6727 H   0  0  0  0  0  0
   -2.8316    1.0738    1.4473 H   0  0  0  0  0  0
   -3.3381   -0.5049    0.8010 H   0  0  0  0  0  0
   -1.2603   -0.6186   -0.5491 H   0  0  0  0  0  0
   -0.8882   -0.4425    1.1834 H   0  0  0  0  0  0
   -4.8814    1.9903    0.5268 H   0  0  0  0  0  0
   -5.2103    1.8293   -1.2151 H   0  0  0  0  0  0
   -5.1763    0.1038    2.0264 H   0  0  0  0  0  0
   -6.3526   -2.0186    2.4447 H   0  0  0  0  0  0
   -7.3353   -3.2723    0.5670 H   0  0  0  0  0  0
   -7.1425   -2.4032   -1.7288 H   0  0  0  0  0  0
   -5.9702   -0.2784   -2.1464 H   0  0  0  0  0  0
    1.5570    0.9034    1.7091 H   0  0  0  0  0  0
    1.0116   -0.6588    1.0531 H   0  0  0  0  0  0
    6.8820    1.3572    0.6458 H   0  0  0  0  0  0
    8.5846   -0.1535   -0.2837 H   0  0  0  0  0  0
    7.9310   -2.3340   -1.2144 H   0  0  0  0  0  0
    5.5639   -3.0179   -1.2225 H   0  0  0  0  0  0
    3.1427   -2.1854    0.4913 H   0  0  0  0  0  0
    2.9226   -1.4420   -1.1189 H   0  0  0  0  0  0
  1  2  1  0  0  0
  1 16  1  0  0  0
  1 27  1  0  0  0
  1 28  1  0  0  0
  2  3  1  0  0  0
  2  8  1  0  0  0
  2 29  1  0  0  0
  3  4  1  0  0  0
  3 30  1  0  0  0
  3 31  1  0  0  0
  4  5  1  0  0  0
  4 32  1  0  0  0
  4 33  1  0  0  0
  5  6  1  0  0  0
  5  7  1  0  0  0
  5  9  1  0  0  0
  7  8  1  0  0  0
  7 34  1  0  0  0
  7 35  1  0  0  0
  8 36  1  0  0  0
  8 37  1  0  0  0
  9 10  1  0  0  0
  9 38  1  0  0  0
  9 39  1  0  0  0
 10 11  2  0  0  0
 10 15  1  0  0  0
 11 12  1  0  0  0
 11 40  1  0  0  0
 12 13  2  0  0  0
 12 41  1  0  0  0
 13 14  1  0  0  0
 13 42  1  0  0  0
 14 15  2  0  0  0
 14 43  1  0  0  0
 15 44  1  0  0  0
 16 17  1  0  0  0
 16 45  1  0  0  0
 16 46  1  0  0  0
 17 18  1  0  0  0
 17 26  1  0  0  0
 18 19  2  0  0  0
 18 20  1  0  0  0
 20 21  2  0  0  0
 20 25  1  0  0  0
 21 22  1  0  0  0
 21 47  1  0  0  0
 22 23  2  0  0  0
 22 48  1  0  0  0
 23 24  1  0  0  0
 23 49  1  0  0  0
 24 25  2  0  0  0
 24 50  1  0  0  0
 25 26  1  0  0  0
 26 51  1  0  0  0
 26 52  1  0  0  0
M  CHG  1   5   1
M  END
>  <Activity>
7.00877

>  <set>
1

>  <Min_dist>
999.9

>  <Avg_dist>
999.9

$$$$
2-12
  Cerius2 12110214483D 1   1.00000                          
 
 52 54  0  0  0  0  0  0  0  0999 V2000
    1.0617    1.5027   -0.3878 C   0  0  0  0  0  0
   -0.3625    1.5945    0.1636 C   0  0  0  0  0  0
   -1.1858    2.5532   -0.7015 C   0  0  0  0  0  0
   -2.6287    2.5793   -0.1928 C   0  0  0  0  0  0
   -3.2034    1.2309   -0.2713 N   0  3  0  0  0  0
   -3.1458    0.8966   -1.2216 H   0  0  0  0  0  0
   -2.4629    0.3217    0.6115 C   0  0  0  0  0  0
   -1.0136    0.2087    0.1337 C   0  0  0  0  0  0
   -4.6112    1.2753    0.1460 C   0  0  0  0  0  0
   -5.2027   -0.1085    0.0660 C   0  0  0  0  0  0
   -5.1448   -0.9494    1.1616 C   0  0  0  0  0  0
   -5.6873   -2.2187    1.0881 C   0  0  0  0  0  0
   -6.2882   -2.6469   -0.0808 C   0  0  0  0  0  0
   -6.3469   -1.8057   -1.1762 C   0  0  0  0  0  0
   -5.8082   -0.5349   -1.1013 C   0  0  0  0  0  0
    1.8828    0.5446    0.4775 C   0  0  0  0  0  0
    3.2502    0.4565   -0.0519 N   0  0  0  0  0  0
    3.9811   -0.4735    0.8193 C   0  0  0  0  0  0
    5.3997   -0.6107    0.3298 C   0  0  0  0  0  0
    6.3800    0.2404    0.8045 C   0  0  0  0  0  0
    7.6814    0.1146    0.3555 C   0  0  0  0  0  0
    8.0024   -0.8626   -0.5680 C   0  0  0  0  0  0
    7.0223   -1.7144   -1.0420 C   0  0  0  0  0  0
    5.7218   -1.5914   -0.5897 C   0  0  0  0  0  0
    1.0314    1.1317   -1.4123 H   0  0  0  0  0  0
    1.5216    2.4908   -0.3726 H   0  0  0  0  0  0
   -0.3333    1.9628    1.1891 H   0  0  0  0  0  0
   -0.7603    3.5549   -0.6408 H   0  0  0  0  0  0
   -1.1710    2.2130   -1.7370 H   0  0  0  0  0  0
   -2.6424    2.9199    0.8425 H   0  0  0  0  0  0
   -3.2176    3.2611   -0.8064 H   0  0  0  0  0  0
   -2.4801    0.7104    1.6297 H   0  0  0  0  0  0
   -2.9293   -0.6633    0.5916 H   0  0  0  0  0  0
   -0.9952   -0.1802   -0.8844 H   0  0  0  0  0  0
   -0.4650   -0.4654    0.7915 H   0  0  0  0  0  0
   -4.6749    1.6388    1.1716 H   0  0  0  0  0  0
   -5.1643    1.9455   -0.5120 H   0  0  0  0  0  0
   -4.6754   -0.6148    2.0749 H   0  0  0  0  0  0
   -5.6414   -2.8759    1.9439 H   0  0  0  0  0  0
   -6.7114   -3.6389   -0.1385 H   0  0  0  0  0  0
   -6.8160   -2.1404   -2.0896 H   0  0  0  0  0  0
   -5.8541    0.1224   -1.9571 H   0  0  0  0  0  0
    1.9130    0.9156    1.5020 H   0  0  0  0  0  0
    1.4229   -0.4435    0.4623 H   0  0  0  0  0  0
    3.1830    0.0144   -0.9564 H   0  0  0  0  0  0
    3.9842   -0.0894    1.8393 H   0  0  0  0  0  0
    3.4941   -1.4485    0.7997 H   0  0  0  0  0  0
    6.1292    1.0040    1.5260 H   0  0  0  0  0  0
    8.4471    0.7801    0.7259 H   0  0  0  0  0  0
    9.0190   -0.9605   -0.9193 H   0  0  0  0  0  0
    7.2731   -2.4777   -1.7637 H   0  0  0  0  0  0
    4.9561   -2.2568   -0.9601 H   0  0  0  0  0  0
  1  2  1  0  0  0
  1 16  1  0  0  0
  1 25  1  0  0  0
  1 26  1  0  0  0
  2  3  1  0  0  0
  2  8  1  0  0  0
  2 27  1  0  0  0
  3  4  1  0  0  0
  3 28  1  0  0  0
  3 29  1  0  0  0
  4  5  1  0  0  0
  4 30  1  0  0  0
  4 31  1  0  0  0
  5  6  1  0  0  0
  5  7  1  0  0  0
  5  9  1  0  0  0
  7  8  1  0  0  0
  7 32  1  0  0  0
  7 33  1  0  0  0
  8 34  1  0  0  0
  8 35  1  0  0  0
  9 10  1  0  0  0
  9 36  1  0  0  0
  9 37  1  0  0  0
 10 11  2  0  0  0
 10 15  1  0  0  0
 11 12  1  0  0  0
 11 38  1  0  0  0
 12 13  2  0  0  0
 12 39  1  0  0  0
 13 14  1  0  0  0
 13 40  1  0  0  0
 14 15  2  0  0  0
 14 41  1  0  0  0
 15 42  1  0  0  0
 16 17  1  0  0  0
 16 43  1  0  0  0
 16 44  1  0  0  0
 17 18  1  0  0  0
 17 45  1  0  0  0
 18 19  1  0  0  0
 18 46  1  0  0  0
 18 47  1  0  0  0
 19 20  2  0  0  0
 19 24  1  0  0  0
 20 21  1  0  0  0
 20 48  1  0  0  0
 21 22  2  0  0  0
 21 49  1  0  0  0
 22 23  1  0  0  0
 22 50  1  0  0  0
 23 24  2  0  0  0
 23 51  1  0  0  0
 24 52  1  0  0  0
M  CHG  1   5   1
M  END
>  <Activity>
4.33724

>  <set>
1

>  <Min_dist>
999.9

>  <Avg_dist>
999.9

$$$$
2-14
  Cerius2 12110214483D 1   1.00000                          
 
 57 59  0  0  0  0  0  0  0  0999 V2000
   -0.7050    0.9832    0.2853 C   0  0  0  0  0  0
    0.7110    1.2615   -0.2231 C   0  0  0  0  0  0
    1.3857    2.2966    0.6817 C   0  0  0  0  0  0
    2.8272    2.5112    0.2154 C   0  0  0  0  0  0
    3.5625    1.2429    0.2874 N   0  3  0  0  0  0
    3.5215    0.8846    1.2298 H   0  0  0  0  0  0
    2.9642    0.2674   -0.6318 C   0  0  0  0  0  0
    1.5279   -0.0335   -0.1980 C   0  0  0  0  0  0
    4.9645    1.4693   -0.0883 C   0  0  0  0  0  0
    5.7207    0.1679   -0.0148 C   0  0  0  0  0  0
    5.7967   -0.6511   -1.1258 C   0  0  0  0  0  0
    6.4903   -1.8449   -1.0584 C   0  0  0  0  0  0
    7.1084   -2.2195    0.1200 C   0  0  0  0  0  0
    7.0332   -1.4002    1.2308 C   0  0  0  0  0  0
    6.3432   -0.2043    1.1621 C   0  0  0  0  0  0
   -1.3776   -0.0510   -0.6196 C   0  0  0  0  0  0
   -2.7334   -0.3176   -0.1328 N   0  0  0  0  0  0
   -3.7684    0.4183   -0.5843 C   0  0  0  0  0  0
   -3.5654    1.3694   -1.3135 O   0  0  0  0  0  0
   -5.1505    0.0687   -0.1926 C   0  0  0  0  0  0
   -5.9860    1.0360    0.3681 C   0  0  0  0  0  0
   -7.2747    0.7034    0.7310 C   0  0  0  0  0  0
   -7.7394   -0.5859    0.5405 C   0  0  0  0  0  0
   -6.9163   -1.5494   -0.0148 C   0  0  0  0  0  0
   -5.6273   -1.2285   -0.3874 C   0  0  0  0  0  0
   -2.9643   -1.3840    0.8448 C   0  0  0  0  0  0
   -2.6424   -2.7376    0.2085 C   0  0  0  0  0  0
   -0.6562    0.5978    1.3038 H   0  0  0  0  0  0
   -1.2833    1.9070    0.2737 H   0  0  0  0  0  0
    0.6636    1.6443   -1.2425 H   0  0  0  0  0  0
    0.8410    3.2391    0.6258 H   0  0  0  0  0  0
    1.3857    1.9360    1.7103 H   0  0  0  0  0  0
    2.8260    2.8720   -0.8131 H   0  0  0  0  0  0
    3.3104    3.2477    0.8573 H   0  0  0  0  0  0
    2.9600    0.6760   -1.6422 H   0  0  0  0  0  0
    3.5485   -0.6526   -0.6153 H   0  0  0  0  0  0
    1.5309   -0.4425    0.8123 H   0  0  0  0  0  0
    1.0848   -0.7566   -0.8828 H   0  0  0  0  0  0
    5.0097    1.8589   -1.1052 H   0  0  0  0  0  0
    5.4125    2.1891    0.5968 H   0  0  0  0  0  0
    5.3138   -0.3584   -2.0464 H   0  0  0  0  0  0
    6.5491   -2.4851   -1.9262 H   0  0  0  0  0  0
    7.6498   -3.1526    0.1729 H   0  0  0  0  0  0
    7.5158   -1.6930    2.1515 H   0  0  0  0  0  0
    6.2845    0.4359    2.0299 H   0  0  0  0  0  0
   -1.4264    0.3343   -1.6380 H   0  0  0  0  0  0
   -0.7993   -0.9749   -0.6080 H   0  0  0  0  0  0
   -5.6243    2.0425    0.5180 H   0  0  0  0  0  0
   -7.9223    1.4509    1.1650 H   0  0  0  0  0  0
   -8.7489   -0.8413    0.8269 H   0  0  0  0  0  0
   -7.2851   -2.5540   -0.1609 H   0  0  0  0  0  0
   -4.9859   -1.9815   -0.8211 H   0  0  0  0  0  0
   -2.3217   -1.2279    1.7113 H   0  0  0  0  0  0
   -4.0079   -1.3692    1.1590 H   0  0  0  0  0  0
   -3.0755   -3.5351    0.8122 H   0  0  0  0  0  0
   -3.0610   -2.7751   -0.7972 H   0  0  0  0  0  0
   -1.5613   -2.8670    0.1571 H   0  0  0  0  0  0
  1  2  1  0  0  0
  1 16  1  0  0  0
  1 28  1  0  0  0
  1 29  1  0  0  0
  2  3  1  0  0  0
  2  8  1  0  0  0
  2 30  1  0  0  0
  3  4  1  0  0  0
  3 31  1  0  0  0
  3 32  1  0  0  0
  4  5  1  0  0  0
  4 33  1  0  0  0
  4 34  1  0  0  0
  5  6  1  0  0  0
  5  7  1  0  0  0
  5  9  1  0  0  0
  7  8  1  0  0  0
  7 35  1  0  0  0
  7 36  1  0  0  0
  8 37  1  0  0  0
  8 38  1  0  0  0
  9 10  1  0  0  0
  9 39  1  0  0  0
  9 40  1  0  0  0
 10 11  2  0  0  0
 10 15  1  0  0  0
 11 12  1  0  0  0
 11 41  1  0  0  0
 12 13  2  0  0  0
 12 42  1  0  0  0
 13 14  1  0  0  0
 13 43  1  0  0  0
 14 15  2  0  0  0
 14 44  1  0  0  0
 15 45  1  0  0  0
 16 17  1  0  0  0
 16 46  1  0  0  0
 16 47  1  0  0  0
 17 18  1  0  0  0
 17 26  1  0  0  0
 18 19  2  0  0  0
 18 20  1  0  0  0
 20 21  2  0  0  0
 20 25  1  0  0  0
 21 22  1  0  0  0
 21 48  1  0  0  0
 22 23  2  0  0  0
 22 49  1  0  0  0
 23 24  1  0  0  0
 23 50  1  0  0  0
 24 25  2  0  0  0
 24 51  1  0  0  0
 25 52  1  0  0  0
 26 27  1  0  0  0
 26 53  1  0  0  0
 26 54  1  0  0  0
 27 55  1  0  0  0
 27 56  1  0  0  0
 27 57  1  0  0  0
M  CHG  1   5   1
M  END
>  <Activity>
6.88606

>  <set>
1

>  <Min_dist>
999.9

>  <Avg_dist>
999.9

$$$$
2-15
  Cerius2 12110214483D 1   1.00000                          
 
 64 67  0  0  0  0  0  0  0  0999 V2000
    0.0396   -1.5731   -0.0628 C   0  0  0  0  0  0
    1.4748   -1.6265    0.4647 C   0  0  0  0  0  0
    2.2469   -2.7311   -0.2624 C   0  0  0  0  0  0
    3.7015   -2.7266    0.2125 C   0  0  0  0  0  0
    4.3123   -1.4250   -0.0827 N   0  3  0  0  0  0
    4.2390   -1.2366   -1.0712 H   0  0  0  0  0  0
    3.6219   -0.3691    0.6677 C   0  0  0  0  0  0
    2.1642   -0.2829    0.2102 C   0  0  0  0  0  0
    5.7289   -1.4512    0.3055 C   0  0  0  0  0  0
    6.3574   -0.1154    0.0030 C   0  0  0  0  0  0
    6.3528    0.8830    0.9591 C   0  0  0  0  0  0
    6.9293    2.1084    0.6816 C   0  0  0  0  0  0
    7.5109    2.3352   -0.5518 C   0  0  0  0  0  0
    7.5163    1.3365   -1.5075 C   0  0  0  0  0  0
    6.9436    0.1097   -1.2285 C   0  0  0  0  0  0
   -0.7304   -0.4691    0.6646 C   0  0  0  0  0  0
   -2.1046   -0.4179    0.1595 N   0  0  0  0  0  0
   -3.0653   -1.1614    0.7434 C   0  0  0  0  0  0
   -2.8175   -1.7896    1.7540 O   0  0  0  0  0  0
   -4.4205   -1.2127    0.1546 C   0  0  0  0  0  0
   -5.4898   -0.5911    0.8015 C   0  0  0  0  0  0
   -6.7517   -0.6424    0.2465 C   0  0  0  0  0  0
   -6.9588   -1.3084   -0.9484 C   0  0  0  0  0  0
   -5.9032   -1.9266   -1.5948 C   0  0  0  0  0  0
   -4.6351   -1.8780   -1.0535 C   0  0  0  0  0  0
   -2.4346    0.4413   -0.9803 C   0  0  0  0  0  0
   -2.9779    1.7544   -0.4787 C   0  0  0  0  0  0
   -2.1132    2.7888   -0.1734 C   0  0  0  0  0  0
   -2.6115    3.9933    0.2867 C   0  0  0  0  0  0
   -3.9746    4.1636    0.4410 C   0  0  0  0  0  0
   -4.8394    3.1295    0.1348 C   0  0  0  0  0  0
   -4.3413    1.9265   -0.3294 C   0  0  0  0  0  0
    0.0532   -1.3625   -1.1322 H   0  0  0  0  0  0
   -0.4479   -2.5321    0.1125 H   0  0  0  0  0  0
    1.4623   -1.8342    1.5347 H   0  0  0  0  0  0
    1.7946   -3.6978   -0.0407 H   0  0  0  0  0  0
    2.2143   -2.5512   -1.3370 H   0  0  0  0  0  0
    3.7329   -2.9069    1.2870 H   0  0  0  0  0  0
    4.2540   -3.5121   -0.3031 H   0  0  0  0  0  0
    3.6550   -0.5997    1.7325 H   0  0  0  0  0  0
    4.1157    0.5859    0.4881 H   0  0  0  0  0  0
    2.1299   -0.0522   -0.8545 H   0  0  0  0  0  0
    1.6529    0.5003    0.7698 H   0  0  0  0  0  0
    5.8094   -1.6573    1.3729 H   0  0  0  0  0  0
    6.2448   -2.2308   -0.2549 H   0  0  0  0  0  0
    5.8985    0.7058    1.9227 H   0  0  0  0  0  0
    6.9251    2.8887    1.4283 H   0  0  0  0  0  0
    7.9607    3.2928   -0.7688 H   0  0  0  0  0  0
    7.9703    1.5138   -2.4713 H   0  0  0  0  0  0
    6.9478   -0.6706   -1.9752 H   0  0  0  0  0  0
   -0.7440   -0.6796    1.7340 H   0  0  0  0  0  0
   -0.2430    0.4900    0.4893 H   0  0  0  0  0  0
   -5.3296   -0.0715    1.7347 H   0  0  0  0  0  0
   -7.5800   -0.1618    0.7461 H   0  0  0  0  0  0
   -7.9488   -1.3462   -1.3783 H   0  0  0  0  0  0
   -6.0714   -2.4449   -2.5272 H   0  0  0  0  0  0
   -3.8119   -2.3607   -1.5591 H   0  0  0  0  0  0
   -1.5367    0.6215   -1.5713 H   0  0  0  0  0  0
   -3.1851   -0.0495   -1.6000 H   0  0  0  0  0  0
   -1.0482    2.6557   -0.2940 H   0  0  0  0  0  0
   -1.9359    4.8012    0.5259 H   0  0  0  0  0  0
   -4.3639    5.1044    0.8011 H   0  0  0  0  0  0
   -5.9044    3.2625    0.2557 H   0  0  0  0  0  0
   -5.0170    1.1186   -0.5686 H   0  0  0  0  0  0
  1  2  1  0  0  0
  1 16  1  0  0  0
  1 33  1  0  0  0
  1 34  1  0  0  0
  2  3  1  0  0  0
  2  8  1  0  0  0
  2 35  1  0  0  0
  3  4  1  0  0  0
  3 36  1  0  0  0
  3 37  1  0  0  0
  4  5  1  0  0  0
  4 38  1  0  0  0
  4 39  1  0  0  0
  5  6  1  0  0  0
  5  7  1  0  0  0
  5  9  1  0  0  0
  7  8  1  0  0  0
  7 40  1  0  0  0
  7 41  1  0  0  0
  8 42  1  0  0  0
  8 43  1  0  0  0
  9 10  1  0  0  0
  9 44  1  0  0  0
  9 45  1  0  0  0
 10 11  2  0  0  0
 10 15  1  0  0  0
 11 12  1  0  0  0
 11 46  1  0  0  0
 12 13  2  0  0  0
 12 47  1  0  0  0
 13 14  1  0  0  0
 13 48  1  0  0  0
 14 15  2  0  0  0
 14 49  1  0  0  0
 15 50  1  0  0  0
 16 17  1  0  0  0
 16 51  1  0  0  0
 16 52  1  0  0  0
 17 18  1  0  0  0
 17 26  1  0  0  0
 18 19  2  0  0  0
 18 20  1  0  0  0
 20 21  2  0  0  0
 20 25  1  0  0  0
 21 22  1  0  0  0
 21 53  1  0  0  0
 22 23  2  0  0  0
 22 54  1  0  0  0
 23 24  1  0  0  0
 23 55  1  0  0  0
 24 25  2  0  0  0
 24 56  1  0  0  0
 25 57  1  0  0  0
 26 27  1  0  0  0
 26 58  1  0  0  0
 26 59  1  0  0  0
 27 28  2  0  0  0
 27 32  1  0  0  0
 28 29  1  0  0  0
 28 60  1  0  0  0
 29 30  2  0  0  0
 29 61  1  0  0  0
 30 31  1  0  0  0
 30 62  1  0  0  0
 31 32  2  0  0  0
 31 63  1  0  0  0
 32 64  1  0  0  0
M  CHG  1   5   1
M  END
>  <Activity>
6.02687

>  <set>
1

>  <Min_dist>
999.9

>  <Avg_dist>
999.9

$$$$
2-21
  Cerius2 12110214483D 1   1.00000                          
 
 70 73  0  0  0  0  0  0  0  0999 V2000
   -2.8788    1.1172   -0.2565 C   0  0  0  0  0  0
   -4.3218    1.2823    0.2245 C   0  0  0  0  0  0
   -5.0770    2.2108   -0.7309 C   0  0  0  0  0  0
   -6.5389    2.3082   -0.2894 C   0  0  0  0  0  0
   -7.1514    0.9746   -0.3149 N   0  3  0  0  0  0
   -7.0634    0.5828   -1.2405 H   0  0  0  0  0  0
   -6.4780    0.0987    0.6515 C   0  0  0  0  0  0
   -5.0137   -0.0837    0.2463 C   0  0  0  0  0  0
   -8.5737    1.0838    0.0359 C   0  0  0  0  0  0
   -9.2039   -0.2849    0.0102 C   0  0  0  0  0  0
   -9.2192   -1.0604    1.1545 C   0  0  0  0  0  0
   -9.7973   -2.3158    1.1309 C   0  0  0  0  0  0
  -10.3605   -2.7956   -0.0368 C   0  0  0  0  0  0
  -10.3460   -2.0198   -1.1808 C   0  0  0  0  0  0
   -9.7718   -0.7625   -1.1561 C   0  0  0  0  0  0
   -2.1257    0.1893    0.6989 C   0  0  0  0  0  0
   -0.7440    0.0313    0.2384 N   0  0  0  0  0  0
    0.2110    0.8793    0.6689 C   0  0  0  0  0  0
   -0.0912    1.8402    1.3491 O   0  0  0  0  0  0
    1.6262    0.6407    0.3138 C   0  0  0  0  0  0
    2.4974    1.7178    0.1438 C   0  0  0  0  0  0
    3.8169    1.4882   -0.1871 C   0  0  0  0  0  0
    4.2771    0.1937   -0.3508 C   0  0  0  0  0  0
    3.4187   -0.8785   -0.1837 C   0  0  0  0  0  0
    2.0982   -0.6630    0.1528 C   0  0  0  0  0  0
    5.9635   -0.0906   -0.7745 S   0  0  0  0  0  0
    5.9137   -1.3442   -1.4418 O   0  0  0  0  0  0
    6.3262    1.1082   -1.4457 O   0  0  0  0  0  0
    6.7784   -0.2251    0.8406 C   0  0  0  0  0  0
    8.2514   -0.4732    0.6409 C   0  0  0  0  0  0
    9.1255    0.5936    0.5475 C   0  0  0  0  0  0
   10.4767    0.3661    0.3643 C   0  0  0  0  0  0
   10.9537   -0.9283    0.2751 C   0  0  0  0  0  0
   10.0797   -1.9951    0.3694 C   0  0  0  0  0  0
    8.7291   -1.7676    0.5569 C   0  0  0  0  0  0
   -0.4004   -1.0485   -0.6901 C   0  0  0  0  0  0
   -2.8766    0.6869   -1.2580 H   0  0  0  0  0  0
   -2.3895    2.0909   -0.2783 H   0  0  0  0  0  0
   -4.3252    1.7099    1.2271 H   0  0  0  0  0  0
   -4.6235    3.2018   -0.7096 H   0  0  0  0  0  0
   -5.0284    1.8092   -1.7430 H   0  0  0  0  0  0
   -6.5863    2.7101    0.7227 H   0  0  0  0  0  0
   -7.0794    2.9688   -0.9674 H   0  0  0  0  0  0
   -6.5267    0.5477    1.6436 H   0  0  0  0  0  0
   -6.9735   -0.8720    0.6683 H   0  0  0  0  0  0
   -4.9638   -0.5329   -0.7455 H   0  0  0  0  0  0
   -4.5151   -0.7329    0.9661 H   0  0  0  0  0  0
   -8.6699    1.5094    1.0348 H   0  0  0  0  0  0
   -9.0770    1.7291   -0.6841 H   0  0  0  0  0  0
   -8.7792   -0.6855    2.0668 H   0  0  0  0  0  0
   -9.8086   -2.9220    2.0247 H   0  0  0  0  0  0
  -10.8115   -3.7767   -0.0554 H   0  0  0  0  0  0
  -10.7857   -2.3947   -2.0932 H   0  0  0  0  0  0
   -9.7605   -0.1564   -2.0499 H   0  0  0  0  0  0
   -2.1279    0.6196    1.7004 H   0  0  0  0  0  0
   -2.6151   -0.7844    0.7208 H   0  0  0  0  0  0
    2.1392    2.7288    0.2706 H   0  0  0  0  0  0
    4.4920    2.3208   -0.3189 H   0  0  0  0  0  0
    3.7842   -1.8865   -0.3129 H   0  0  0  0  0  0
    1.4293   -1.5007    0.2833 H   0  0  0  0  0  0
    6.6382    0.7019    1.3966 H   0  0  0  0  0  0
    6.3429   -1.0534    1.3994 H   0  0  0  0  0  0
    8.7528    1.6049    0.6172 H   0  0  0  0  0  0
   11.1595    1.1995    0.2906 H   0  0  0  0  0  0
   12.0092   -1.1061    0.1313 H   0  0  0  0  0  0
   10.4524   -3.0064    0.2994 H   0  0  0  0  0  0
    8.0463   -2.6011    0.6307 H   0  0  0  0  0  0
    0.4283   -0.7327   -1.3239 H   0  0  0  0  0  0
   -0.1089   -1.9342   -0.1256 H   0  0  0  0  0  0
   -1.2648   -1.2820   -1.3117 H   0  0  0  0  0  0
  1  2  1  0  0  0
  1 16  1  0  0  0
  1 37  1  0  0  0
  1 38  1  0  0  0
  2  3  1  0  0  0
  2  8  1  0  0  0
  2 39  1  0  0  0
  3  4  1  0  0  0
  3 40  1  0  0  0
  3 41  1  0  0  0
  4  5  1  0  0  0
  4 42  1  0  0  0
  4 43  1  0  0  0
  5  6  1  0  0  0
  5  7  1  0  0  0
  5  9  1  0  0  0
  7  8  1  0  0  0
  7 44  1  0  0  0
  7 45  1  0  0  0
  8 46  1  0  0  0
  8 47  1  0  0  0
  9 10  1  0  0  0
  9 48  1  0  0  0
  9 49  1  0  0  0
 10 11  2  0  0  0
 10 15  1  0  0  0
 11 12  1  0  0  0
 11 50  1  0  0  0
 12 13  2  0  0  0
 12 51  1  0  0  0
 13 14  1  0  0  0
 13 52  1  0  0  0
 14 15  2  0  0  0
 14 53  1  0  0  0
 15 54  1  0  0  0
 16 17  1  0  0  0
 16 55  1  0  0  0
 16 56  1  0  0  0
 17 18  1  0  0  0
 17 36  1  0  0  0
 18 19  2  0  0  0
 18 20  1  0  0  0
 20 21  2  0  0  0
 20 25  1  0  0  0
 21 22  1  0  0  0
 21 57  1  0  0  0
 22 23  2  0  0  0
 22 58  1  0  0  0
 23 24  1  0  0  0
 23 26  1  0  0  0
 24 25  2  0  0  0
 24 59  1  0  0  0
 25 60  1  0  0  0
 26 27  2  0  0  0
 26 28  2  0  0  0
 26 29  1  0  0  0
 29 30  1  0  0  0
 29 61  1  0  0  0
 29 62  1  0  0  0
 30 31  2  0  0  0
 30 35  1  0  0  0
 31 32  1  0  0  0
 31 63  1  0  0  0
 32 33  2  0  0  0
 32 64  1  0  0  0
 33 34  1  0  0  0
 33 65  1  0  0  0
 34 35  2  0  0  0
 34 66  1  0  0  0
 35 67  1  0  0  0
 36 68  1  0  0  0
 36 69  1  0  0  0
 36 70  1  0  0  0
M  CHG  1   5   1
M  END
>  <Activity>
9.22185

>  <set>
1

>  <Min_dist>
999.9

>  <Avg_dist>
999.9

$$$$
2-22
  Cerius2 12110214483D 1   1.00000                          
 
 73 76  0  0  0  0  0  0  0  0999 V2000
    2.8431    1.1503    0.1884 C   0  0  0  0  0  0
    4.2843    1.3326   -0.2918 C   0  0  0  0  0  0
    5.0067    2.3268    0.6219 C   0  0  0  0  0  0
    6.4684    2.4440    0.1845 C   0  0  0  0  0  0
    7.1175    1.1308    0.2777 N   0  3  0  0  0  0
    7.0341    0.7817    1.2207 H   0  0  0  0  0  0
    6.4755    0.1910   -0.6491 C   0  0  0  0  0  0
    5.0141   -0.0129   -0.2438 C   0  0  0  0  0  0
    8.5387    1.2630   -0.0699 C   0  0  0  0  0  0
    9.2066   -0.0845    0.0254 C   0  0  0  0  0  0
    9.2514   -0.9134   -1.0800 C   0  0  0  0  0  0
    9.8640   -2.1495   -0.9926 C   0  0  0  0  0  0
   10.4321   -2.5566    0.2000 C   0  0  0  0  0  0
   10.3881   -1.7274    1.3052 C   0  0  0  0  0  0
    9.7793   -0.4894    1.2166 C   0  0  0  0  0  0
    2.1229    0.1568   -0.7254 C   0  0  0  0  0  0
    0.7429   -0.0177   -0.2655 N   0  0  0  0  0  0
   -0.2323    0.7814   -0.7419 C   0  0  0  0  0  0
    0.0472    1.7128   -1.4712 O   0  0  0  0  0  0
   -1.6420    0.5252   -0.3773 C   0  0  0  0  0  0
   -2.4237    1.5483    0.1615 C   0  0  0  0  0  0
   -3.7386    1.3027    0.4991 C   0  0  0  0  0  0
   -4.2826    0.0454    0.3051 C   0  0  0  0  0  0
   -3.5131   -0.9732   -0.2285 C   0  0  0  0  0  0
   -2.1986   -0.7393   -0.5758 C   0  0  0  0  0  0
   -5.9625   -0.2601    0.7401 S   0  0  0  0  0  0
   -5.9707   -1.6565    1.0034 O   0  0  0  0  0  0
   -6.2042    0.7016    1.7579 O   0  0  0  0  0  0
   -6.8629    0.1381   -0.7834 C   0  0  0  0  0  0
   -8.3384   -0.0776   -0.5659 C   0  0  0  0  0  0
   -9.1275    0.9587   -0.1029 C   0  0  0  0  0  0
  -10.4810    0.7608    0.0967 C   0  0  0  0  0  0
  -11.0454   -0.4732   -0.1671 C   0  0  0  0  0  0
  -10.2564   -1.5092   -0.6309 C   0  0  0  0  0  0
   -8.9038   -1.3101   -0.8347 C   0  0  0  0  0  0
    0.4229   -1.0609    0.7120 C   0  0  0  0  0  0
    0.6686   -2.4365    0.0889 C   0  0  0  0  0  0
    2.8459    0.7688    1.2094 H   0  0  0  0  0  0
    2.3268    2.1098    0.1605 H   0  0  0  0  0  0
    4.2828    1.7115   -1.3138 H   0  0  0  0  0  0
    4.5260    3.3025    0.5502 H   0  0  0  0  0  0
    4.9622    1.9732    1.6519 H   0  0  0  0  0  0
    6.5117    2.7979   -0.8455 H   0  0  0  0  0  0
    6.9856    3.1513    0.8329 H   0  0  0  0  0  0
    6.5187    0.5929   -1.6613 H   0  0  0  0  0  0
    6.9980   -0.7651   -0.6162 H   0  0  0  0  0  0
    4.9698   -0.4151    0.7683 H   0  0  0  0  0  0
    4.5388   -0.7097   -0.9342 H   0  0  0  0  0  0
    8.6300    1.6427   -1.0875 H   0  0  0  0  0  0
    9.0188    1.9561    0.6210 H   0  0  0  0  0  0
    8.8076   -0.5954   -2.0118 H   0  0  0  0  0  0
    9.8984   -2.7974   -1.8561 H   0  0  0  0  0  0
   10.9101   -3.5226    0.2685 H   0  0  0  0  0  0
   10.8316   -2.0455    2.2370 H   0  0  0  0  0  0
    9.7449    0.1584    2.0800 H   0  0  0  0  0  0
    2.1201    0.5383   -1.7464 H   0  0  0  0  0  0
    2.6393   -0.8028   -0.6975 H   0  0  0  0  0  0
   -2.0001    2.5299    0.3141 H   0  0  0  0  0  0
   -4.3445    2.0934    0.9161 H   0  0  0  0  0  0
   -3.9437   -1.9524   -0.3775 H   0  0  0  0  0  0
   -1.5991   -1.5352   -0.9925 H   0  0  0  0  0  0
   -6.6833    1.1797   -1.0498 H   0  0  0  0  0  0
   -6.5162   -0.5081   -1.5898 H   0  0  0  0  0  0
   -8.6866    1.9228    0.1032 H   0  0  0  0  0  0
  -11.0974    1.5702    0.4590 H   0  0  0  0  0  0
  -12.1027   -0.6280   -0.0105 H   0  0  0  0  0  0
  -10.6974   -2.4734   -0.8367 H   0  0  0  0  0  0
   -8.2873   -2.1194   -1.1970 H   0  0  0  0  0  0
    1.0565   -0.9418    1.5910 H   0  0  0  0  0  0
   -0.6237   -0.9761    1.0044 H   0  0  0  0  0  0
    0.1720   -3.2003    0.6872 H   0  0  0  0  0  0
    0.2689   -2.4526   -0.9251 H   0  0  0  0  0  0
    1.7397   -2.6365    0.0605 H   0  0  0  0  0  0
  1  2  1  0  0  0
  1 16  1  0  0  0
  1 38  1  0  0  0
  1 39  1  0  0  0
  2  3  1  0  0  0
  2  8  1  0  0  0
  2 40  1  0  0  0
  3  4  1  0  0  0
  3 41  1  0  0  0
  3 42  1  0  0  0
  4  5  1  0  0  0
  4 43  1  0  0  0
  4 44  1  0  0  0
  5  6  1  0  0  0
  5  7  1  0  0  0
  5  9  1  0  0  0
  7  8  1  0  0  0
  7 45  1  0  0  0
  7 46  1  0  0  0
  8 47  1  0  0  0
  8 48  1  0  0  0
  9 10  1  0  0  0
  9 49  1  0  0  0
  9 50  1  0  0  0
 10 11  2  0  0  0
 10 15  1  0  0  0
 11 12  1  0  0  0
 11 51  1  0  0  0
 12 13  2  0  0  0
 12 52  1  0  0  0
 13 14  1  0  0  0
 13 53  1  0  0  0
 14 15  2  0  0  0
 14 54  1  0  0  0
 15 55  1  0  0  0
 16 17  1  0  0  0
 16 56  1  0  0  0
 16 57  1  0  0  0
 17 18  1  0  0  0
 17 36  1  0  0  0
 18 19  2  0  0  0
 18 20  1  0  0  0
 20 21  2  0  0  0
 20 25  1  0  0  0
 21 22  1  0  0  0
 21 58  1  0  0  0
 22 23  2  0  0  0
 22 59  1  0  0  0
 23 24  1  0  0  0
 23 26  1  0  0  0
 24 25  2  0  0  0
 24 60  1  0  0  0
 25 61  1  0  0  0
 26 27  2  0  0  0
 26 28  2  0  0  0
 26 29  1  0  0  0
 29 30  1  0  0  0
 29 62  1  0  0  0
 29 63  1  0  0  0
 30 31  2  0  0  0
 30 35  1  0  0  0
 31 32  1  0  0  0
 31 64  1  0  0  0
 32 33  2  0  0  0
 32 65  1  0  0  0
 33 34  1  0  0  0
 33 66  1  0  0  0
 34 35  2  0  0  0
 34 67  1  0  0  0
 35 68  1  0  0  0
 36 37  1  0  0  0
 36 69  1  0  0  0
 36 70  1  0  0  0
 37 71  1  0  0  0
 37 72  1  0  0  0
 37 73  1  0  0  0
M  CHG  1   5   1
M  END
>  <Activity>
9.52288

>  <set>
1

>  <Min_dist>
999.9

>  <Avg_dist>
999.9

$$$$
2-24
  Cerius2 12110214483D 1   1.00000                          
 
 41 42  0  0  0  0  0  0  0  0999 V2000
   -1.4926    0.2853   -0.3577 C   0  0  0  0  0  0
   -2.9412    0.3624    0.1286 C   0  0  0  0  0  0
   -3.7767    1.1616   -0.8756 C   0  0  0  0  0  0
   -5.2388    1.1673   -0.4242 C   0  0  0  0  0  0
   -5.7391   -0.2109   -0.3563 N   0  3  0  0  0  0
   -6.7176   -0.2007   -0.1104 H   0  0  0  0  0  0
   -5.6239   -0.6541   -1.2554 H   0  0  0  0  0  0
   -4.9894   -0.9637    0.6566 C   0  0  0  0  0  0
   -3.5177   -1.0514    0.2467 C   0  0  0  0  0  0
   -0.6593   -0.5134    0.6466 C   0  0  0  0  0  0
    0.7277   -0.5872    0.1809 N   0  0  0  0  0  0
    1.6122    0.3625    0.5446 C   0  0  0  0  0  0
    1.2359    1.3378    1.1649 O   0  0  0  0  0  0
    3.0399    0.2182    0.1889 C   0  0  0  0  0  0
    3.8180    1.3498   -0.0605 C   0  0  0  0  0  0
    5.1498    1.2081   -0.3914 C   0  0  0  0  0  0
    5.7143   -0.0522   -0.4767 C   0  0  0  0  0  0
    4.9486   -1.1780   -0.2307 C   0  0  0  0  0  0
    3.6170   -1.0500    0.1068 C   0  0  0  0  0  0
    1.1535   -1.6935   -0.6800 C   0  0  0  0  0  0
   -1.4613   -0.2078   -1.3293 H   0  0  0  0  0  0
   -1.0856    1.2924   -0.4481 H   0  0  0  0  0  0
   -2.9734    0.8529    1.1015 H   0  0  0  0  0  0
   -3.4066    2.1857   -0.9237 H   0  0  0  0  0  0
   -3.7016    0.7002   -1.8603 H   0  0  0  0  0  0
   -5.3127    1.6291    0.5604 H   0  0  0  0  0  0
   -5.8364    1.7356   -1.1369 H   0  0  0  0  0  0
   -5.0687   -0.4564    1.6181 H   0  0  0  0  0  0
   -5.4029   -1.9686    0.7417 H   0  0  0  0  0  0
   -3.4373   -1.5587   -0.7147 H   0  0  0  0  0  0
   -2.9625   -1.6091    1.0009 H   0  0  0  0  0  0
   -0.6906   -0.0203    1.6182 H   0  0  0  0  0  0
   -1.0663   -1.5205    0.7370 H   0  0  0  0  0  0
    3.3784    2.3341    0.0051 H   0  0  0  0  0  0
    5.7530    2.0829   -0.5847 H   0  0  0  0  0  0
    6.7572   -0.1576   -0.7369 H   0  0  0  0  0  0
    5.3953   -2.1589   -0.2990 H   0  0  0  0  0  0
    3.0205   -1.9296    0.2989 H   0  0  0  0  0  0
    1.9491   -1.3528   -1.3426 H   0  0  0  0  0  0
    1.5207   -2.5135   -0.0630 H   0  0  0  0  0  0
    0.3073   -2.0372   -1.2750 H   0  0  0  0  0  0
  1  2  1  0  0  0
  1 10  1  0  0  0
  1 21  1  0  0  0
  1 22  1  0  0  0
  2  3  1  0  0  0
  2  9  1  0  0  0
  2 23  1  0  0  0
  3  4  1  0  0  0
  3 24  1  0  0  0
  3 25  1  0  0  0
  4  5  1  0  0  0
  4 26  1  0  0  0
  4 27  1  0  0  0
  5  6  1  0  0  0
  5  7  1  0  0  0
  5  8  1  0  0  0
  8  9  1  0  0  0
  8 28  1  0  0  0
  8 29  1  0  0  0
  9 30  1  0  0  0
  9 31  1  0  0  0
 10 11  1  0  0  0
 10 32  1  0  0  0
 10 33  1  0  0  0
 11 12  1  0  0  0
 11 20  1  0  0  0
 12 13  2  0  0  0
 12 14  1  0  0  0
 14 15  2  0  0  0
 14 19  1  0  0  0
 15 16  1  0  0  0
 15 34  1  0  0  0
 16 17  2  0  0  0
 16 35  1  0  0  0
 17 18  1  0  0  0
 17 36  1  0  0  0
 18 19  2  0  0  0
 18 37  1  0  0  0
 19 38  1  0  0  0
 20 39  1  0  0  0
 20 40  1  0  0  0
 20 41  1  0  0  0
M  CHG  1   5   1
M  END
>  <Activity>
4.58503

>  <set>
1

>  <Min_dist>
999.9

>  <Avg_dist>
999.9

$$$$
2-25
  Cerius2 12110214483D 1   1.00000                          
 
 57 59  0  0  0  0  0  0  0  0999 V2000
    1.0776   -0.0966   -0.0640 C   0  0  0  0  0  0
   -0.3122    0.4109   -0.4538 C   0  0  0  0  0  0
   -1.3021   -0.7575   -0.4558 C   0  0  0  0  0  0
   -2.7042   -0.2305   -0.7684 C   0  0  0  0  0  0
   -3.1017    0.7477    0.2512 N   0  3  0  0  0  0
   -3.0559    0.3188    1.1634 H   0  0  0  0  0  0
   -2.1991    1.9045    0.2103 C   0  0  0  0  0  0
   -0.7775    1.4596    0.5606 C   0  0  0  0  0  0
   -4.4767    1.1938   -0.0100 C   0  0  0  0  0  0
   -5.4220    0.0321    0.1567 C   0  0  0  0  0  0
   -6.7388    0.1492   -0.2466 C   0  0  0  0  0  0
   -7.6060   -0.9167   -0.0937 C   0  0  0  0  0  0
   -7.1560   -2.0995    0.4621 C   0  0  0  0  0  0
   -5.8386   -2.2169    0.8647 C   0  0  0  0  0  0
   -4.9706   -1.1529    0.7078 C   0  0  0  0  0  0
   -7.2294    1.4388   -0.8526 C   0  0  0  0  0  0
    2.0653    1.0719   -0.0625 C   0  0  0  0  0  0
    3.3960    0.5860    0.3107 N   0  0  0  0  0  0
    4.2494    0.1600   -0.6415 C   0  0  0  0  0  0
    3.8760    0.0663   -1.7945 O   0  0  0  0  0  0
    5.6397   -0.1935   -0.2837 C   0  0  0  0  0  0
    6.1964   -1.3916   -0.7340 C   0  0  0  0  0  0
    7.4944   -1.7152   -0.3970 C   0  0  0  0  0  0
    8.2439   -0.8552    0.3860 C   0  0  0  0  0  0
    7.6981    0.3340    0.8356 C   0  0  0  0  0  0
    6.4032    0.6722    0.5010 C   0  0  0  0  0  0
    3.7991    0.5631    1.7189 C   0  0  0  0  0  0
    1.0368   -0.5392    0.9312 H   0  0  0  0  0  0
    1.4048   -0.8479   -0.7827 H   0  0  0  0  0  0
   -0.2720    0.8563   -1.4478 H   0  0  0  0  0  0
   -1.0081   -1.4823   -1.2149 H   0  0  0  0  0  0
   -1.3029   -1.2355    0.5238 H   0  0  0  0  0  0
   -2.7023    0.2470   -1.7482 H   0  0  0  0  0  0
   -3.4115   -1.0599   -0.7707 H   0  0  0  0  0  0
   -2.2079    2.3365   -0.7903 H   0  0  0  0  0  0
   -2.5334    2.6513    0.9305 H   0  0  0  0  0  0
   -0.7674    1.0276    1.5613 H   0  0  0  0  0  0
   -0.1085    2.3196    0.5279 H   0  0  0  0  0  0
   -4.7427    1.9825    0.6938 H   0  0  0  0  0  0
   -4.5473    1.5765   -1.0282 H   0  0  0  0  0  0
   -8.6351   -0.8249   -0.4081 H   0  0  0  0  0  0
   -7.8336   -2.9318    0.5822 H   0  0  0  0  0  0
   -5.4871   -3.1410    1.2993 H   0  0  0  0  0  0
   -3.9414   -1.2446    1.0222 H   0  0  0  0  0  0
   -7.0918    1.4078   -1.9334 H   0  0  0  0  0  0
   -8.2874    1.5680   -0.6245 H   0  0  0  0  0  0
   -6.6638    2.2733   -0.4381 H   0  0  0  0  0  0
    2.1061    1.5145   -1.0578 H   0  0  0  0  0  0
    1.7381    1.8233    0.6561 H   0  0  0  0  0  0
    5.6121   -2.0640   -1.3447 H   0  0  0  0  0  0
    7.9264   -2.6419   -0.7447 H   0  0  0  0  0  0
    9.2594   -1.1136    0.6476 H   0  0  0  0  0  0
    8.2885    1.0009    1.4465 H   0  0  0  0  0  0
    5.9784    1.6010    0.8523 H   0  0  0  0  0  0
    4.7680    0.0724    1.8116 H   0  0  0  0  0  0
    3.8719    1.5844    2.0927 H   0  0  0  0  0  0
    3.0574    0.0154    2.3003 H   0  0  0  0  0  0
  1  2  1  0  0  0
  1 17  1  0  0  0
  1 28  1  0  0  0
  1 29  1  0  0  0
  2  3  1  0  0  0
  2  8  1  0  0  0
  2 30  1  0  0  0
  3  4  1  0  0  0
  3 31  1  0  0  0
  3 32  1  0  0  0
  4  5  1  0  0  0
  4 33  1  0  0  0
  4 34  1  0  0  0
  5  6  1  0  0  0
  5  7  1  0  0  0
  5  9  1  0  0  0
  7  8  1  0  0  0
  7 35  1  0  0  0
  7 36  1  0  0  0
  8 37  1  0  0  0
  8 38  1  0  0  0
  9 10  1  0  0  0
  9 39  1  0  0  0
  9 40  1  0  0  0
 10 11  2  0  0  0
 10 15  1  0  0  0
 11 12  1  0  0  0
 11 16  1  0  0  0
 12 13  2  0  0  0
 12 41  1  0  0  0
 13 14  1  0  0  0
 13 42  1  0  0  0
 14 15  2  0  0  0
 14 43  1  0  0  0
 15 44  1  0  0  0
 16 45  1  0  0  0
 16 46  1  0  0  0
 16 47  1  0  0  0
 17 18  1  0  0  0
 17 48  1  0  0  0
 17 49  1  0  0  0
 18 19  1  0  0  0
 18 27  1  0  0  0
 19 20  2  0  0  0
 19 21  1  0  0  0
 21 22  2  0  0  0
 21 26  1  0  0  0
 22 23  1  0  0  0
 22 50  1  0  0  0
 23 24  2  0  0  0
 23 51  1  0  0  0
 24 25  1  0  0  0
 24 52  1  0  0  0
 25 26  2  0  0  0
 25 53  1  0  0  0
 26 54  1  0  0  0
 27 55  1  0  0  0
 27 56  1  0  0  0
 27 57  1  0  0  0
M  CHG  1   5   1
M  END
>  <Activity>
6.11351

>  <set>
1

>  <Min_dist>
999.9

>  <Avg_dist>
999.9

$$$$
2-26
  Cerius2 12110214483D 1   1.00000                          
 
 57 59  0  0  0  0  0  0  0  0999 V2000
    1.1250   -0.9740    0.2306 C   0  0  0  0  0  0
   -0.2877   -1.2490   -0.2886 C   0  0  0  0  0  0
   -0.8927   -2.4310    0.4743 C   0  0  0  0  0  0
   -2.3329   -2.6499    0.0060 C   0  0  0  0  0  0
   -3.1246   -1.4414    0.2653 N   0  3  0  0  0  0
   -3.0789   -1.2150    1.2475 H   0  0  0  0  0  0
   -2.5934   -0.3201   -0.5189 C   0  0  0  0  0  0
   -1.1632   -0.0116   -0.0708 C   0  0  0  0  0  0
   -4.5227   -1.6826   -0.1155 C   0  0  0  0  0  0
   -5.3369   -0.4426    0.1502 C   0  0  0  0  0  0
   -5.4761    0.5169   -0.8348 C   0  0  0  0  0  0
   -6.2230    1.6545   -0.5910 C   0  0  0  0  0  0
   -6.8308    1.8321    0.6376 C   0  0  0  0  0  0
   -6.6922    0.8718    1.6226 C   0  0  0  0  0  0
   -5.9492   -0.2675    1.3774 C   0  0  0  0  0  0
   -6.3740    2.7012   -1.6646 C   0  0  0  0  0  0
    1.7280    0.2070   -0.5325 C   0  0  0  0  0  0
    3.0807    0.4703   -0.0353 N   0  0  0  0  0  0
    4.1382   -0.1444   -0.6013 C   0  0  0  0  0  0
    3.9630   -0.9992   -1.4476 O   0  0  0  0  0  0
    5.5113    0.2211   -0.1929 C   0  0  0  0  0  0
    6.5262   -0.7369   -0.2107 C   0  0  0  0  0  0
    7.8055   -0.3892    0.1712 C   0  0  0  0  0  0
    8.0833    0.9057    0.5717 C   0  0  0  0  0  0
    7.0818    1.8601    0.5916 C   0  0  0  0  0  0
    5.7996    1.5270    0.2067 C   0  0  0  0  0  0
    3.2838    1.4017    1.0771 C   0  0  0  0  0  0
    1.0815   -0.7358    1.2934 H   0  0  0  0  0  0
    1.7453   -1.8578    0.0815 H   0  0  0  0  0  0
   -0.2457   -1.4846   -1.3520 H   0  0  0  0  0  0
   -0.3061   -3.3287    0.2792 H   0  0  0  0  0  0
   -0.8861   -2.2162    1.5429 H   0  0  0  0  0  0
   -2.3383   -2.8648   -1.0626 H   0  0  0  0  0  0
   -2.7666   -3.4909    0.5470 H   0  0  0  0  0  0
   -2.5933   -0.5847   -1.5763 H   0  0  0  0  0  0
   -3.2194    0.5589   -0.3654 H   0  0  0  0  0  0
   -1.1623    0.2534    0.9865 H   0  0  0  0  0  0
   -0.7700    0.8200   -0.6555 H   0  0  0  0  0  0
   -4.5729   -1.9299   -1.1759 H   0  0  0  0  0  0
   -4.9210   -2.5112    0.4700 H   0  0  0  0  0  0
   -5.0012    0.3782   -1.7948 H   0  0  0  0  0  0
   -7.4136    2.7211    0.8283 H   0  0  0  0  0  0
   -7.1668    1.0107    2.5827 H   0  0  0  0  0  0
   -5.8409   -1.0176    2.1468 H   0  0  0  0  0  0
   -7.2514    2.4759   -2.2708 H   0  0  0  0  0  0
   -6.4936    3.6811   -1.2025 H   0  0  0  0  0  0
   -5.4863    2.7037   -2.2971 H   0  0  0  0  0  0
    1.7715   -0.0312   -1.5953 H   0  0  0  0  0  0
    1.1077    1.0908   -0.3834 H   0  0  0  0  0  0
    6.3105   -1.7482   -0.5224 H   0  0  0  0  0  0
    8.5917   -1.1295    0.1579 H   0  0  0  0  0  0
    9.0863    1.1725    0.8704 H   0  0  0  0  0  0
    7.3052    2.8691    0.9052 H   0  0  0  0  0  0
    5.0188    2.2730    0.2223 H   0  0  0  0  0  0
    4.1573    1.0952    1.6526 H   0  0  0  0  0  0
    3.4411    2.4066    0.6854 H   0  0  0  0  0  0
    2.4042    1.3962    1.7208 H   0  0  0  0  0  0
  1  2  1  0  0  0
  1 17  1  0  0  0
  1 28  1  0  0  0
  1 29  1  0  0  0
  2  3  1  0  0  0
  2  8  1  0  0  0
  2 30  1  0  0  0
  3  4  1  0  0  0
  3 31  1  0  0  0
  3 32  1  0  0  0
  4  5  1  0  0  0
  4 33  1  0  0  0
  4 34  1  0  0  0
  5  6  1  0  0  0
  5  7  1  0  0  0
  5  9  1  0  0  0
  7  8  1  0  0  0
  7 35  1  0  0  0
  7 36  1  0  0  0
  8 37  1  0  0  0
  8 38  1  0  0  0
  9 10  1  0  0  0
  9 39  1  0  0  0
  9 40  1  0  0  0
 10 11  2  0  0  0
 10 15  1  0  0  0
 11 12  1  0  0  0
 11 41  1  0  0  0
 12 13  2  0  0  0
 12 16  1  0  0  0
 13 14  1  0  0  0
 13 42  1  0  0  0
 14 15  2  0  0  0
 14 43  1  0  0  0
 15 44  1  0  0  0
 16 45  1  0  0  0
 16 46  1  0  0  0
 16 47  1  0  0  0
 17 18  1  0  0  0
 17 48  1  0  0  0
 17 49  1  0  0  0
 18 19  1  0  0  0
 18 27  1  0  0  0
 19 20  2  0  0  0
 19 21  1  0  0  0
 21 22  2  0  0  0
 21 26  1  0  0  0
 22 23  1  0  0  0
 22 50  1  0  0  0
 23 24  2  0  0  0
 23 51  1  0  0  0
 24 25  1  0  0  0
 24 52  1  0  0  0
 25 26  2  0  0  0
 25 53  1  0  0  0
 26 54  1  0  0  0
 27 55  1  0  0  0
 27 56  1  0  0  0
 27 57  1  0  0  0
M  CHG  1   5   1
M  END
>  <Activity>
6.83863

>  <set>
1

>  <Min_dist>
999.9

>  <Avg_dist>
999.9

$$$$
2-27
  Cerius2 12110214483D 1   1.00000                          
 
 57 59  0  0  0  0  0  0  0  0999 V2000
    1.1849    0.9279   -0.3409 C   0  0  0  0  0  0
   -0.2086    1.3201    0.1543 C   0  0  0  0  0  0
   -0.8220    2.3466   -0.8023 C   0  0  0  0  0  0
   -2.2451    2.6746   -0.3458 C   0  0  0  0  0  0
   -3.0582    1.4525   -0.3502 N   0  3  0  0  0  0
   -3.0440    1.0437   -1.2726 H   0  0  0  0  0  0
   -2.5173    0.4909    0.6179 C   0  0  0  0  0  0
   -1.1046    0.0789    0.1984 C   0  0  0  0  0  0
   -4.4416    1.7852    0.0152 C   0  0  0  0  0  0
   -5.2776    0.5313    0.0110 C   0  0  0  0  0  0
   -5.3990   -0.2222    1.1635 C   0  0  0  0  0  0
   -6.1658   -1.3724    1.1597 C   0  0  0  0  0  0
   -6.8116   -1.7687    0.0035 C   0  0  0  0  0  0
   -6.6909   -1.0147   -1.1488 C   0  0  0  0  0  0
   -5.9276    0.1378   -1.1438 C   0  0  0  0  0  0
   -7.6468   -3.0231   -0.0009 C   0  0  0  0  0  0
    1.7962   -0.0976    0.6159 C   0  0  0  0  0  0
    3.1305   -0.4732    0.1417 N   0  0  0  0  0  0
    4.2113    0.2193    0.5526 C   0  0  0  0  0  0
    4.0711    1.2216    1.2259 O   0  0  0  0  0  0
    5.5675   -0.2401    0.1843 C   0  0  0  0  0  0
    6.5936    0.6866   -0.0068 C   0  0  0  0  0  0
    7.8569    0.2512   -0.3499 C   0  0  0  0  0  0
    8.1078   -1.1006   -0.5050 C   0  0  0  0  0  0
    7.0950   -2.0244   -0.3170 C   0  0  0  0  0  0
    5.8286   -1.6027    0.0319 C   0  0  0  0  0  0
    3.2900   -1.6014   -0.7791 C   0  0  0  0  0  0
    1.1074    0.4938   -1.3377 H   0  0  0  0  0  0
    1.8196    1.8132   -0.3785 H   0  0  0  0  0  0
   -0.1327    1.7518    1.1523 H   0  0  0  0  0  0
   -0.2195    3.2549   -0.7966 H   0  0  0  0  0  0
   -0.8493    1.9335   -1.8107 H   0  0  0  0  0  0
   -2.2166    3.0878    0.6625 H   0  0  0  0  0  0
   -2.6847    3.4054   -1.0246 H   0  0  0  0  0  0
   -2.4829    0.9506    1.6056 H   0  0  0  0  0  0
   -3.1577   -0.3905    0.6504 H   0  0  0  0  0  0
   -1.1378   -0.3813   -0.7892 H   0  0  0  0  0  0
   -0.7040   -0.6337    0.9194 H   0  0  0  0  0  0
   -4.4577    2.2293    1.0105 H   0  0  0  0  0  0
   -4.8472    2.4947   -0.7060 H   0  0  0  0  0  0
   -4.8945    0.0874    2.0669 H   0  0  0  0  0  0
   -6.2602   -1.9615    2.0599 H   0  0  0  0  0  0
   -7.1951   -1.3245   -2.0522 H   0  0  0  0  0  0
   -5.8333    0.7270   -2.0440 H   0  0  0  0  0  0
   -8.6733   -2.7771    0.2709 H   0  0  0  0  0  0
   -7.6309   -3.4667   -0.9965 H   0  0  0  0  0  0
   -7.2403   -3.7328    0.7196 H   0  0  0  0  0  0
    1.8737    0.3365    1.6127 H   0  0  0  0  0  0
    1.1615   -0.9830    0.6535 H   0  0  0  0  0  0
    6.3990    1.7421    0.1132 H   0  0  0  0  0  0
    8.6518    0.9672   -0.4981 H   0  0  0  0  0  0
    9.0983   -1.4361   -0.7743 H   0  0  0  0  0  0
    7.2974   -3.0781   -0.4395 H   0  0  0  0  0  0
    5.0391   -2.3248    0.1787 H   0  0  0  0  0  0
    4.1497   -1.4242   -1.4254 H   0  0  0  0  0  0
    3.4470   -2.5167   -0.2084 H   0  0  0  0  0  0
    2.3920   -1.7028   -1.3885 H   0  0  0  0  0  0
  1  2  1  0  0  0
  1 17  1  0  0  0
  1 28  1  0  0  0
  1 29  1  0  0  0
  2  3  1  0  0  0
  2  8  1  0  0  0
  2 30  1  0  0  0
  3  4  1  0  0  0
  3 31  1  0  0  0
  3 32  1  0  0  0
  4  5  1  0  0  0
  4 33  1  0  0  0
  4 34  1  0  0  0
  5  6  1  0  0  0
  5  7  1  0  0  0
  5  9  1  0  0  0
  7  8  1  0  0  0
  7 35  1  0  0  0
  7 36  1  0  0  0
  8 37  1  0  0  0
  8 38  1  0  0  0
  9 10  1  0  0  0
  9 39  1  0  0  0
  9 40  1  0  0  0
 10 11  2  0  0  0
 10 15  1  0  0  0
 11 12  1  0  0  0
 11 41  1  0  0  0
 12 13  2  0  0  0
 12 42  1  0  0  0
 13 14  1  0  0  0
 13 16  1  0  0  0
 14 15  2  0  0  0
 14 43  1  0  0  0
 15 44  1  0  0  0
 16 45  1  0  0  0
 16 46  1  0  0  0
 16 47  1  0  0  0
 17 18  1  0  0  0
 17 48  1  0  0  0
 17 49  1  0  0  0
 18 19  1  0  0  0
 18 27  1  0  0  0
 19 20  2  0  0  0
 19 21  1  0  0  0
 21 22  2  0  0  0
 21 26  1  0  0  0
 22 23  1  0  0  0
 22 50  1  0  0  0
 23 24  2  0  0  0
 23 51  1  0  0  0
 24 25  1  0  0  0
 24 52  1  0  0  0
 25 26  2  0  0  0
 25 53  1  0  0  0
 26 54  1  0  0  0
 27 55  1  0  0  0
 27 56  1  0  0  0
 27 57  1  0  0  0
M  CHG  1   5   1
M  END
>  <Activity>
4.38722

>  <set>
1

>  <Min_dist>
999.9

>  <Avg_dist>
999.9

$$$$
2-28
  Cerius2 12110214483D 1   1.00000                          
 
 56 58  0  0  0  0  0  0  0  0999 V2000
    1.6880   -0.1828   -0.0446 C   0  0  0  0  0  0
    0.2720    0.3174   -0.3371 C   0  0  0  0  0  0
   -0.6716   -0.8787   -0.4929 C   0  0  0  0  0  0
   -2.0992   -0.3707   -0.7061 C   0  0  0  0  0  0
   -2.5137    0.4341    0.4494 N   0  3  0  0  0  0
   -2.4328   -0.1188    1.2895 H   0  0  0  0  0  0
   -1.6576    1.6211    0.5624 C   0  0  0  0  0  0
   -0.2130    1.1898    0.8243 C   0  0  0  0  0  0
   -3.9100    0.8558    0.2750 C   0  0  0  0  0  0
   -4.8062   -0.3556    0.2902 C   0  0  0  0  0  0
   -6.1394   -0.2333   -0.0533 C   0  0  0  0  0  0
   -6.9616   -1.3447   -0.0394 C   0  0  0  0  0  0
   -6.4504   -2.5781    0.3177 C   0  0  0  0  0  0
   -5.1166   -2.7007    0.6604 C   0  0  0  0  0  0
   -4.2936   -1.5904    0.6423 C   0  0  0  0  0  0
   -6.6869    1.0877   -0.4357 N   0  3  0  0  0  0
   -7.8618    1.1954   -0.7385 O   0  0  0  0  0  0
   -5.9626    2.0668   -0.4477 O   0  5  0  0  0  0
    2.6295    1.0132    0.1109 C   0  0  0  0  0  0
    3.9853    0.5342    0.3909 N   0  0  0  0  0  0
    4.8351    0.2847   -0.6250 C   0  0  0  0  0  0
    4.4428    0.3436   -1.7739 O   0  0  0  0  0  0
    6.2445   -0.0608   -0.3418 C   0  0  0  0  0  0
    6.8354   -1.1610   -0.9652 C   0  0  0  0  0  0
    8.1510   -1.4776   -0.6970 C   0  0  0  0  0  0
    8.8845   -0.7075    0.1881 C   0  0  0  0  0  0
    8.3048    0.3844    0.8094 C   0  0  0  0  0  0
    6.9917    0.7153    0.5456 C   0  0  0  0  0  0
    4.4175    0.3265    1.7752 C   0  0  0  0  0  0
    1.6847   -0.7647    0.8771 H   0  0  0  0  0  0
    2.0295   -0.8093   -0.8686 H   0  0  0  0  0  0
    0.2747    0.9018   -1.2571 H   0  0  0  0  0  0
   -0.3651   -1.4745   -1.3527 H   0  0  0  0  0  0
   -0.6340   -1.4917    0.4076 H   0  0  0  0  0  0
   -2.1357    0.2420   -1.6069 H   0  0  0  0  0  0
   -2.7736   -1.2197   -0.8176 H   0  0  0  0  0  0
   -1.7035    2.1913   -0.3654 H   0  0  0  0  0  0
   -2.0060    2.2426    1.3873 H   0  0  0  0  0  0
   -0.1660    0.6197    1.7522 H   0  0  0  0  0  0
    0.4212    2.0724    0.9061 H   0  0  0  0  0  0
   -4.1912    1.5261    1.0872 H   0  0  0  0  0  0
   -4.0165    1.3747   -0.6776 H   0  0  0  0  0  0
   -8.0035   -1.2490   -0.3071 H   0  0  0  0  0  0
   -7.0928   -3.4462    0.3293 H   0  0  0  0  0  0
   -4.7171   -3.6644    0.9398 H   0  0  0  0  0  0
   -3.2517   -1.6861    0.9100 H   0  0  0  0  0  0
    2.6328    1.5951   -0.8108 H   0  0  0  0  0  0
    2.2880    1.6397    0.9349 H   0  0  0  0  0  0
    6.2637   -1.7633   -1.6558 H   0  0  0  0  0  0
    8.6094   -2.3286   -1.1787 H   0  0  0  0  0  0
    9.9139   -0.9601    0.3951 H   0  0  0  0  0  0
    8.8828    0.9814    1.4993 H   0  0  0  0  0  0
    6.5405    1.5680    1.0310 H   0  0  0  0  0  0
    5.4063   -0.1320    1.7823 H   0  0  0  0  0  0
    4.4581    1.2859    2.2910 H   0  0  0  0  0  0
    3.7095   -0.3289    2.2824 H   0  0  0  0  0  0
  1  2  1  0  0  0
  1 19  1  0  0  0
  1 30  1  0  0  0
  1 31  1  0  0  0
  2  3  1  0  0  0
  2  8  1  0  0  0
  2 32  1  0  0  0
  3  4  1  0  0  0
  3 33  1  0  0  0
  3 34  1  0  0  0
  4  5  1  0  0  0
  4 35  1  0  0  0
  4 36  1  0  0  0
  5  6  1  0  0  0
  5  7  1  0  0  0
  5  9  1  0  0  0
  7  8  1  0  0  0
  7 37  1  0  0  0
  7 38  1  0  0  0
  8 39  1  0  0  0
  8 40  1  0  0  0
  9 10  1  0  0  0
  9 41  1  0  0  0
  9 42  1  0  0  0
 10 11  2  0  0  0
 10 15  1  0  0  0
 11 12  1  0  0  0
 11 16  1  0  0  0
 12 13  2  0  0  0
 12 43  1  0  0  0
 13 14  1  0  0  0
 13 44  1  0  0  0
 14 15  2  0  0  0
 14 45  1  0  0  0
 15 46  1  0  0  0
 16 17  2  0  0  0
 16 18  1  0  0  0
 19 20  1  0  0  0
 19 47  1  0  0  0
 19 48  1  0  0  0
 20 21  1  0  0  0
 20 29  1  0  0  0
 21 22  2  0  0  0
 21 23  1  0  0  0
 23 24  2  0  0  0
 23 28  1  0  0  0
 24 25  1  0  0  0
 24 49  1  0  0  0
 25 26  2  0  0  0
 25 50  1  0  0  0
 26 27  1  0  0  0
 26 51  1  0  0  0
 27 28  2  0  0  0
 27 52  1  0  0  0
 28 53  1  0  0  0
 29 54  1  0  0  0
 29 55  1  0  0  0
 29 56  1  0  0  0
M  CHG  3   5   1  16   1  18  -1
M  END
>  <Activity>
4.85387

>  <set>
1

>  <Min_dist>
999.9

>  <Avg_dist>
999.9

$$$$
2-30
  Cerius2 12110214483D 1   1.00000                          
 
 56 58  0  0  0  0  0  0  0  0999 V2000
    1.9211    1.0596   -0.3349 C   0  0  0  0  0  0
    0.5645    1.5605    0.1647 C   0  0  0  0  0  0
    0.0359    2.6399   -0.7843 C   0  0  0  0  0  0
   -1.3555    3.0794   -0.3238 C   0  0  0  0  0  0
   -2.2652    1.9275   -0.3353 N   0  3  0  0  0  0
   -2.2850    1.5252   -1.2604 H   0  0  0  0  0  0
   -1.8036    0.9186    0.6256 C   0  0  0  0  0  0
   -0.4294    0.3959    0.2016 C   0  0  0  0  0  0
   -3.6167    2.3691    0.0340 C   0  0  0  0  0  0
   -4.5519    1.1874    0.0226 C   0  0  0  0  0  0
   -4.7334    0.4385    1.1702 C   0  0  0  0  0  0
   -5.5912   -0.6455    1.1596 C   0  0  0  0  0  0
   -6.2679   -0.9802    0.0016 C   0  0  0  0  0  0
   -6.0871   -0.2307   -1.1457 C   0  0  0  0  0  0
   -5.2326    0.8559   -1.1340 C   0  0  0  0  0  0
   -7.1857   -2.1414   -0.0099 N   0  3  0  0  0  0
   -7.7819   -2.4363   -1.0303 O   0  0  0  0  0  0
   -7.3447   -2.8021    1.0009 O   0  5  0  0  0  0
    2.4478   -0.0187    0.6142 C   0  0  0  0  0  0
    3.7468   -0.4982    0.1359 N   0  0  0  0  0  0
    4.8806    0.1013    0.5499 C   0  0  0  0  0  0
    4.8228    1.1071    1.2301 O   0  0  0  0  0  0
    6.1946   -0.4643    0.1769 C   0  0  0  0  0  0
    7.2926    0.3771   -0.0093 C   0  0  0  0  0  0
    8.5161   -0.1572   -0.3569 C   0  0  0  0  0  0
    8.6560   -1.5238   -0.5213 C   0  0  0  0  0  0
    7.5717   -2.3635   -0.3382 C   0  0  0  0  0  0
    6.3440   -1.8426    0.0151 C   0  0  0  0  0  0
    3.8133   -1.6294   -0.7926 C   0  0  0  0  0  0
    1.8079    0.6400   -1.3345 H   0  0  0  0  0  0
    2.6257    1.8907   -0.3674 H   0  0  0  0  0  0
    0.6760    1.9778    1.1654 H   0  0  0  0  0  0
    0.7103    3.4962   -0.7733 H   0  0  0  0  0  0
   -0.0256    2.2372   -1.7954 H   0  0  0  0  0  0
   -1.2928    3.4821    0.6872 H   0  0  0  0  0  0
   -1.7347    3.8481   -0.9972 H   0  0  0  0  0  0
   -1.7313    1.3674    1.6163 H   0  0  0  0  0  0
   -2.5136    0.0920    0.6531 H   0  0  0  0  0  0
   -0.5006   -0.0533   -0.7890 H   0  0  0  0  0  0
   -0.0876   -0.3517    0.9173 H   0  0  0  0  0  0
   -3.5960    2.8064    1.0323 H   0  0  0  0  0  0
   -3.9639    3.1142   -0.6818 H   0  0  0  0  0  0
   -4.2047    0.6999    2.0749 H   0  0  0  0  0  0
   -5.7325   -1.2311    2.0560 H   0  0  0  0  0  0
   -6.6155   -0.4924   -2.0506 H   0  0  0  0  0  0
   -5.0913    1.4415   -2.0304 H   0  0  0  0  0  0
    2.5610    0.4010    1.6138 H   0  0  0  0  0  0
    1.7432   -0.8497    0.6468 H   0  0  0  0  0  0
    7.1845    1.4441    0.1180 H   0  0  0  0  0  0
    9.3664    0.4928   -0.5013 H   0  0  0  0  0  0
    9.6158   -1.9370   -0.7942 H   0  0  0  0  0  0
    7.6876   -3.4294   -0.4681 H   0  0  0  0  0  0
    5.4984   -2.4991    0.1581 H   0  0  0  0  0  0
    4.6841   -1.5184   -1.4388 H   0  0  0  0  0  0
    3.8958   -2.5583   -0.2283 H   0  0  0  0  0  0
    2.9096   -1.6533   -1.4016 H   0  0  0  0  0  0
  1  2  1  0  0  0
  1 19  1  0  0  0
  1 30  1  0  0  0
  1 31  1  0  0  0
  2  3  1  0  0  0
  2  8  1  0  0  0
  2 32  1  0  0  0
  3  4  1  0  0  0
  3 33  1  0  0  0
  3 34  1  0  0  0
  4  5  1  0  0  0
  4 35  1  0  0  0
  4 36  1  0  0  0
  5  6  1  0  0  0
  5  7  1  0  0  0
  5  9  1  0  0  0
  7  8  1  0  0  0
  7 37  1  0  0  0
  7 38  1  0  0  0
  8 39  1  0  0  0
  8 40  1  0  0  0
  9 10  1  0  0  0
  9 41  1  0  0  0
  9 42  1  0  0  0
 10 11  2  0  0  0
 10 15  1  0  0  0
 11 12  1  0  0  0
 11 43  1  0  0  0
 12 13  2  0  0  0
 12 44  1  0  0  0
 13 14  1  0  0  0
 13 16  1  0  0  0
 14 15  2  0  0  0
 14 45  1  0  0  0
 15 46  1  0  0  0
 16 17  2  0  0  0
 16 18  1  0  0  0
 19 20  1  0  0  0
 19 47  1  0  0  0
 19 48  1  0  0  0
 20 21  1  0  0  0
 20 29  1  0  0  0
 21 22  2  0  0  0
 21 23  1  0  0  0
 23 24  2  0  0  0
 23 28  1  0  0  0
 24 25  1  0  0  0
 24 49  1  0  0  0
 25 26  2  0  0  0
 25 50  1  0  0  0
 26 27  1  0  0  0
 26 51  1  0  0  0
 27 28  2  0  0  0
 27 52  1  0  0  0
 28 53  1  0  0  0
 29 54  1  0  0  0
 29 55  1  0  0  0
 29 56  1  0  0  0
M  CHG  3   5   1  16   1  18  -1
M  END
>  <Activity>
5.48149

>  <set>
1

>  <Min_dist>
999.9

>  <Avg_dist>
999.9

$$$$
2-33
  Cerius2 12110214483D 1   1.00000                          
 
 52 54  0  0  0  0  0  0  0  0999 V2000
    0.9156   -0.1216   -0.0593 C   0  0  0  0  0  0
   -0.4554    0.1658   -0.6746 C   0  0  0  0  0  0
   -1.4695   -0.8592   -0.1616 C   0  0  0  0  0  0
   -2.8327   -0.5896   -0.8062 C   0  0  0  0  0  0
   -3.2072    0.8084   -0.5533 N   0  0  0  0  0  0
   -2.2633    1.8710   -0.9256 C   0  0  0  0  0  0
   -0.9065    1.5739   -0.2796 C   0  0  0  0  0  0
   -4.3942    1.1104    0.0091 C   0  0  0  0  0  0
   -4.6365    2.2547    0.3399 O   0  0  0  0  0  0
   -5.4017    0.0498    0.2236 C   0  0  0  0  0  0
   -6.1793    0.0459    1.3827 C   0  0  0  0  0  0
   -7.1180   -0.9464    1.5765 C   0  0  0  0  0  0
   -7.2891   -1.9364    0.6252 C   0  0  0  0  0  0
   -6.5216   -1.9383   -0.5260 C   0  0  0  0  0  0
   -5.5834   -0.9485   -0.7347 C   0  0  0  0  0  0
    1.9296    0.9030   -0.5720 C   0  0  0  0  0  0
    3.2424    0.6278    0.0172 N   0  0  0  0  0  0
    4.1018   -0.2005   -0.6088 C   0  0  0  0  0  0
    3.7442   -0.8154   -1.5945 O   0  0  0  0  0  0
    5.4794   -0.3611   -0.0967 C   0  0  0  0  0  0
    6.0176   -1.6369    0.0786 C   0  0  0  0  0  0
    7.3039   -1.7799    0.5564 C   0  0  0  0  0  0
    8.0598   -0.6621    0.8621 C   0  0  0  0  0  0
    7.5322    0.6055    0.6906 C   0  0  0  0  0  0
    6.2493    0.7624    0.2081 C   0  0  0  0  0  0
    3.6211    1.2530    1.2868 C   0  0  0  0  0  0
    0.8480   -0.0539    1.0265 H   0  0  0  0  0  0
    1.2376   -1.1240   -0.3414 H   0  0  0  0  0  0
   -0.3877    0.0975   -1.7603 H   0  0  0  0  0  0
   -1.1357   -1.8634   -0.4229 H   0  0  0  0  0  0
   -1.5561   -0.7745    0.9217 H   0  0  0  0  0  0
   -2.7694   -0.7623   -1.8806 H   0  0  0  0  0  0
   -3.5803   -1.2527   -0.3709 H   0  0  0  0  0  0
   -2.1536    1.8990   -2.0098 H   0  0  0  0  0  0
   -2.6353    2.8316   -0.5691 H   0  0  0  0  0  0
   -0.9984    1.6357    0.8047 H   0  0  0  0  0  0
   -0.1719    2.3014   -0.6250 H   0  0  0  0  0  0
   -6.0462    0.8177    2.1263 H   0  0  0  0  0  0
   -7.7204   -0.9506    2.4729 H   0  0  0  0  0  0
   -8.0248   -2.7113    0.7821 H   0  0  0  0  0  0
   -6.6601   -2.7139   -1.2646 H   0  0  0  0  0  0
   -4.9851   -0.9509   -1.6339 H   0  0  0  0  0  0
    1.9973    0.8353   -1.6578 H   0  0  0  0  0  0
    1.6077    1.9054   -0.2898 H   0  0  0  0  0  0
    5.4284   -2.5103   -0.1590 H   0  0  0  0  0  0
    7.7216   -2.7665    0.6925 H   0  0  0  0  0  0
    9.0660   -0.7794    1.2365 H   0  0  0  0  0  0
    8.1275    1.4739    0.9311 H   0  0  0  0  0  0
    5.8387    1.7524    0.0744 H   0  0  0  0  0  0
    4.5856    0.8621    1.6109 H   0  0  0  0  0  0
    3.6928    2.3324    1.1532 H   0  0  0  0  0  0
    2.8666    1.0296    2.0411 H   0  0  0  0  0  0
  1  2  1  0  0  0
  1 16  1  0  0  0
  1 27  1  0  0  0
  1 28  1  0  0  0
  2  3  1  0  0  0
  2  7  1  0  0  0
  2 29  1  0  0  0
  3  4  1  0  0  0
  3 30  1  0  0  0
  3 31  1  0  0  0
  4  5  1  0  0  0
  4 32  1  0  0  0
  4 33  1  0  0  0
  5  6  1  0  0  0
  5  8  1  0  0  0
  6  7  1  0  0  0
  6 34  1  0  0  0
  6 35  1  0  0  0
  7 36  1  0  0  0
  7 37  1  0  0  0
  8  9  2  0  0  0
  8 10  1  0  0  0
 10 11  2  0  0  0
 10 15  1  0  0  0
 11 12  1  0  0  0
 11 38  1  0  0  0
 12 13  2  0  0  0
 12 39  1  0  0  0
 13 14  1  0  0  0
 13 40  1  0  0  0
 14 15  2  0  0  0
 14 41  1  0  0  0
 15 42  1  0  0  0
 16 17  1  0  0  0
 16 43  1  0  0  0
 16 44  1  0  0  0
 17 18  1  0  0  0
 17 26  1  0  0  0
 18 19  2  0  0  0
 18 20  1  0  0  0
 20 21  2  0  0  0
 20 25  1  0  0  0
 21 22  1  0  0  0
 21 45  1  0  0  0
 22 23  2  0  0  0
 22 46  1  0  0  0
 23 24  1  0  0  0
 23 47  1  0  0  0
 24 25  2  0  0  0
 24 48  1  0  0  0
 25 49  1  0  0  0
 26 50  1  0  0  0
 26 51  1  0  0  0
 26 52  1  0  0  0
M  END
>  <Activity>
4.284

>  <set>
1

>  <Min_dist>
999.9

>  <Avg_dist>
999.9

$$$$
2-34
  Cerius2 12110214483D 1   1.00000                          
 
 51 53  0  0  0  0  0  0  0  0999 V2000
   -0.0065    0.2136   -0.2013 C   0  0  0  0  0  0
   -1.4331    0.1363    0.3463 C   0  0  0  0  0  0
   -2.3466    1.0522   -0.4734 C   0  0  0  0  0  0
   -3.7852    0.9099    0.0282 C   0  0  0  0  0  0
   -4.2241   -0.4827   -0.1218 N   0  3  0  0  0  0
   -4.1333   -0.7607   -1.0875 H   0  0  0  0  0  0
   -3.3977   -1.3585    0.7176 C   0  0  0  0  0  0
   -1.9442   -1.3035    0.2425 C   0  0  0  0  0  0
   -5.6295   -0.5987    0.2896 C   0  0  0  0  0  0
   -6.5109    0.1954   -0.6766 C   0  0  0  0  0  0
   -8.0269    0.0897   -0.4991 C   0  0  0  0  0  0
   -7.2985    1.3765   -0.1060 C   0  0  0  0  0  0
    0.9048   -0.7019    0.6186 C   0  0  0  0  0  0
    2.2708   -0.6280    0.0942 N   0  0  0  0  0  0
    3.1307    0.2886    0.5809 C   0  0  0  0  0  0
    2.7398    1.1349    1.3609 O   0  0  0  0  0  0
    4.5496    0.2647    0.1661 C   0  0  0  0  0  0
    5.2135    1.4562   -0.1298 C   0  0  0  0  0  0
    6.5377    1.4269   -0.5159 C   0  0  0  0  0  0
    7.2073    0.2198   -0.6105 C   0  0  0  0  0  0
    6.5550   -0.9649   -0.3187 C   0  0  0  0  0  0
    5.2326   -0.9491    0.0741 C   0  0  0  0  0  0
    2.7019   -1.5503   -0.9591 C   0  0  0  0  0  0
    0.0004   -0.1058   -1.2435 H   0  0  0  0  0  0
    0.3536    1.2401   -0.1335 H   0  0  0  0  0  0
   -1.4407    0.4528    1.3893 H   0  0  0  0  0  0
   -2.0220    2.0865   -0.3595 H   0  0  0  0  0  0
   -2.2979    0.7684   -1.5247 H   0  0  0  0  0  0
   -3.8328    1.1942    1.0794 H   0  0  0  0  0  0
   -4.4382    1.5608   -0.5532 H   0  0  0  0  0  0
   -3.4536   -1.0259    1.7541 H   0  0  0  0  0  0
   -3.7647   -2.3823    0.6452 H   0  0  0  0  0  0
   -1.8871   -1.6362   -0.7939 H   0  0  0  0  0  0
   -1.3320   -1.9531    0.8682 H   0  0  0  0  0  0
   -5.9271   -1.6472    0.2747 H   0  0  0  0  0  0
   -5.7468   -0.2020    1.2980 H   0  0  0  0  0  0
   -6.1285    0.2890   -1.6930 H   0  0  0  0  0  0
   -8.6419    0.1142   -1.3987 H   0  0  0  0  0  0
   -8.3963   -0.5455    0.3059 H   0  0  0  0  0  0
   -7.1887    1.5879    0.9576 H   0  0  0  0  0  0
   -7.4343    2.2476   -0.7471 H   0  0  0  0  0  0
    0.8979   -0.3826    1.6608 H   0  0  0  0  0  0
    0.5447   -1.7284    0.5508 H   0  0  0  0  0  0
    4.6918    2.3990   -0.0570 H   0  0  0  0  0  0
    7.0526    2.3482   -0.7451 H   0  0  0  0  0  0
    8.2436    0.2023   -0.9139 H   0  0  0  0  0  0
    7.0833   -1.9038   -0.3945 H   0  0  0  0  0  0
    4.7246   -1.8745    0.3020 H   0  0  0  0  0  0
    3.7084   -1.2862   -1.2837 H   0  0  0  0  0  0
    2.7004   -2.5695   -0.5727 H   0  0  0  0  0  0
    2.0177   -1.4814   -1.8048 H   0  0  0  0  0  0
  1  2  1  0  0  0
  1 13  1  0  0  0
  1 24  1  0  0  0
  1 25  1  0  0  0
  2  3  1  0  0  0
  2  8  1  0  0  0
  2 26  1  0  0  0
  3  4  1  0  0  0
  3 27  1  0  0  0
  3 28  1  0  0  0
  4  5  1  0  0  0
  4 29  1  0  0  0
  4 30  1  0  0  0
  5  6  1  0  0  0
  5  7  1  0  0  0
  5  9  1  0  0  0
  7  8  1  0  0  0
  7 31  1  0  0  0
  7 32  1  0  0  0
  8 33  1  0  0  0
  8 34  1  0  0  0
  9 10  1  0  0  0
  9 35  1  0  0  0
  9 36  1  0  0  0
 10 11  1  0  0  0
 10 12  1  0  0  0
 10 37  1  0  0  0
 11 12  1  0  0  0
 11 38  1  0  0  0
 11 39  1  0  0  0
 12 40  1  0  0  0
 12 41  1  0  0  0
 13 14  1  0  0  0
 13 42  1  0  0  0
 13 43  1  0  0  0
 14 15  1  0  0  0
 14 23  1  0  0  0
 15 16  2  0  0  0
 15 17  1  0  0  0
 17 18  2  0  0  0
 17 22  1  0  0  0
 18 19  1  0  0  0
 18 44  1  0  0  0
 19 20  2  0  0  0
 19 45  1  0  0  0
 20 21  1  0  0  0
 20 46  1  0  0  0
 21 22  2  0  0  0
 21 47  1  0  0  0
 22 48  1  0  0  0
 23 49  1  0  0  0
 23 50  1  0  0  0
 23 51  1  0  0  0
M  CHG  1   5   1
M  END
>  <Activity>
4.42022

>  <set>
1

>  <Min_dist>
999.9

>  <Avg_dist>
999.9

$$$$
2-35
  Cerius2 12110214483D 1   1.00000                          
 
 60 62  0  0  0  0  0  0  0  0999 V2000
    1.0160    0.7190   -0.4076 C   0  0  0  0  0  0
   -0.3851    1.1309    0.0486 C   0  0  0  0  0  0
   -1.0868    1.8945   -1.0783 C   0  0  0  0  0  0
   -2.5146    2.2339   -0.6450 C   0  0  0  0  0  0
   -3.2501    0.9963   -0.3586 N   0  3  0  0  0  0
   -3.2358    0.4015   -1.1735 H   0  0  0  0  0  0
   -2.6244    0.2946    0.7686 C   0  0  0  0  0  0
   -1.2008   -0.1194    0.3898 C   0  0  0  0  0  0
   -4.6409    1.3230   -0.0170 C   0  0  0  0  0  0
   -5.4090    0.0339    0.2819 C   0  0  0  0  0  0
   -6.8576    0.3742    0.6377 C   0  0  0  0  0  0
   -7.6256   -0.9149    0.9366 C   0  0  0  0  0  0
   -7.6025   -1.8199   -0.2968 C   0  0  0  0  0  0
   -6.1539   -2.1602   -0.6527 C   0  0  0  0  0  0
   -5.3858   -0.8711   -0.9515 C   0  0  0  0  0  0
    1.7156   -0.0436    0.7193 C   0  0  0  0  0  0
    3.0572   -0.4380    0.2824 N   0  0  0  0  0  0
    4.1038    0.3843    0.4942 C   0  0  0  0  0  0
    3.9201    1.4980    0.9454 O   0  0  0  0  0  0
    5.4753   -0.0681    0.1776 C   0  0  0  0  0  0
    6.4364    0.8512   -0.2458 C   0  0  0  0  0  0
    7.7145    0.4225   -0.5391 C   0  0  0  0  0  0
    8.0443   -0.9154   -0.4148 C   0  0  0  0  0  0
    7.0963   -1.8318    0.0045 C   0  0  0  0  0  0
    5.8162   -1.4154    0.3065 C   0  0  0  0  0  0
    3.2612   -1.7263   -0.3846 C   0  0  0  0  0  0
    0.9384    0.0786   -1.2862 H   0  0  0  0  0  0
    1.5934    1.6093   -0.6568 H   0  0  0  0  0  0
   -0.3088    1.7692    0.9289 H   0  0  0  0  0  0
   -0.5418    2.8147   -1.2887 H   0  0  0  0  0  0
   -1.1159    1.2748   -1.9746 H   0  0  0  0  0  0
   -2.4842    2.8537    0.2511 H   0  0  0  0  0  0
   -3.0169    2.7777   -1.4450 H   0  0  0  0  0  0
   -2.5917    0.9557    1.6346 H   0  0  0  0  0  0
   -3.2078   -0.5933    1.0123 H   0  0  0  0  0  0
   -1.2324   -0.7809   -0.4761 H   0  0  0  0  0  0
   -0.7374   -0.6387    1.2286 H   0  0  0  0  0  0
   -4.6574    1.9678    0.8617 H   0  0  0  0  0  0
   -5.1093    1.8390   -0.8551 H   0  0  0  0  0  0
   -4.9406   -0.4821    1.1200 H   0  0  0  0  0  0
   -6.8741    1.0190    1.5164 H   0  0  0  0  0  0
   -7.3260    0.8902   -0.2004 H   0  0  0  0  0  0
   -7.1572   -1.4309    1.7747 H   0  0  0  0  0  0
   -8.6576   -0.6725    1.1900 H   0  0  0  0  0  0
   -8.1496   -2.7383   -0.0839 H   0  0  0  0  0  0
   -8.0709   -1.3039   -1.1350 H   0  0  0  0  0  0
   -5.6854   -2.6762    0.1855 H   0  0  0  0  0  0
   -6.1374   -2.8049   -1.5313 H   0  0  0  0  0  0
   -5.8542   -0.3551   -1.7896 H   0  0  0  0  0  0
   -4.3538   -1.1135   -1.2050 H   0  0  0  0  0  0
    1.7933    0.5968    1.5978 H   0  0  0  0  0  0
    1.1383   -0.9339    0.9685 H   0  0  0  0  0  0
    6.1800    1.8957   -0.3440 H   0  0  0  0  0  0
    8.4591    1.1328   -0.8669 H   0  0  0  0  0  0
    9.0460   -1.2459   -0.6463 H   0  0  0  0  0  0
    7.3601   -2.8748    0.0995 H   0  0  0  0  0  0
    5.0772   -2.1317    0.6340 H   0  0  0  0  0  0
    4.0902   -1.6443   -1.0875 H   0  0  0  0  0  0
    3.4901   -2.4887    0.3600 H   0  0  0  0  0  0
    2.3549   -2.0044   -0.9226 H   0  0  0  0  0  0
  1  2  1  0  0  0
  1 16  1  0  0  0
  1 27  1  0  0  0
  1 28  1  0  0  0
  2  3  1  0  0  0
  2  8  1  0  0  0
  2 29  1  0  0  0
  3  4  1  0  0  0
  3 30  1  0  0  0
  3 31  1  0  0  0
  4  5  1  0  0  0
  4 32  1  0  0  0
  4 33  1  0  0  0
  5  6  1  0  0  0
  5  7  1  0  0  0
  5  9  1  0  0  0
  7  8  1  0  0  0
  7 34  1  0  0  0
  7 35  1  0  0  0
  8 36  1  0  0  0
  8 37  1  0  0  0
  9 10  1  0  0  0
  9 38  1  0  0  0
  9 39  1  0  0  0
 10 11  1  0  0  0
 10 15  1  0  0  0
 10 40  1  0  0  0
 11 12  1  0  0  0
 11 41  1  0  0  0
 11 42  1  0  0  0
 12 13  1  0  0  0
 12 43  1  0  0  0
 12 44  1  0  0  0
 13 14  1  0  0  0
 13 45  1  0  0  0
 13 46  1  0  0  0
 14 15  1  0  0  0
 14 47  1  0  0  0
 14 48  1  0  0  0
 15 49  1  0  0  0
 15 50  1  0  0  0
 16 17  1  0  0  0
 16 51  1  0  0  0
 16 52  1  0  0  0
 17 18  1  0  0  0
 17 26  1  0  0  0
 18 19  2  0  0  0
 18 20  1  0  0  0
 20 21  2  0  0  0
 20 25  1  0  0  0
 21 22  1  0  0  0
 21 53  1  0  0  0
 22 23  2  0  0  0
 22 54  1  0  0  0
 23 24  1  0  0  0
 23 55  1  0  0  0
 24 25  2  0  0  0
 24 56  1  0  0  0
 25 57  1  0  0  0
 26 58  1  0  0  0
 26 59  1  0  0  0
 26 60  1  0  0  0
M  CHG  1   5   1
M  END
>  <Activity>
6.38722

>  <set>
1

>  <Min_dist>
999.9

>  <Avg_dist>
999.9

$$$$
2-3C
  Cerius2 12110214483D 1   1.00000                          
 
 54 56  0  0  0  0  0  0  0  0999 V2000
    0.4550   -1.6402    0.0008 C   0  0  0  0  0  0
   -0.9720   -1.5573   -0.5448 C   0  0  0  0  0  0
   -1.8210   -2.6737    0.0701 C   0  0  0  0  0  0
   -3.2647   -2.5368   -0.4181 C   0  0  0  0  0  0
   -3.8008   -1.2321   -0.0118 N   0  3  0  0  0  0
   -3.7324   -1.1389    0.9906 H   0  0  0  0  0  0
   -3.0359   -0.1571   -0.6550 C   0  0  0  0  0  0
   -1.5833   -0.2025   -0.1760 C   0  0  0  0  0  0
   -5.2098   -1.1360   -0.4160 C   0  0  0  0  0  0
   -5.7616    0.2031    0.0006 C   0  0  0  0  0  0
   -5.6813    1.2818   -0.8602 C   0  0  0  0  0  0
   -6.1874    2.5101   -0.4781 C   0  0  0  0  0  0
   -6.7743    2.6596    0.7645 C   0  0  0  0  0  0
   -6.8554    1.5807    1.6249 C   0  0  0  0  0  0
   -6.3532    0.3513    1.2411 C   0  0  0  0  0  0
    1.3019   -0.5243   -0.6144 C   0  0  0  0  0  0
    2.6683   -0.6036   -0.0920 N   0  0  0  0  0  0
    3.5971    0.2852   -0.4966 C   0  0  0  0  0  0
    3.3011    1.1526   -1.2950 O   0  0  0  0  0  0
    4.9761    0.2050    0.0306 C   0  0  0  0  0  0
    5.9402    1.1238   -0.3863 C   0  0  0  0  0  0
    7.2252    1.0438    0.1100 C   0  0  0  0  0  0
    7.5587    0.0553    1.0185 C   0  0  0  0  0  0
    6.6074   -0.8588    1.4360 C   0  0  0  0  0  0
    5.3178   -0.7864    0.9520 C   0  0  0  0  0  0
    8.2677    2.0350   -0.3391 C   0  0  0  0  0  0
    0.4367   -1.5269    1.0848 H   0  0  0  0  0  0
    0.8866   -2.6075   -0.2562 H   0  0  0  0  0  0
   -0.9546   -1.6676   -1.6290 H   0  0  0  0  0  0
   -1.4242   -3.6422   -0.2341 H   0  0  0  0  0  0
   -1.7951   -2.5941    1.1568 H   0  0  0  0  0  0
   -3.2895   -2.6168   -1.5049 H   0  0  0  0  0  0
   -3.8719   -3.3302    0.0176 H   0  0  0  0  0  0
   -3.0655   -0.2878   -1.7368 H   0  0  0  0  0  0
   -3.4741    0.8062   -0.3942 H   0  0  0  0  0  0
   -1.5525   -0.0716    0.9057 H   0  0  0  0  0  0
   -1.0167    0.5953   -0.6561 H   0  0  0  0  0  0
   -5.2852   -1.2392   -1.4984 H   0  0  0  0  0  0
   -5.7809   -1.9299    0.0654 H   0  0  0  0  0  0
   -5.2228    1.1650   -1.8310 H   0  0  0  0  0  0
   -6.1240    3.3530   -1.1503 H   0  0  0  0  0  0
   -7.1690    3.6194    1.0633 H   0  0  0  0  0  0
   -7.3136    1.6976    2.5959 H   0  0  0  0  0  0
   -6.4166   -0.4916    1.9133 H   0  0  0  0  0  0
    1.3202   -0.6375   -1.6983 H   0  0  0  0  0  0
    0.8703    0.4431   -0.3574 H   0  0  0  0  0  0
    2.9044   -1.2959    0.5452 H   0  0  0  0  0  0
    5.6813    1.8955   -1.0961 H   0  0  0  0  0  0
    8.5661   -0.0034    1.4034 H   0  0  0  0  0  0
    6.8743   -1.6281    2.1455 H   0  0  0  0  0  0
    4.5761   -1.5002    1.2789 H   0  0  0  0  0  0
    8.2590    2.8981    0.3266 H   0  0  0  0  0  0
    9.2510    1.5654   -0.3123 H   0  0  0  0  0  0
    8.0472    2.3585   -1.3563 H   0  0  0  0  0  0
  1  2  1  0  0  0
  1 16  1  0  0  0
  1 27  1  0  0  0
  1 28  1  0  0  0
  2  3  1  0  0  0
  2  8  1  0  0  0
  2 29  1  0  0  0
  3  4  1  0  0  0
  3 30  1  0  0  0
  3 31  1  0  0  0
  4  5  1  0  0  0
  4 32  1  0  0  0
  4 33  1  0  0  0
  5  6  1  0  0  0
  5  7  1  0  0  0
  5  9  1  0  0  0
  7  8  1  0  0  0
  7 34  1  0  0  0
  7 35  1  0  0  0
  8 36  1  0  0  0
  8 37  1  0  0  0
  9 10  1  0  0  0
  9 38  1  0  0  0
  9 39  1  0  0  0
 10 11  2  0  0  0
 10 15  1  0  0  0
 11 12  1  0  0  0
 11 40  1  0  0  0
 12 13  2  0  0  0
 12 41  1  0  0  0
 13 14  1  0  0  0
 13 42  1  0  0  0
 14 15  2  0  0  0
 14 43  1  0  0  0
 15 44  1  0  0  0
 16 17  1  0  0  0
 16 45  1  0  0  0
 16 46  1  0  0  0
 17 18  1  0  0  0
 17 47  1  0  0  0
 18 19  2  0  0  0
 18 20  1  0  0  0
 20 21  2  0  0  0
 20 25  1  0  0  0
 21 22  1  0  0  0
 21 48  1  0  0  0
 22 23  2  0  0  0
 22 26  1  0  0  0
 23 24  1  0  0  0
 23 49  1  0  0  0
 24 25  2  0  0  0
 24 50  1  0  0  0
 25 51  1  0  0  0
 26 52  1  0  0  0
 26 53  1  0  0  0
 26 54  1  0  0  0
M  CHG  1   5   1
M  END
>  <Activity>
6.3279

>  <set>
1

>  <Min_dist>
999.9

>  <Avg_dist>
999.9

$$$$
2-3D
  Cerius2 12110214483D 1   1.00000                          
 
 54 56  0  0  0  0  0  0  0  0999 V2000
    0.4695   -1.5404   -0.0187 C   0  0  0  0  0  0
   -0.9743   -1.5258   -0.5247 C   0  0  0  0  0  0
   -1.7711   -2.6349    0.1684 C   0  0  0  0  0  0
   -3.2317   -2.5640   -0.2824 C   0  0  0  0  0  0
   -3.7954   -1.2571    0.0764 N   0  3  0  0  0  0
   -3.7013   -1.1129    1.0706 H   0  0  0  0  0  0
   -3.0822   -0.1933   -0.6405 C   0  0  0  0  0  0
   -1.6159   -0.1729   -0.2035 C   0  0  0  0  0  0
   -5.2176   -1.2218   -0.2895 C   0  0  0  0  0  0
   -5.7979    0.1195    0.0783 C   0  0  0  0  0  0
   -5.7750    1.1565   -0.8355 C   0  0  0  0  0  0
   -6.3071    2.3869   -0.4981 C   0  0  0  0  0  0
   -6.8626    2.5801    0.7529 C   0  0  0  0  0  0
   -6.8863    1.5428    1.6664 C   0  0  0  0  0  0
   -6.3580    0.3112    1.3274 C   0  0  0  0  0  0
    1.2641   -0.4319   -0.7120 C   0  0  0  0  0  0
    2.6466   -0.4459   -0.2275 N   0  0  0  0  0  0
    3.5361    0.4486   -0.7022 C   0  0  0  0  0  0
    3.1912    1.2669   -1.5322 O   0  0  0  0  0  0
    4.9313    0.4345   -0.2132 C   0  0  0  0  0  0
    5.8549    1.3594   -0.7027 C   0  0  0  0  0  0
    7.1551    1.3411   -0.2419 C   0  0  0  0  0  0
    7.5444    0.4084    0.7030 C   0  0  0  0  0  0
    6.6338   -0.5112    1.1923 C   0  0  0  0  0  0
    5.3291   -0.5001    0.7441 C   0  0  0  0  0  0
    8.9667    0.3937    1.2010 C   0  0  0  0  0  0
    0.4787   -1.3746    1.0586 H   0  0  0  0  0  0
    0.9229   -2.5063   -0.2416 H   0  0  0  0  0  0
   -0.9845   -1.6887   -1.6024 H   0  0  0  0  0  0
   -1.3538   -3.6053   -0.1005 H   0  0  0  0  0  0
   -1.7167   -2.5013    1.2488 H   0  0  0  0  0  0
   -3.2849   -2.6979   -1.3628 H   0  0  0  0  0  0
   -3.8017   -3.3524    0.2091 H   0  0  0  0  0  0
   -3.1386   -0.3777   -1.7133 H   0  0  0  0  0  0
   -3.5419    0.7686   -0.4134 H   0  0  0  0  0  0
   -1.5583    0.0118    0.8692 H   0  0  0  0  0  0
   -1.0877    0.6165   -0.7383 H   0  0  0  0  0  0
   -5.3206   -1.3802   -1.3630 H   0  0  0  0  0  0
   -5.7503   -2.0074    0.2464 H   0  0  0  0  0  0
   -5.3410    1.0055   -1.8129 H   0  0  0  0  0  0
   -6.2886    3.1973   -1.2117 H   0  0  0  0  0  0
   -7.2778    3.5416    1.0168 H   0  0  0  0  0  0
   -7.3200    1.6939    2.6439 H   0  0  0  0  0  0
   -6.3766   -0.4993    2.0410 H   0  0  0  0  0  0
    1.2550   -0.5977   -1.7893 H   0  0  0  0  0  0
    0.8108    0.5340   -0.4892 H   0  0  0  0  0  0
    2.9218   -1.0989    0.4349 H   0  0  0  0  0  0
    5.5525    2.0875   -1.4408 H   0  0  0  0  0  0
    7.8708    2.0562   -0.6198 H   0  0  0  0  0  0
    6.9440   -1.2367    1.9298 H   0  0  0  0  0  0
    4.6191   -1.2182    1.1271 H   0  0  0  0  0  0
    9.0535    1.0437    2.0717 H   0  0  0  0  0  0
    9.2443   -0.6234    1.4778 H   0  0  0  0  0  0
    9.6310    0.7502    0.4138 H   0  0  0  0  0  0
  1  2  1  0  0  0
  1 16  1  0  0  0
  1 27  1  0  0  0
  1 28  1  0  0  0
  2  3  1  0  0  0
  2  8  1  0  0  0
  2 29  1  0  0  0
  3  4  1  0  0  0
  3 30  1  0  0  0
  3 31  1  0  0  0
  4  5  1  0  0  0
  4 32  1  0  0  0
  4 33  1  0  0  0
  5  6  1  0  0  0
  5  7  1  0  0  0
  5  9  1  0  0  0
  7  8  1  0  0  0
  7 34  1  0  0  0
  7 35  1  0  0  0
  8 36  1  0  0  0
  8 37  1  0  0  0
  9 10  1  0  0  0
  9 38  1  0  0  0
  9 39  1  0  0  0
 10 11  2  0  0  0
 10 15  1  0  0  0
 11 12  1  0  0  0
 11 40  1  0  0  0
 12 13  2  0  0  0
 12 41  1  0  0  0
 13 14  1  0  0  0
 13 42  1  0  0  0
 14 15  2  0  0  0
 14 43  1  0  0  0
 15 44  1  0  0  0
 16 17  1  0  0  0
 16 45  1  0  0  0
 16 46  1  0  0  0
 17 18  1  0  0  0
 17 47  1  0  0  0
 18 19  2  0  0  0
 18 20  1  0  0  0
 20 21  2  0  0  0
 20 25  1  0  0  0
 21 22  1  0  0  0
 21 48  1  0  0  0
 22 23  2  0  0  0
 22 49  1  0  0  0
 23 24  1  0  0  0
 23 26  1  0  0  0
 24 25  2  0  0  0
 24 50  1  0  0  0
 25 51  1  0  0  0
 26 52  1  0  0  0
 26 53  1  0  0  0
 26 54  1  0  0  0
M  CHG  1   5   1
M  END
>  <Activity>
6.74473

>  <set>
1

>  <Min_dist>
999.9

>  <Avg_dist>
999.9

$$$$
2-3F
  Cerius2 12110214483D 1   1.00000                          
 
 53 55  0  0  0  0  0  0  0  0999 V2000
   -0.3799   -1.8219   -0.0698 C   0  0  0  0  0  0
   -1.7937   -1.6225   -0.6196 C   0  0  0  0  0  0
   -2.7131   -2.7216   -0.0792 C   0  0  0  0  0  0
   -4.1411   -2.4709   -0.5685 C   0  0  0  0  0  0
   -4.6042   -1.1635   -0.0882 N   0  3  0  0  0  0
   -4.5412   -1.1345    0.9184 H   0  0  0  0  0  0
   -3.7710   -0.0990   -0.6600 C   0  0  0  0  0  0
   -2.3287   -0.2584   -0.1742 C   0  0  0  0  0  0
   -6.0009   -0.9604   -0.4959 C   0  0  0  0  0  0
   -6.4778    0.3816   -0.0034 C   0  0  0  0  0  0
   -6.3254    1.5032   -0.7970 C   0  0  0  0  0  0
   -6.7629    2.7342   -0.3452 C   0  0  0  0  0  0
   -7.3532    2.8436    0.8999 C   0  0  0  0  0  0
   -7.5065    1.7219    1.6932 C   0  0  0  0  0  0
   -7.0729    0.4901    1.2396 C   0  0  0  0  0  0
    0.5372   -0.7231   -0.6105 C   0  0  0  0  0  0
    1.8910   -0.9140   -0.0841 N   0  0  0  0  0  0
    2.8745   -0.0590   -0.4278 C   0  0  0  0  0  0
    2.6383    0.8705   -1.1746 O   0  0  0  0  0  0
    4.2407   -0.2517    0.1035 C   0  0  0  0  0  0
    5.2613    0.6319   -0.2505 C   0  0  0  0  0  0
    6.5340    0.4467    0.2493 C   0  0  0  0  0  0
    6.7994   -0.6120    1.0993 C   0  0  0  0  0  0
    5.7919   -1.4917    1.4542 C   0  0  0  0  0  0
    4.5140   -1.3148    0.9659 C   0  0  0  0  0  0
    7.6179    1.3825   -0.1254 N   0  3  0  0  0  0
    8.7418    1.2202    0.3149 O   0  0  0  0  0  0
    7.3858    2.3148   -0.8741 O   0  5  0  0  0  0
   -0.4031   -1.7726    1.0189 H   0  0  0  0  0  0
   -0.0029   -2.7959   -0.3815 H   0  0  0  0  0  0
   -1.7713   -1.6687   -1.7083 H   0  0  0  0  0  0
   -2.3704   -3.6920   -0.4383 H   0  0  0  0  0  0
   -2.6942   -2.7087    1.0106 H   0  0  0  0  0  0
   -4.1588   -2.4842   -1.6583 H   0  0  0  0  0  0
   -4.7982   -3.2517   -0.1857 H   0  0  0  0  0  0
   -3.7966   -0.1629   -1.7478 H   0  0  0  0  0  0
   -4.1549    0.8713   -0.3448 H   0  0  0  0  0  0
   -2.3019   -0.1944    0.9136 H   0  0  0  0  0  0
   -1.7113    0.5318   -0.6013 H   0  0  0  0  0  0
   -6.0705   -0.9942   -1.5831 H   0  0  0  0  0  0
   -6.6224   -1.7466   -0.0673 H   0  0  0  0  0  0
   -5.8642    1.4177   -1.7698 H   0  0  0  0  0  0
   -6.6432    3.6105   -0.9650 H   0  0  0  0  0  0
   -7.6944    3.8055    1.2532 H   0  0  0  0  0  0
   -7.9674    1.8074    2.6661 H   0  0  0  0  0  0
   -7.1926   -0.3862    1.8593 H   0  0  0  0  0  0
    0.5604   -0.7723   -1.6992 H   0  0  0  0  0  0
    0.1602    0.2509   -0.2988 H   0  0  0  0  0  0
    2.0795   -1.6558    0.5118 H   0  0  0  0  0  0
    5.0555    1.4585   -0.9143 H   0  0  0  0  0  0
    7.7974   -0.7527    1.4874 H   0  0  0  0  0  0
    6.0056   -2.3161    2.1182 H   0  0  0  0  0  0
    3.7285   -2.0020    1.2436 H   0  0  0  0  0  0
  1  2  1  0  0  0
  1 16  1  0  0  0
  1 29  1  0  0  0
  1 30  1  0  0  0
  2  3  1  0  0  0
  2  8  1  0  0  0
  2 31  1  0  0  0
  3  4  1  0  0  0
  3 32  1  0  0  0
  3 33  1  0  0  0
  4  5  1  0  0  0
  4 34  1  0  0  0
  4 35  1  0  0  0
  5  6  1  0  0  0
  5  7  1  0  0  0
  5  9  1  0  0  0
  7  8  1  0  0  0
  7 36  1  0  0  0
  7 37  1  0  0  0
  8 38  1  0  0  0
  8 39  1  0  0  0
  9 10  1  0  0  0
  9 40  1  0  0  0
  9 41  1  0  0  0
 10 11  2  0  0  0
 10 15  1  0  0  0
 11 12  1  0  0  0
 11 42  1  0  0  0
 12 13  2  0  0  0
 12 43  1  0  0  0
 13 14  1  0  0  0
 13 44  1  0  0  0
 14 15  2  0  0  0
 14 45  1  0  0  0
 15 46  1  0  0  0
 16 17  1  0  0  0
 16 47  1  0  0  0
 16 48  1  0  0  0
 17 18  1  0  0  0
 17 49  1  0  0  0
 18 19  2  0  0  0
 18 20  1  0  0  0
 20 21  2  0  0  0
 20 25  1  0  0  0
 21 22  1  0  0  0
 21 50  1  0  0  0
 22 23  2  0  0  0
 22 26  1  0  0  0
 23 24  1  0  0  0
 23 51  1  0  0  0
 24 25  2  0  0  0
 24 52  1  0  0  0
 25 53  1  0  0  0
 26 27  2  0  0  0
 26 28  1  0  0  0
M  CHG  3   5   1  26   1  28  -1
M  END
>  <Activity>
6.63827

>  <set>
1

>  <Min_dist>
999.9

>  <Avg_dist>
999.9

$$$$
2-3G
  Cerius2 12110214483D 1   1.00000                          
 
 53 55  0  0  0  0  0  0  0  0999 V2000
   -0.3488   -1.5678   -0.1425 C   0  0  0  0  0  0
   -1.8084   -1.5327   -0.5999 C   0  0  0  0  0  0
   -2.5931   -2.6422    0.1062 C   0  0  0  0  0  0
   -4.0671   -2.5514   -0.2947 C   0  0  0  0  0  0
   -4.6051   -1.2435    0.0981 N   0  3  0  0  0  0
   -4.4765   -1.1123    1.0903 H   0  0  0  0  0  0
   -3.9052   -0.1780   -0.6295 C   0  0  0  0  0  0
   -2.4250   -0.1775   -0.2415 C   0  0  0  0  0  0
   -6.0383   -1.1896   -0.2198 C   0  0  0  0  0  0
   -6.5921    0.1528    0.1831 C   0  0  0  0  0  0
   -6.5889    1.2006   -0.7186 C   0  0  0  0  0  0
   -7.0968    2.4320   -0.3491 C   0  0  0  0  0  0
   -7.6084    2.6154    0.9220 C   0  0  0  0  0  0
   -7.6125    1.5674    1.8233 C   0  0  0  0  0  0
   -7.1085    0.3348    1.4524 C   0  0  0  0  0  0
    0.4337   -0.4588   -0.8487 C   0  0  0  0  0  0
    1.8313   -0.4924   -0.4108 N   0  0  0  0  0  0
    2.7137    0.3989   -0.9042 C   0  0  0  0  0  0
    2.3499    1.2306   -1.7125 O   0  0  0  0  0  0
    4.1242    0.3650   -0.4622 C   0  0  0  0  0  0
    5.0405    1.2866   -0.9712 C   0  0  0  0  0  0
    6.3552    1.2495   -0.5547 C   0  0  0  0  0  0
    6.7661    0.3012    0.3652 C   0  0  0  0  0  0
    5.8629   -0.6156    0.8733 C   0  0  0  0  0  0
    4.5439   -0.5851    0.4701 C   0  0  0  0  0  0
    8.1783    0.2669    0.8073 N   0  3  0  0  0  0
    8.5429   -0.5668    1.6169 O   0  0  0  0  0  0
    8.9757    1.0724    0.3614 O   0  5  0  0  0  0
   -0.3022   -1.4153    0.9358 H   0  0  0  0  0  0
    0.0869   -2.5353   -0.3918 H   0  0  0  0  0  0
   -1.8561   -1.6823   -1.6785 H   0  0  0  0  0  0
   -2.1951   -3.6133   -0.1879 H   0  0  0  0  0  0
   -2.5015   -2.5224    1.1857 H   0  0  0  0  0  0
   -4.1576   -2.6716   -1.3743 H   0  0  0  0  0  0
   -4.6286   -3.3401    0.2061 H   0  0  0  0  0  0
   -3.9991   -0.3488   -1.7019 H   0  0  0  0  0  0
   -4.3471    0.7855   -0.3759 H   0  0  0  0  0  0
   -2.3299   -0.0065    0.8308 H   0  0  0  0  0  0
   -1.9067    0.6131   -0.7841 H   0  0  0  0  0  0
   -6.1785   -1.3339   -1.2910 H   0  0  0  0  0  0
   -6.5609   -1.9764    0.3243 H   0  0  0  0  0  0
   -6.1892    1.0573   -1.7116 H   0  0  0  0  0  0
   -7.0936    3.2508   -1.0533 H   0  0  0  0  0  0
   -8.0046    3.5777    1.2109 H   0  0  0  0  0  0
   -8.0119    1.7108    2.8164 H   0  0  0  0  0  0
   -7.1116   -0.4841    2.1566 H   0  0  0  0  0  0
    0.3871   -0.6114   -1.9270 H   0  0  0  0  0  0
   -0.0020    0.5087   -0.5995 H   0  0  0  0  0  0
    2.1216   -1.1561    0.2343 H   0  0  0  0  0  0
    4.7212    2.0269   -1.6898 H   0  0  0  0  0  0
    7.0652    1.9620   -0.9477 H   0  0  0  0  0  0
    6.1902   -1.3537    1.5905 H   0  0  0  0  0  0
    3.8398   -1.3012    0.8675 H   0  0  0  0  0  0
  1  2  1  0  0  0
  1 16  1  0  0  0
  1 29  1  0  0  0
  1 30  1  0  0  0
  2  3  1  0  0  0
  2  8  1  0  0  0
  2 31  1  0  0  0
  3  4  1  0  0  0
  3 32  1  0  0  0
  3 33  1  0  0  0
  4  5  1  0  0  0
  4 34  1  0  0  0
  4 35  1  0  0  0
  5  6  1  0  0  0
  5  7  1  0  0  0
  5  9  1  0  0  0
  7  8  1  0  0  0
  7 36  1  0  0  0
  7 37  1  0  0  0
  8 38  1  0  0  0
  8 39  1  0  0  0
  9 10  1  0  0  0
  9 40  1  0  0  0
  9 41  1  0  0  0
 10 11  2  0  0  0
 10 15  1  0  0  0
 11 12  1  0  0  0
 11 42  1  0  0  0
 12 13  2  0  0  0
 12 43  1  0  0  0
 13 14  1  0  0  0
 13 44  1  0  0  0
 14 15  2  0  0  0
 14 45  1  0  0  0
 15 46  1  0  0  0
 16 17  1  0  0  0
 16 47  1  0  0  0
 16 48  1  0  0  0
 17 18  1  0  0  0
 17 49  1  0  0  0
 18 19  2  0  0  0
 18 20  1  0  0  0
 20 21  2  0  0  0
 20 25  1  0  0  0
 21 22  1  0  0  0
 21 50  1  0  0  0
 22 23  2  0  0  0
 22 51  1  0  0  0
 23 24  1  0  0  0
 23 26  1  0  0  0
 24 25  2  0  0  0
 24 52  1  0  0  0
 25 53  1  0  0  0
 26 27  2  0  0  0
 26 28  1  0  0  0
M  CHG  3   5   1  26   1  28  -1
M  END
>  <Activity>
7.25964

>  <set>
1

>  <Min_dist>
999.9

>  <Avg_dist>
999.9

$$$$
2-3I
  Cerius2 12110214483D 1   1.00000                          
 
 53 55  0  0  0  0  0  0  0  0999 V2000
    0.1071   -1.5160   -0.1554 C   0  0  0  0  0  0
   -1.3499   -1.4950   -0.6221 C   0  0  0  0  0  0
   -2.1206   -2.6326    0.0540 C   0  0  0  0  0  0
   -3.5932   -2.5573   -0.3551 C   0  0  0  0  0  0
   -4.1555   -1.2674    0.0625 N   0  3  0  0  0  0
   -4.0357   -1.1560    1.0582 H   0  0  0  0  0  0
   -3.4686   -0.1748   -0.6367 C   0  0  0  0  0  0
   -1.9912   -0.1584   -0.2384 C   0  0  0  0  0  0
   -5.5872   -1.2302   -0.2641 C   0  0  0  0  0  0
   -6.1660    0.0937    0.1641 C   0  0  0  0  0  0
   -6.1742    1.1610   -0.7143 C   0  0  0  0  0  0
   -6.7051    2.3754   -0.3215 C   0  0  0  0  0  0
   -7.2281    2.5223    0.9496 C   0  0  0  0  0  0
   -7.2206    1.4548    1.8278 C   0  0  0  0  0  0
   -6.6937    0.2391    1.4335 C   0  0  0  0  0  0
    0.8757   -0.3791   -0.8318 C   0  0  0  0  0  0
    2.2707   -0.3992   -0.3849 N   0  0  0  0  0  0
    3.1414    0.5172   -0.8525 C   0  0  0  0  0  0
    2.7692    1.3602   -1.6447 O   0  0  0  0  0  0
    4.5514    0.4969   -0.4008 C   0  0  0  0  0  0
    5.4525    1.4461   -0.8854 C   0  0  0  0  0  0
    6.7646    1.4285   -0.4656 C   0  0  0  0  0  0
    7.1933    0.4593    0.4461 C   0  0  0  0  0  0
    6.2896   -0.4910    0.9308 C   0  0  0  0  0  0
    4.9768   -0.4680    0.5135 C   0  0  0  0  0  0
    8.5968    0.4390    0.8957 C   0  0  0  0  0  0
    8.9680   -0.4016    1.6863 O   0  0  0  0  0  0
    0.1440   -1.3865    0.9262 H   0  0  0  0  0  0
    0.5605   -2.4705   -0.4228 H   0  0  0  0  0  0
   -1.3879   -1.6216   -1.7041 H   0  0  0  0  0  0
   -1.7045   -3.5903   -0.2586 H   0  0  0  0  0  0
   -2.0382   -2.5350    1.1365 H   0  0  0  0  0  0
   -3.6745   -2.6552   -1.4377 H   0  0  0  0  0  0
   -4.1448   -3.3659    0.1243 H   0  0  0  0  0  0
   -3.5526   -0.3235   -1.7133 H   0  0  0  0  0  0
   -3.9283    0.7755   -0.3651 H   0  0  0  0  0  0
   -1.9061   -0.0095    0.8380 H   0  0  0  0  0  0
   -1.4826    0.6524   -0.7600 H   0  0  0  0  0  0
   -5.7179   -1.3532   -1.3393 H   0  0  0  0  0  0
   -6.1003   -2.0373    0.2589 H   0  0  0  0  0  0
   -5.7657    1.0462   -1.7074 H   0  0  0  0  0  0
   -6.7109    3.2095   -1.0076 H   0  0  0  0  0  0
   -7.6422    3.4713    1.2568 H   0  0  0  0  0  0
   -7.6289    1.5697    2.8210 H   0  0  0  0  0  0
   -6.6879   -0.5950    2.1195 H   0  0  0  0  0  0
    0.8387   -0.5086   -1.9134 H   0  0  0  0  0  0
    0.4223    0.5754   -0.5644 H   0  0  0  0  0  0
    2.5678   -1.0721    0.2475 H   0  0  0  0  0  0
    5.1212    2.1946   -1.5900 H   0  0  0  0  0  0
    7.4618    2.1630   -0.8410 H   0  0  0  0  0  0
    6.6195   -1.2403    1.6352 H   0  0  0  0  0  0
    4.2785   -1.2020    0.8877 H   0  0  0  0  0  0
    9.2946    1.1731    0.5208 H   0  0  0  0  0  0
  1  2  1  0  0  0
  1 16  1  0  0  0
  1 28  1  0  0  0
  1 29  1  0  0  0
  2  3  1  0  0  0
  2  8  1  0  0  0
  2 30  1  0  0  0
  3  4  1  0  0  0
  3 31  1  0  0  0
  3 32  1  0  0  0
  4  5  1  0  0  0
  4 33  1  0  0  0
  4 34  1  0  0  0
  5  6  1  0  0  0
  5  7  1  0  0  0
  5  9  1  0  0  0
  7  8  1  0  0  0
  7 35  1  0  0  0
  7 36  1  0  0  0
  8 37  1  0  0  0
  8 38  1  0  0  0
  9 10  1  0  0  0
  9 39  1  0  0  0
  9 40  1  0  0  0
 10 11  2  0  0  0
 10 15  1  0  0  0
 11 12  1  0  0  0
 11 41  1  0  0  0
 12 13  2  0  0  0
 12 42  1  0  0  0
 13 14  1  0  0  0
 13 43  1  0  0  0
 14 15  2  0  0  0
 14 44  1  0  0  0
 15 45  1  0  0  0
 16 17  1  0  0  0
 16 46  1  0  0  0
 16 47  1  0  0  0
 17 18  1  0  0  0
 17 48  1  0  0  0
 18 19  2  0  0  0
 18 20  1  0  0  0
 20 21  2  0  0  0
 20 25  1  0  0  0
 21 22  1  0  0  0
 21 49  1  0  0  0
 22 23  2  0  0  0
 22 50  1  0  0  0
 23 24  1  0  0  0
 23 26  1  0  0  0
 24 25  2  0  0  0
 24 51  1  0  0  0
 25 52  1  0  0  0
 26 27  2  0  0  0
 26 53  1  0  0  0
M  CHG  1   5   1
M  END
>  <Activity>
6.92082

>  <set>
1

>  <Min_dist>
999.9

>  <Avg_dist>
999.9

$$$$
2-3J
  Cerius2 12110214483D 1   1.00000                          
 
 51 53  0  0  0  0  0  0  0  0999 V2000
   -0.0736   -1.5637   -0.0561 C   0  0  0  0  0  0
   -1.5285   -1.5497   -0.5292 C   0  0  0  0  0  0
   -2.3170   -2.6366    0.2072 C   0  0  0  0  0  0
   -3.7870   -2.5650   -0.2116 C   0  0  0  0  0  0
   -4.3331   -1.2460    0.1298 N   0  3  0  0  0  0
   -4.2151   -1.0798    1.1180 H   0  0  0  0  0  0
   -3.6290   -0.2042   -0.6275 C   0  0  0  0  0  0
   -2.1529   -0.1850   -0.2247 C   0  0  0  0  0  0
   -5.7630   -1.2082   -0.2043 C   0  0  0  0  0  0
   -6.3251    0.1455    0.1457 C   0  0  0  0  0  0
   -6.3159    1.1612   -0.7920 C   0  0  0  0  0  0
   -6.8315    2.4030   -0.4709 C   0  0  0  0  0  0
   -7.3567    2.6289    0.7877 C   0  0  0  0  0  0
   -7.3667    1.6130    1.7250 C   0  0  0  0  0  0
   -6.8551    0.3699    1.4025 C   0  0  0  0  0  0
    0.7127   -0.4774   -0.7927 C   0  0  0  0  0  0
    2.1059   -0.4908   -0.3396 N   0  0  0  0  0  0
    2.9905    0.3858   -0.8549 C   0  0  0  0  0  0
    2.6324    1.1875   -1.6955 O   0  0  0  0  0  0
    4.3959    0.3722   -0.3979 C   0  0  0  0  0  0
    5.3145    1.2791   -0.9298 C   0  0  0  0  0  0
    6.6245    1.2616   -0.4995 C   0  0  0  0  0  0
    7.0297    0.3465    0.4581 C   0  0  0  0  0  0
    6.1228   -0.5556    0.9895 C   0  0  0  0  0  0
    4.8088   -0.5436    0.5716 C   0  0  0  0  0  0
    8.6808    0.3298    0.9941 Cl  0  0  0  0  0  0
   -0.0385   -1.3735    1.0166 H   0  0  0  0  0  0
    0.3677   -2.5378   -0.2669 H   0  0  0  0  0  0
   -1.5646   -1.7371   -1.6024 H   0  0  0  0  0  0
   -1.9129   -3.6160   -0.0487 H   0  0  0  0  0  0
   -2.2368   -2.4788    1.2828 H   0  0  0  0  0  0
   -3.8660   -2.7231   -1.2872 H   0  0  0  0  0  0
   -4.3512   -3.3376    0.3108 H   0  0  0  0  0  0
   -3.7114   -0.4126   -1.6942 H   0  0  0  0  0  0
   -4.0766    0.7661   -0.4122 H   0  0  0  0  0  0
   -2.0694    0.0237    0.8419 H   0  0  0  0  0  0
   -1.6316    0.5880   -0.7893 H   0  0  0  0  0  0
   -5.8918   -1.3903   -1.2713 H   0  0  0  0  0  0
   -6.2888   -1.9773    0.3615 H   0  0  0  0  0  0
   -5.9056    0.9847   -1.7753 H   0  0  0  0  0  0
   -6.8236    3.1967   -1.2032 H   0  0  0  0  0  0
   -7.7588    3.5993    1.0388 H   0  0  0  0  0  0
   -7.7768    1.7896    2.7084 H   0  0  0  0  0  0
   -6.8630   -0.4238    2.1349 H   0  0  0  0  0  0
    0.6776   -0.6677   -1.8654 H   0  0  0  0  0  0
    0.2715    0.4967   -0.5818 H   0  0  0  0  0  0
    2.3916   -1.1306    0.3311 H   0  0  0  0  0  0
    4.9999    1.9925   -1.6770 H   0  0  0  0  0  0
    7.3361    1.9626   -0.9102 H   0  0  0  0  0  0
    6.4445   -1.2668    1.7359 H   0  0  0  0  0  0
    4.1025   -1.2475    0.9866 H   0  0  0  0  0  0
  1  2  1  0  0  0
  1 16  1  0  0  0
  1 27  1  0  0  0
  1 28  1  0  0  0
  2  3  1  0  0  0
  2  8  1  0  0  0
  2 29  1  0  0  0
  3  4  1  0  0  0
  3 30  1  0  0  0
  3 31  1  0  0  0
  4  5  1  0  0  0
  4 32  1  0  0  0
  4 33  1  0  0  0
  5  6  1  0  0  0
  5  7  1  0  0  0
  5  9  1  0  0  0
  7  8  1  0  0  0
  7 34  1  0  0  0
  7 35  1  0  0  0
  8 36  1  0  0  0
  8 37  1  0  0  0
  9 10  1  0  0  0
  9 38  1  0  0  0
  9 39  1  0  0  0
 10 11  2  0  0  0
 10 15  1  0  0  0
 11 12  1  0  0  0
 11 40  1  0  0  0
 12 13  2  0  0  0
 12 41  1  0  0  0
 13 14  1  0  0  0
 13 42  1  0  0  0
 14 15  2  0  0  0
 14 43  1  0  0  0
 15 44  1  0  0  0
 16 17  1  0  0  0
 16 45  1  0  0  0
 16 46  1  0  0  0
 17 18  1  0  0  0
 17 47  1  0  0  0
 18 19  2  0  0  0
 18 20  1  0  0  0
 20 21  2  0  0  0
 20 25  1  0  0  0
 21 22  1  0  0  0
 21 48  1  0  0  0
 22 23  2  0  0  0
 22 49  1  0  0  0
 23 24  1  0  0  0
 23 26  1  0  0  0
 24 25  2  0  0  0
 24 50  1  0  0  0
 25 51  1  0  0  0
M  CHG  1   5   1
M  END
>  <Activity>
6.74473

>  <set>
1

>  <Min_dist>
999.9

>  <Avg_dist>
999.9

$$$$
2-3K
  Cerius2 12110214483D 1   1.00000                          
 
 51 53  0  0  0  0  0  0  0  0999 V2000
    0.3746   -1.5457   -0.0250 C   0  0  0  0  0  0
   -1.0707   -1.5304   -0.5269 C   0  0  0  0  0  0
   -1.8671   -2.6362    0.1718 C   0  0  0  0  0  0
   -3.3289   -2.5645   -0.2749 C   0  0  0  0  0  0
   -3.8896   -1.2557    0.0817 N   0  3  0  0  0  0
   -3.7924   -1.1087    1.0752 H   0  0  0  0  0  0
   -3.1769   -0.1951   -0.6405 C   0  0  0  0  0  0
   -1.7093   -0.1756   -0.2078 C   0  0  0  0  0  0
   -5.3129   -1.2194   -0.2802 C   0  0  0  0  0  0
   -5.8900    0.1239    0.0853 C   0  0  0  0  0  0
   -5.8682    1.1581   -0.8316 C   0  0  0  0  0  0
   -6.3976    2.3903   -0.4963 C   0  0  0  0  0  0
   -6.9491    2.5881    0.7558 C   0  0  0  0  0  0
   -6.9717    1.5535    1.6723 C   0  0  0  0  0  0
   -6.4463    0.3201    1.3355 C   0  0  0  0  0  0
    1.1688   -0.4404   -0.7240 C   0  0  0  0  0  0
    2.5527   -0.4550   -0.2434 N   0  0  0  0  0  0
    3.4421    0.4367   -0.7233 C   0  0  0  0  0  0
    3.0960    1.2531   -1.5549 O   0  0  0  0  0  0
    4.8376    0.4219   -0.2388 C   0  0  0  0  0  0
    5.7612    1.3448   -0.7343 C   0  0  0  0  0  0
    7.0620    1.3266   -0.2788 C   0  0  0  0  0  0
    7.4541    0.3942    0.6697 C   0  0  0  0  0  0
    6.5412   -0.5246    1.1647 C   0  0  0  0  0  0
    5.2364   -0.5112    0.7206 C   0  0  0  0  0  0
    8.7303    0.3807    1.1127 F   0  0  0  0  0  0
    0.3871   -1.3767    1.0517 H   0  0  0  0  0  0
    0.8258   -2.5129   -0.2464 H   0  0  0  0  0  0
   -1.0843   -1.6965   -1.6041 H   0  0  0  0  0  0
   -1.4521   -3.6080   -0.0954 H   0  0  0  0  0  0
   -1.8094   -2.4996    1.2517 H   0  0  0  0  0  0
   -3.3855   -2.7016   -1.3548 H   0  0  0  0  0  0
   -3.8987   -3.3506    0.2206 H   0  0  0  0  0  0
   -3.2368   -0.3826   -1.7125 H   0  0  0  0  0  0
   -3.6346    0.7682   -0.4149 H   0  0  0  0  0  0
   -1.6483    0.0122    0.8642 H   0  0  0  0  0  0
   -1.1815    0.6115   -0.7464 H   0  0  0  0  0  0
   -5.4192   -1.3808   -1.3530 H   0  0  0  0  0  0
   -5.8452   -2.0026    0.2595 H   0  0  0  0  0  0
   -5.4373    1.0036   -1.8098 H   0  0  0  0  0  0
   -6.3799    3.1986   -1.2124 H   0  0  0  0  0  0
   -7.3621    3.5509    1.0180 H   0  0  0  0  0  0
   -7.4023    1.7081    2.6506 H   0  0  0  0  0  0
   -6.4639   -0.4882    2.0516 H   0  0  0  0  0  0
    1.1563   -0.6094   -1.8007 H   0  0  0  0  0  0
    0.7175    0.5268   -0.5026 H   0  0  0  0  0  0
    2.8289   -1.1065    0.4201 H   0  0  0  0  0  0
    5.4569    2.0711   -1.4733 H   0  0  0  0  0  0
    7.7772    2.0396   -0.6616 H   0  0  0  0  0  0
    6.8519   -1.2489    1.9031 H   0  0  0  0  0  0
    4.5260   -1.2270    1.1071 H   0  0  0  0  0  0
  1  2  1  0  0  0
  1 16  1  0  0  0
  1 27  1  0  0  0
  1 28  1  0  0  0
  2  3  1  0  0  0
  2  8  1  0  0  0
  2 29  1  0  0  0
  3  4  1  0  0  0
  3 30  1  0  0  0
  3 31  1  0  0  0
  4  5  1  0  0  0
  4 32  1  0  0  0
  4 33  1  0  0  0
  5  6  1  0  0  0
  5  7  1  0  0  0
  5  9  1  0  0  0
  7  8  1  0  0  0
  7 34  1  0  0  0
  7 35  1  0  0  0
  8 36  1  0  0  0
  8 37  1  0  0  0
  9 10  1  0  0  0
  9 38  1  0  0  0
  9 39  1  0  0  0
 10 11  2  0  0  0
 10 15  1  0  0  0
 11 12  1  0  0  0
 11 40  1  0  0  0
 12 13  2  0  0  0
 12 41  1  0  0  0
 13 14  1  0  0  0
 13 42  1  0  0  0
 14 15  2  0  0  0
 14 43  1  0  0  0
 15 44  1  0  0  0
 16 17  1  0  0  0
 16 45  1  0  0  0
 16 46  1  0  0  0
 17 18  1  0  0  0
 17 47  1  0  0  0
 18 19  2  0  0  0
 18 20  1  0  0  0
 20 21  2  0  0  0
 20 25  1  0  0  0
 21 22  1  0  0  0
 21 48  1  0  0  0
 22 23  2  0  0  0
 22 49  1  0  0  0
 23 24  1  0  0  0
 23 26  1  0  0  0
 24 25  2  0  0  0
 24 50  1  0  0  0
 25 51  1  0  0  0
M  CHG  1   5   1
M  END
>  <Activity>
7.07058

>  <set>
1

>  <Min_dist>
999.9

>  <Avg_dist>
999.9

$$$$
2-3L
  Cerius2 12110214483D 1   1.00000                          
 
 56 58  0  0  0  0  0  0  0  0999 V2000
   -0.2811   -1.5550   -0.1785 C   0  0  0  0  0  0
   -1.7412   -1.5143   -0.6340 C   0  0  0  0  0  0
   -2.5219   -2.6416    0.0478 C   0  0  0  0  0  0
   -3.9964   -2.5466   -0.3499 C   0  0  0  0  0  0
   -4.5381   -1.2494    0.0723 N   0  3  0  0  0  0
   -4.4092   -1.1399    1.0670 H   0  0  0  0  0  0
   -3.8421   -0.1659   -0.6320 C   0  0  0  0  0  0
   -2.3616   -0.1693   -0.2451 C   0  0  0  0  0  0
   -5.9717   -1.1929   -0.2434 C   0  0  0  0  0  0
   -6.5294    0.1385    0.1896 C   0  0  0  0  0  0
   -6.5301    1.2061   -0.6886 C   0  0  0  0  0  0
   -7.0416    2.4273   -0.2914 C   0  0  0  0  0  0
   -7.5528    2.5809    0.9837 C   0  0  0  0  0  0
   -7.5529    1.5131    1.8616 C   0  0  0  0  0  0
   -7.0453    0.2906    1.4630 C   0  0  0  0  0  0
    0.4975   -0.4282   -0.8605 C   0  0  0  0  0  0
    1.8955   -0.4672   -0.4244 N   0  0  0  0  0  0
    2.7747    0.4376   -0.8985 C   0  0  0  0  0  0
    2.4078    1.2858   -1.6877 O   0  0  0  0  0  0
    4.1877    0.3983   -0.4577 C   0  0  0  0  0  0
    5.0978    1.3355   -0.9490 C   0  0  0  0  0  0
    6.4127    1.3002   -0.5393 C   0  0  0  0  0  0
    6.8353    0.3251    0.3689 C   0  0  0  0  0  0
    5.9228   -0.6132    0.8603 C   0  0  0  0  0  0
    4.6072   -0.5725    0.4531 C   0  0  0  0  0  0
    8.2419    0.2859    0.8077 C   0  0  0  0  0  0
    9.0328    1.0994    0.3810 O   0  0  0  0  0  0
    8.6968   -0.7656    1.7868 C   0  0  0  0  0  0
   -0.2341   -1.4263    0.9028 H   0  0  0  0  0  0
    0.1574   -2.5154   -0.4495 H   0  0  0  0  0  0
   -1.7892   -1.6401   -1.7156 H   0  0  0  0  0  0
   -2.1210   -3.6048   -0.2681 H   0  0  0  0  0  0
   -2.4298   -2.5456    1.1297 H   0  0  0  0  0  0
   -4.0873   -2.6430   -1.4319 H   0  0  0  0  0  0
   -4.5551   -3.3479    0.1336 H   0  0  0  0  0  0
   -3.9363   -0.3131   -1.7079 H   0  0  0  0  0  0
   -4.2869    0.7904   -0.3567 H   0  0  0  0  0  0
   -2.2662   -0.0219    0.8307 H   0  0  0  0  0  0
   -1.8462    0.6347   -0.7704 H   0  0  0  0  0  0
   -6.1123   -1.3138   -1.3175 H   0  0  0  0  0  0
   -6.4915   -1.9932    0.2834 H   0  0  0  0  0  0
   -6.1307    1.0861   -1.6848 H   0  0  0  0  0  0
   -7.0415    3.2616   -0.9772 H   0  0  0  0  0  0
   -7.9517    3.5353    1.2943 H   0  0  0  0  0  0
   -7.9519    1.6331    2.8579 H   0  0  0  0  0  0
   -7.0454   -0.5437    2.1488 H   0  0  0  0  0  0
    0.4505   -0.5569   -1.9419 H   0  0  0  0  0  0
    0.0589    0.5322   -0.5895 H   0  0  0  0  0  0
    2.1884   -1.1441    0.2055 H   0  0  0  0  0  0
    4.7711    2.0885   -1.6509 H   0  0  0  0  0  0
    7.1168    2.0254   -0.9199 H   0  0  0  0  0  0
    6.2481   -1.3670    1.5620 H   0  0  0  0  0  0
    3.9021   -1.2972    0.8326 H   0  0  0  0  0  0
    9.7598   -0.6367    1.9906 H   0  0  0  0  0  0
    8.1341   -0.6655    2.7149 H   0  0  0  0  0  0
    8.5255   -1.7551    1.3629 H   0  0  0  0  0  0
  1  2  1  0  0  0
  1 16  1  0  0  0
  1 29  1  0  0  0
  1 30  1  0  0  0
  2  3  1  0  0  0
  2  8  1  0  0  0
  2 31  1  0  0  0
  3  4  1  0  0  0
  3 32  1  0  0  0
  3 33  1  0  0  0
  4  5  1  0  0  0
  4 34  1  0  0  0
  4 35  1  0  0  0
  5  6  1  0  0  0
  5  7  1  0  0  0
  5  9  1  0  0  0
  7  8  1  0  0  0
  7 36  1  0  0  0
  7 37  1  0  0  0
  8 38  1  0  0  0
  8 39  1  0  0  0
  9 10  1  0  0  0
  9 40  1  0  0  0
  9 41  1  0  0  0
 10 11  2  0  0  0
 10 15  1  0  0  0
 11 12  1  0  0  0
 11 42  1  0  0  0
 12 13  2  0  0  0
 12 43  1  0  0  0
 13 14  1  0  0  0
 13 44  1  0  0  0
 14 15  2  0  0  0
 14 45  1  0  0  0
 15 46  1  0  0  0
 16 17  1  0  0  0
 16 47  1  0  0  0
 16 48  1  0  0  0
 17 18  1  0  0  0
 17 49  1  0  0  0
 18 19  2  0  0  0
 18 20  1  0  0  0
 20 21  2  0  0  0
 20 25  1  0  0  0
 21 22  1  0  0  0
 21 50  1  0  0  0
 22 23  2  0  0  0
 22 51  1  0  0  0
 23 24  1  0  0  0
 23 26  1  0  0  0
 24 25  2  0  0  0
 24 52  1  0  0  0
 25 53  1  0  0  0
 26 27  2  0  0  0
 26 28  1  0  0  0
 28 54  1  0  0  0
 28 55  1  0  0  0
 28 56  1  0  0  0
M  CHG  1   5   1
M  END
>  <Activity>
7.29243

>  <set>
1

>  <Min_dist>
999.9

>  <Avg_dist>
999.9

$$$$
2-3M
  Cerius2 12110214483D 1   1.00000                          
 
 67 70  0  0  0  0  0  0  0  0999 V2000
   -2.9056    1.5118   -0.8342 C   0  0  0  0  0  0
   -4.4073    1.6063   -0.5574 C   0  0  0  0  0  0
   -5.1563    1.8449   -1.8717 C   0  0  0  0  0  0
   -6.6619    1.8591   -1.5991 C   0  0  0  0  0  0
   -7.0715    0.5705   -1.0277 N   0  3  0  0  0  0
   -6.8104   -0.1736   -1.6572 H   0  0  0  0  0  0
   -6.4117    0.3678    0.2676 C   0  0  0  0  0  0
   -4.8964    0.2963    0.0669 C   0  0  0  0  0  0
   -8.5283    0.5613   -0.8387 C   0  0  0  0  0  0
   -8.9503   -0.7611   -0.2521 C   0  0  0  0  0  0
   -9.0036   -0.9233    1.1197 C   0  0  0  0  0  0
   -9.3907   -2.1364    1.6577 C   0  0  0  0  0  0
   -9.7250   -3.1871    0.8240 C   0  0  0  0  0  0
   -9.6726   -3.0247   -0.5478 C   0  0  0  0  0  0
   -9.2896   -1.8103   -1.0858 C   0  0  0  0  0  0
   -2.1588    1.2734    0.4797 C   0  0  0  0  0  0
   -0.7208    1.1829    0.2146 N   0  0  0  0  0  0
    0.1399    0.9739    1.2305 C   0  0  0  0  0  0
   -0.2770    0.8605    2.3667 O   0  0  0  0  0  0
    1.5910    0.8825    0.9630 C   0  0  0  0  0  0
    2.4850    0.6661    2.0128 C   0  0  0  0  0  0
    3.8379    0.5814    1.7563 C   0  0  0  0  0  0
    4.3091    0.7109    0.4619 C   0  0  0  0  0  0
    3.4283    0.9255   -0.5833 C   0  0  0  0  0  0
    2.0725    1.0065   -0.3412 C   0  0  0  0  0  0
    6.0387    0.6026    0.1431 S   0  0  0  0  0  0
    6.1881    1.3652   -1.0465 O   0  0  0  0  0  0
    6.6126    1.0091    1.3779 O   0  0  0  0  0  0
    6.2927   -1.1676   -0.1614 C   0  0  0  0  0  0
    7.7488   -1.4231   -0.4538 C   0  0  0  0  0  0
    8.6210   -1.7117    0.5791 C   0  0  0  0  0  0
    9.9566   -1.9460    0.3108 C   0  0  0  0  0  0
   10.4200   -1.8922   -0.9905 C   0  0  0  0  0  0
    9.5477   -1.6045   -2.0235 C   0  0  0  0  0  0
    8.2112   -1.3744   -1.7557 C   0  0  0  0  0  0
   -2.7133    0.6839   -1.5168 H   0  0  0  0  0  0
   -2.5599    2.4421   -1.2850 H   0  0  0  0  0  0
   -4.6005    2.4321    0.1273 H   0  0  0  0  0  0
   -4.8539    2.8031   -2.2942 H   0  0  0  0  0  0
   -4.9212    1.0459   -2.5748 H   0  0  0  0  0  0
   -6.8959    2.6585   -0.8961 H   0  0  0  0  0  0
   -7.1982    2.0289   -2.5327 H   0  0  0  0  0  0
   -6.6511    1.1990    0.9308 H   0  0  0  0  0  0
   -6.7632   -0.5633    0.7122 H   0  0  0  0  0  0
   -4.6560   -0.5349   -0.5960 H   0  0  0  0  0  0
   -4.4083    0.1475    1.0300 H   0  0  0  0  0  0
   -8.8118    1.3665   -0.1609 H   0  0  0  0  0  0
   -9.0204    0.7058   -1.8005 H   0  0  0  0  0  0
   -8.7425   -0.1024    1.7710 H   0  0  0  0  0  0
   -9.4317   -2.2633    2.7295 H   0  0  0  0  0  0
  -10.0267   -4.1351    1.2444 H   0  0  0  0  0  0
   -9.9334   -3.8457   -1.1991 H   0  0  0  0  0  0
   -9.2487   -1.6834   -2.1575 H   0  0  0  0  0  0
   -2.3510    2.1012    1.1622 H   0  0  0  0  0  0
   -2.5044    0.3431    0.9304 H   0  0  0  0  0  0
   -0.3881    1.2734   -0.6921 H   0  0  0  0  0  0
    2.1185    0.5656    3.0237 H   0  0  0  0  0  0
    4.5307    0.4140    2.5677 H   0  0  0  0  0  0
    3.8026    1.0257   -1.5914 H   0  0  0  0  0  0
    1.3860    1.1737   -1.1580 H   0  0  0  0  0  0
    5.9943   -1.7344    0.7205 H   0  0  0  0  0  0
    5.6905   -1.4795   -1.0147 H   0  0  0  0  0  0
    8.2589   -1.7538    1.5957 H   0  0  0  0  0  0
   10.6382   -2.1708    1.1179 H   0  0  0  0  0  0
   11.4637   -2.0746   -1.2000 H   0  0  0  0  0  0
    9.9098   -1.5621   -3.0401 H   0  0  0  0  0  0
    7.5296   -1.1496   -2.5627 H   0  0  0  0  0  0
  1  2  1  0  0  0
  1 16  1  0  0  0
  1 36  1  0  0  0
  1 37  1  0  0  0
  2  3  1  0  0  0
  2  8  1  0  0  0
  2 38  1  0  0  0
  3  4  1  0  0  0
  3 39  1  0  0  0
  3 40  1  0  0  0
  4  5  1  0  0  0
  4 41  1  0  0  0
  4 42  1  0  0  0
  5  6  1  0  0  0
  5  7  1  0  0  0
  5  9  1  0  0  0
  7  8  1  0  0  0
  7 43  1  0  0  0
  7 44  1  0  0  0
  8 45  1  0  0  0
  8 46  1  0  0  0
  9 10  1  0  0  0
  9 47  1  0  0  0
  9 48  1  0  0  0
 10 11  2  0  0  0
 10 15  1  0  0  0
 11 12  1  0  0  0
 11 49  1  0  0  0
 12 13  2  0  0  0
 12 50  1  0  0  0
 13 14  1  0  0  0
 13 51  1  0  0  0
 14 15  2  0  0  0
 14 52  1  0  0  0
 15 53  1  0  0  0
 16 17  1  0  0  0
 16 54  1  0  0  0
 16 55  1  0  0  0
 17 18  1  0  0  0
 17 56  1  0  0  0
 18 19  2  0  0  0
 18 20  1  0  0  0
 20 21  2  0  0  0
 20 25  1  0  0  0
 21 22  1  0  0  0
 21 57  1  0  0  0
 22 23  2  0  0  0
 22 58  1  0  0  0
 23 24  1  0  0  0
 23 26  1  0  0  0
 24 25  2  0  0  0
 24 59  1  0  0  0
 25 60  1  0  0  0
 26 27  2  0  0  0
 26 28  2  0  0  0
 26 29  1  0  0  0
 29 30  1  0  0  0
 29 61  1  0  0  0
 29 62  1  0  0  0
 30 31  2  0  0  0
 30 35  1  0  0  0
 31 32  1  0  0  0
 31 63  1  0  0  0
 32 33  2  0  0  0
 32 64  1  0  0  0
 33 34  1  0  0  0
 33 65  1  0  0  0
 34 35  2  0  0  0
 34 66  1  0  0  0
 35 67  1  0  0  0
M  CHG  1   5   1
M  END
>  <Activity>
7.5376

>  <set>
1

>  <Min_dist>
999.9

>  <Avg_dist>
999.9

$$$$
2-3N
  Cerius2 12110214483D 1   1.00000                          
 
 50 52  0  0  0  0  0  0  0  0999 V2000
    0.8603   -1.5189    0.0323 C   0  0  0  0  0  0
   -0.5716   -1.5062   -0.5065 C   0  0  0  0  0  0
   -1.3759   -2.6318    0.1503 C   0  0  0  0  0  0
   -2.8263   -2.5639   -0.3328 C   0  0  0  0  0  0
   -3.4076   -1.2669    0.0338 N   0  3  0  0  0  0
   -3.3374   -1.1381    1.0321 H   0  0  0  0  0  0
   -2.6860   -0.1867   -0.6494 C   0  0  0  0  0  0
   -1.2302   -0.1631   -0.1786 C   0  0  0  0  0  0
   -4.8213   -1.2356   -0.3642 C   0  0  0  0  0  0
   -5.4196    0.0955    0.0116 C   0  0  0  0  0  0
   -5.3834    1.1473   -0.8847 C   0  0  0  0  0  0
   -5.9322    2.3683   -0.5400 C   0  0  0  0  0  0
   -6.5176    2.5374    0.7008 C   0  0  0  0  0  0
   -6.5546    1.4854    1.5967 C   0  0  0  0  0  0
   -6.0097    0.2631    1.2504 C   0  0  0  0  0  0
    1.6625   -0.3939   -0.6247 C   0  0  0  0  0  0
    3.0336   -0.4061   -0.1088 N   0  0  0  0  0  0
    3.9271    0.5021   -0.5485 C   0  0  0  0  0  0
    3.5954    1.3310   -1.3728 O   0  0  0  0  0  0
    5.3138    0.4898   -0.0267 C   0  0  0  0  0  0
    5.6701   -0.4180    0.8735 N   0  0  0  0  0  0
    6.8904   -0.4634    1.3619 C   0  0  0  0  0  0
    7.8554    0.4422    0.9514 C   0  0  0  0  0  0
    7.5259    1.4074    0.0125 C   0  0  0  0  0  0
    6.2342    1.4276   -0.4894 C   0  0  0  0  0  0
    0.8436   -1.3705    1.1120 H   0  0  0  0  0  0
    1.3257   -2.4779   -0.1955 H   0  0  0  0  0  0
   -0.5559   -1.6517   -1.5866 H   0  0  0  0  0  0
   -0.9455   -3.5948   -0.1245 H   0  0  0  0  0  0
   -1.3473   -2.5154    1.2336 H   0  0  0  0  0  0
   -2.8538   -2.6807   -1.4162 H   0  0  0  0  0  0
   -3.4016   -3.3641    0.1327 H   0  0  0  0  0  0
   -2.7165   -0.3541   -1.7261 H   0  0  0  0  0  0
   -3.1578    0.7682   -0.4177 H   0  0  0  0  0  0
   -1.1986    0.0046    0.8980 H   0  0  0  0  0  0
   -0.6957    0.6385   -0.6883 H   0  0  0  0  0  0
   -4.8985   -1.3774   -1.4422 H   0  0  0  0  0  0
   -5.3604   -2.0335    0.1467 H   0  0  0  0  0  0
   -4.9261    1.0152   -1.8541 H   0  0  0  0  0  0
   -5.9033    3.1903   -1.2400 H   0  0  0  0  0  0
   -6.9457    3.4916    0.9704 H   0  0  0  0  0  0
   -7.0116    1.6176    2.5663 H   0  0  0  0  0  0
   -6.0386   -0.5589    1.9503 H   0  0  0  0  0  0
    1.6792   -0.5423   -1.7045 H   0  0  0  0  0  0
    1.1971    0.5651   -0.3970 H   0  0  0  0  0  0
    3.2983   -1.0677    0.5492 H   0  0  0  0  0  0
    7.1437   -1.2167    2.0933 H   0  0  0  0  0  0
    8.8545    0.3968    1.3592 H   0  0  0  0  0  0
    8.2603    2.1244   -0.3235 H   0  0  0  0  0  0
    5.9430    2.1654   -1.2224 H   0  0  0  0  0  0
  1  2  1  0  0  0
  1 16  1  0  0  0
  1 26  1  0  0  0
  1 27  1  0  0  0
  2  3  1  0  0  0
  2  8  1  0  0  0
  2 28  1  0  0  0
  3  4  1  0  0  0
  3 29  1  0  0  0
  3 30  1  0  0  0
  4  5  1  0  0  0
  4 31  1  0  0  0
  4 32  1  0  0  0
  5  6  1  0  0  0
  5  7  1  0  0  0
  5  9  1  0  0  0
  7  8  1  0  0  0
  7 33  1  0  0  0
  7 34  1  0  0  0
  8 35  1  0  0  0
  8 36  1  0  0  0
  9 10  1  0  0  0
  9 37  1  0  0  0
  9 38  1  0  0  0
 10 11  2  0  0  0
 10 15  1  0  0  0
 11 12  1  0  0  0
 11 39  1  0  0  0
 12 13  2  0  0  0
 12 40  1  0  0  0
 13 14  1  0  0  0
 13 41  1  0  0  0
 14 15  2  0  0  0
 14 42  1  0  0  0
 15 43  1  0  0  0
 16 17  1  0  0  0
 16 44  1  0  0  0
 16 45  1  0  0  0
 17 18  1  0  0  0
 17 46  1  0  0  0
 18 19  2  0  0  0
 18 20  1  0  0  0
 20 21  2  0  0  0
 20 25  1  0  0  0
 21 22  1  0  0  0
 22 23  2  0  0  0
 22 47  1  0  0  0
 23 24  1  0  0  0
 23 48  1  0  0  0
 24 25  2  0  0  0
 24 49  1  0  0  0
 25 50  1  0  0  0
M  CHG  1   5   1
M  END
>  <Activity>
6.09691

>  <set>
1

>  <Min_dist>
999.9

>  <Avg_dist>
999.9

$$$$
2-3P
  Cerius2 12110214483D 1   1.00000                          
 
 50 52  0  0  0  0  0  0  0  0999 V2000
    0.8491   -1.5193    0.0288 C   0  0  0  0  0  0
   -0.5836   -1.5070   -0.5079 C   0  0  0  0  0  0
   -1.3873   -2.6314    0.1517 C   0  0  0  0  0  0
   -2.8383   -2.5638   -0.3293 C   0  0  0  0  0  0
   -3.4188   -1.2661    0.0363 N   0  3  0  0  0  0
   -3.3470   -1.1358    1.0342 H   0  0  0  0  0  0
   -2.6979   -0.1870   -0.6496 C   0  0  0  0  0  0
   -1.2414   -0.1632   -0.1810 C   0  0  0  0  0  0
   -4.8331   -1.2350   -0.3597 C   0  0  0  0  0  0
   -5.4304    0.0969    0.0150 C   0  0  0  0  0  0
   -5.3952    1.1473   -0.8828 C   0  0  0  0  0  0
   -5.9431    2.3690   -0.5391 C   0  0  0  0  0  0
   -6.5266    2.5401    0.7023 C   0  0  0  0  0  0
   -6.5626    1.4894    1.5999 C   0  0  0  0  0  0
   -6.0185    0.2664    1.2545 C   0  0  0  0  0  0
    1.6506   -0.3955   -0.6311 C   0  0  0  0  0  0
    3.0224   -0.4073   -0.1173 N   0  0  0  0  0  0
    3.9156    0.5000   -0.5596 C   0  0  0  0  0  0
    3.5829    1.3278   -1.3846 O   0  0  0  0  0  0
    5.3029    0.4880   -0.0399 C   0  0  0  0  0  0
    6.2450    1.4201   -0.4854 C   0  0  0  0  0  0
    7.5274    1.3731    0.0262 C   0  0  0  0  0  0
    7.8665    0.4663    0.9207 N   0  0  0  0  0  0
    7.0096   -0.4303    1.3673 C   0  0  0  0  0  0
    5.7048   -0.4520    0.9138 C   0  0  0  0  0  0
    0.8340   -1.3693    1.1083 H   0  0  0  0  0  0
    1.3139   -2.4788   -0.1983 H   0  0  0  0  0  0
   -0.5696   -1.6541   -1.5878 H   0  0  0  0  0  0
   -0.9575   -3.5949   -0.1223 H   0  0  0  0  0  0
   -1.3570   -2.5134    1.2349 H   0  0  0  0  0  0
   -2.8675   -2.6821   -1.4125 H   0  0  0  0  0  0
   -3.4132   -3.3631    0.1383 H   0  0  0  0  0  0
   -2.7300   -0.3561   -1.7260 H   0  0  0  0  0  0
   -3.1691    0.7683   -0.4185 H   0  0  0  0  0  0
   -1.2081    0.0060    0.8953 H   0  0  0  0  0  0
   -0.7074    0.6375   -0.6927 H   0  0  0  0  0  0
   -4.9119   -1.3783   -1.4373 H   0  0  0  0  0  0
   -5.3716   -2.0319    0.1532 H   0  0  0  0  0  0
   -4.9394    1.0137   -1.8527 H   0  0  0  0  0  0
   -5.9150    3.1899   -1.2403 H   0  0  0  0  0  0
   -6.9540    3.4948    0.9712 H   0  0  0  0  0  0
   -7.0182    1.6232    2.5699 H   0  0  0  0  0  0
   -6.0467   -0.5545    1.9557 H   0  0  0  0  0  0
    1.6656   -0.5454   -1.7107 H   0  0  0  0  0  0
    1.1858    0.5640   -0.4041 H   0  0  0  0  0  0
    3.2880   -1.0681    0.5413 H   0  0  0  0  0  0
    5.9744    2.1655   -1.2186 H   0  0  0  0  0  0
    8.2623    2.0888   -0.3116 H   0  0  0  0  0  0
    7.3308   -1.1551    2.1007 H   0  0  0  0  0  0
    5.0079   -1.1892    1.2844 H   0  0  0  0  0  0
  1  2  1  0  0  0
  1 16  1  0  0  0
  1 26  1  0  0  0
  1 27  1  0  0  0
  2  3  1  0  0  0
  2  8  1  0  0  0
  2 28  1  0  0  0
  3  4  1  0  0  0
  3 29  1  0  0  0
  3 30  1  0  0  0
  4  5  1  0  0  0
  4 31  1  0  0  0
  4 32  1  0  0  0
  5  6  1  0  0  0
  5  7  1  0  0  0
  5  9  1  0  0  0
  7  8  1  0  0  0
  7 33  1  0  0  0
  7 34  1  0  0  0
  8 35  1  0  0  0
  8 36  1  0  0  0
  9 10  1  0  0  0
  9 37  1  0  0  0
  9 38  1  0  0  0
 10 11  2  0  0  0
 10 15  1  0  0  0
 11 12  1  0  0  0
 11 39  1  0  0  0
 12 13  2  0  0  0
 12 40  1  0  0  0
 13 14  1  0  0  0
 13 41  1  0  0  0
 14 15  2  0  0  0
 14 42  1  0  0  0
 15 43  1  0  0  0
 16 17  1  0  0  0
 16 44  1  0  0  0
 16 45  1  0  0  0
 17 18  1  0  0  0
 17 46  1  0  0  0
 18 19  2  0  0  0
 18 20  1  0  0  0
 20 21  2  0  0  0
 20 25  1  0  0  0
 21 22  1  0  0  0
 21 47  1  0  0  0
 22 23  2  0  0  0
 22 48  1  0  0  0
 23 24  1  0  0  0
 24 25  2  0  0  0
 24 49  1  0  0  0
 25 50  1  0  0  0
M  CHG  1   5   1
M  END
>  <Activity>
7.40894

>  <set>
1

>  <Min_dist>
999.9

>  <Avg_dist>
999.9

$$$$
2-3R
  Cerius2 12110214483D 1   1.00000                          
 
 57 59  0  0  0  0  0  0  0  0999 V2000
    0.6981    1.7266   -0.2134 C   0  0  0  0  0  0
   -0.7400    1.7121    0.3085 C   0  0  0  0  0  0
   -1.5939    2.6794   -0.5164 C   0  0  0  0  0  0
   -3.0464    2.6011   -0.0414 C   0  0  0  0  0  0
   -3.5486    1.2328   -0.2150 N   0  3  0  0  0  0
   -3.4540    0.9610   -1.1821 H   0  0  0  0  0  0
   -2.7802    0.3095    0.6286 C   0  0  0  0  0  0
   -1.3174    0.2996    0.1794 C   0  0  0  0  0  0
   -4.9651    1.1800    0.1707 C   0  0  0  0  0  0
   -5.4821   -0.2243   -0.0069 C   0  0  0  0  0  0
   -5.4032   -1.1271    1.0369 C   0  0  0  0  0  0
   -5.8774   -2.4153    0.8740 C   0  0  0  0  0  0
   -6.4309   -2.8006   -0.3327 C   0  0  0  0  0  0
   -6.5107   -1.8975   -1.3763 C   0  0  0  0  0  0
   -6.0404   -0.6081   -1.2119 C   0  0  0  0  0  0
    1.5499    0.7598    0.6116 C   0  0  0  0  0  0
    2.9270    0.7737    0.1119 N   0  0  0  0  0  0
    3.8617   -0.0061    0.6904 C   0  0  0  0  0  0
    3.5628   -0.7193    1.6247 O   0  0  0  0  0  0
    5.2782    0.0082    0.1763 C   0  0  0  0  0  0
    6.1300   -0.9586    1.0013 C   0  0  0  0  0  0
    7.5681   -0.9441    0.4794 C   0  0  0  0  0  0
    7.5825   -1.3767   -0.9881 C   0  0  0  0  0  0
    6.7307   -0.4099   -1.8132 C   0  0  0  0  0  0
    5.2926   -0.4244   -1.2912 C   0  0  0  0  0  0
    0.7084    1.4184   -1.2589 H   0  0  0  0  0  0
    1.1057    2.7339   -0.1276 H   0  0  0  0  0  0
   -0.7511    2.0175    1.3548 H   0  0  0  0  0  0
   -1.2224    3.6957   -0.3850 H   0  0  0  0  0  0
   -1.5401    2.4048   -1.5698 H   0  0  0  0  0  0
   -3.0991    2.8761    1.0120 H   0  0  0  0  0  0
   -3.6571    3.2887   -0.6265 H   0  0  0  0  0  0
   -2.8385    0.6333    1.6677 H   0  0  0  0  0  0
   -3.1943   -0.6947    0.5381 H   0  0  0  0  0  0
   -1.2579   -0.0244   -0.8596 H   0  0  0  0  0  0
   -0.7482   -0.3851    0.8081 H   0  0  0  0  0  0
   -5.0687    1.4760    1.2146 H   0  0  0  0  0  0
   -5.5386    1.8606   -0.4585 H   0  0  0  0  0  0
   -4.9707   -0.8261    1.9797 H   0  0  0  0  0  0
   -5.8151   -3.1209    1.6893 H   0  0  0  0  0  0
   -6.8008   -3.8073   -0.4603 H   0  0  0  0  0  0
   -6.9428   -2.1986   -2.3191 H   0  0  0  0  0  0
   -6.1027    0.0975   -2.0272 H   0  0  0  0  0  0
    1.5397    1.0681    1.6571 H   0  0  0  0  0  0
    1.1424   -0.2474    0.5258 H   0  0  0  0  0  0
    3.1660    1.3442   -0.6354 H   0  0  0  0  0  0
    5.6857    1.0155    0.2621 H   0  0  0  0  0  0
    6.1197   -0.6504    2.0468 H   0  0  0  0  0  0
    5.7224   -1.9659    0.9155 H   0  0  0  0  0  0
    7.9757    0.0632    0.5652 H   0  0  0  0  0  0
    8.1749   -1.6328    1.0672 H   0  0  0  0  0  0
    8.6070   -1.3664   -1.3599 H   0  0  0  0  0  0
    7.1749   -2.3840   -1.0739 H   0  0  0  0  0  0
    7.1382    0.5974   -1.7273 H   0  0  0  0  0  0
    6.7409   -0.7181   -2.8586 H   0  0  0  0  0  0
    4.8850   -1.4317   -1.3771 H   0  0  0  0  0  0
    4.6858    0.2644   -1.8790 H   0  0  0  0  0  0
  1  2  1  0  0  0
  1 16  1  0  0  0
  1 26  1  0  0  0
  1 27  1  0  0  0
  2  3  1  0  0  0
  2  8  1  0  0  0
  2 28  1  0  0  0
  3  4  1  0  0  0
  3 29  1  0  0  0
  3 30  1  0  0  0
  4  5  1  0  0  0
  4 31  1  0  0  0
  4 32  1  0  0  0
  5  6  1  0  0  0
  5  7  1  0  0  0
  5  9  1  0  0  0
  7  8  1  0  0  0
  7 33  1  0  0  0
  7 34  1  0  0  0
  8 35  1  0  0  0
  8 36  1  0  0  0
  9 10  1  0  0  0
  9 37  1  0  0  0
  9 38  1  0  0  0
 10 11  2  0  0  0
 10 15  1  0  0  0
 11 12  1  0  0  0
 11 39  1  0  0  0
 12 13  2  0  0  0
 12 40  1  0  0  0
 13 14  1  0  0  0
 13 41  1  0  0  0
 14 15  2  0  0  0
 14 42  1  0  0  0
 15 43  1  0  0  0
 16 17  1  0  0  0
 16 44  1  0  0  0
 16 45  1  0  0  0
 17 18  1  0  0  0
 17 46  1  0  0  0
 18 19  2  0  0  0
 18 20  1  0  0  0
 20 21  1  0  0  0
 20 25  1  0  0  0
 20 47  1  0  0  0
 21 22  1  0  0  0
 21 48  1  0  0  0
 21 49  1  0  0  0
 22 23  1  0  0  0
 22 50  1  0  0  0
 22 51  1  0  0  0
 23 24  1  0  0  0
 23 52  1  0  0  0
 23 53  1  0  0  0
 24 25  1  0  0  0
 24 54  1  0  0  0
 24 55  1  0  0  0
 25 56  1  0  0  0
 25 57  1  0  0  0
M  CHG  1   5   1
M  END
>  <Activity>
5.79588

>  <set>
1

>  <Min_dist>
999.9

>  <Avg_dist>
999.9

$$$$
3-13C
  Cerius2 12110214483D 1   1.00000                          
 
 53 56  0  0  0  0  0  0  0  0999 V2000
   -6.7012   -1.0613    0.9557 C   0  0  0  0  0  0
   -6.7265   -1.6534   -0.2948 C   0  0  0  0  0  0
   -5.6436   -1.5391   -1.1473 C   0  0  0  0  0  0
   -4.5207   -0.8316   -0.7598 C   0  0  0  0  0  0
   -4.4944   -0.2295    0.4996 C   0  0  0  0  0  0
   -5.5906   -0.3490    1.3581 C   0  0  0  0  0  0
   -3.3103    0.5408    0.9272 C   0  0  0  0  0  0
   -3.3408    1.2413    1.9164 O   0  0  0  0  0  0
   -2.0554    0.4248    0.0869 C   0  0  0  0  0  0
   -1.1126    1.5894    0.3965 C   0  0  0  0  0  0
    0.2083    1.3883   -0.3490 C   0  0  0  0  0  0
    1.0979    2.6197   -0.1558 C   0  0  0  0  0  0
    2.4470    2.3794   -0.8367 C   0  0  0  0  0  0
    3.0974    1.2058   -0.2415 N   0  3  0  0  0  0
    3.1977    1.3461    0.7526 H   0  0  0  0  0  0
    2.2842    0.0084   -0.4856 C   0  0  0  0  0  0
    0.9288    0.1575    0.2089 C   0  0  0  0  0  0
    4.4243    1.0243   -0.8453 C   0  0  0  0  0  0
    5.0933   -0.1803   -0.2352 C   0  0  0  0  0  0
    4.9195   -1.4288   -0.8026 C   0  0  0  0  0  0
    5.5331   -2.5339   -0.2429 C   0  0  0  0  0  0
    6.3210   -2.3903    0.8839 C   0  0  0  0  0  0
    6.4955   -1.1417    1.4507 C   0  0  0  0  0  0
    5.8854   -0.0360    0.8885 C   0  0  0  0  0  0
   -2.4832    0.4773   -1.3857 C   0  0  0  0  0  0
   -3.3539   -0.7350   -1.7041 C   0  0  0  0  0  0
   -7.5522   -1.1530    1.6144 H   0  0  0  0  0  0
   -7.5983   -2.2091   -0.6072 H   0  0  0  0  0  0
   -5.6751   -2.0054   -2.1210 H   0  0  0  0  0  0
   -5.5683    0.1147    2.3333 H   0  0  0  0  0  0
   -1.5560   -0.5214    0.2953 H   0  0  0  0  0  0
   -1.5723    2.5242    0.0755 H   0  0  0  0  0  0
   -0.9224    1.6275    1.4691 H   0  0  0  0  0  0
    0.0093    1.2454   -1.4111 H   0  0  0  0  0  0
    0.6158    3.4904   -0.6003 H   0  0  0  0  0  0
    1.2534    2.7929    0.9091 H   0  0  0  0  0  0
    2.2904    2.2065   -1.9014 H   0  0  0  0  0  0
    3.0829    3.2543   -0.7012 H   0  0  0  0  0  0
    2.1311   -0.1139   -1.5578 H   0  0  0  0  0  0
    2.7998   -0.8671   -0.0909 H   0  0  0  0  0  0
    1.0808    0.2797    1.2813 H   0  0  0  0  0  0
    0.3259   -0.7317    0.0250 H   0  0  0  0  0  0
    4.3173    0.8753   -1.9197 H   0  0  0  0  0  0
    5.0319    1.9101   -0.6601 H   0  0  0  0  0  0
    4.3040   -1.5410   -1.6829 H   0  0  0  0  0  0
    5.3968   -3.5094   -0.6858 H   0  0  0  0  0  0
    6.7998   -3.2538    1.3215 H   0  0  0  0  0  0
    7.1107   -1.0296    2.3312 H   0  0  0  0  0  0
    6.0217    0.9395    1.3314 H   0  0  0  0  0  0
   -3.0506    1.3901   -1.5671 H   0  0  0  0  0  0
   -1.5982    0.4665   -2.0220 H   0  0  0  0  0  0
   -2.7512   -1.6393   -1.6205 H   0  0  0  0  0  0
   -3.7267   -0.6487   -2.7247 H   0  0  0  0  0  0
  1  2  2  0  0  0
  1  6  1  0  0  0
  1 27  1  0  0  0
  2  3  1  0  0  0
  2 28  1  0  0  0
  3  4  2  0  0  0
  3 29  1  0  0  0
  4  5  1  0  0  0
  4 26  1  0  0  0
  5  6  2  0  0  0
  5  7  1  0  0  0
  6 30  1  0  0  0
  7  8  2  0  0  0
  7  9  1  0  0  0
  9 10  1  0  0  0
  9 25  1  0  0  0
  9 31  1  0  0  0
 10 11  1  0  0  0
 10 32  1  0  0  0
 10 33  1  0  0  0
 11 12  1  0  0  0
 11 17  1  0  0  0
 11 34  1  0  0  0
 12 13  1  0  0  0
 12 35  1  0  0  0
 12 36  1  0  0  0
 13 14  1  0  0  0
 13 37  1  0  0  0
 13 38  1  0  0  0
 14 15  1  0  0  0
 14 16  1  0  0  0
 14 18  1  0  0  0
 16 17  1  0  0  0
 16 39  1  0  0  0
 16 40  1  0  0  0
 17 41  1  0  0  0
 17 42  1  0  0  0
 18 19  1  0  0  0
 18 43  1  0  0  0
 18 44  1  0  0  0
 19 20  2  0  0  0
 19 24  1  0  0  0
 20 21  1  0  0  0
 20 45  1  0  0  0
 21 22  2  0  0  0
 21 46  1  0  0  0
 22 23  1  0  0  0
 22 47  1  0  0  0
 23 24  2  0  0  0
 23 48  1  0  0  0
 24 49  1  0  0  0
 25 26  1  0  0  0
 25 50  1  0  0  0
 25 51  1  0  0  0
 26 52  1  0  0  0
 26 53  1  0  0  0
M  CHG  1  14   1
M  END
>  <Activity>
5.67778

>  <set>
1

>  <Min_dist>
999.9

>  <Avg_dist>
999.9

$$$$
3-13D
  Cerius2 12110214483D 1   1.00000                          
 
 56 59  0  0  0  0  0  0  0  0999 V2000
   -5.1422   -2.5005    1.3360 C   0  0  0  0  0  0
   -5.7180   -2.6643    0.0884 C   0  0  0  0  0  0
   -5.5242   -1.7174   -0.9046 C   0  0  0  0  0  0
   -4.7538   -0.6052   -0.6479 C   0  0  0  0  0  0
   -4.1519   -0.4444    0.5993 C   0  0  0  0  0  0
   -4.3580   -1.3956    1.6009 C   0  0  0  0  0  0
   -3.2759    0.7172    0.8344 C   0  0  0  0  0  0
   -3.5740    1.5780    1.6346 O   0  0  0  0  0  0
   -1.9878    0.7955    0.0387 C   0  0  0  0  0  0
   -0.9971    1.7064    0.7664 C   0  0  0  0  0  0
    0.3528    1.6695    0.0470 C   0  0  0  0  0  0
    1.3029    2.6847    0.6887 C   0  0  0  0  0  0
    2.6745    2.5866    0.0172 C   0  0  0  0  0  0
    3.2128    1.2323    0.1915 N   0  3  0  0  0  0
    3.2595    1.0140    1.1755 H   0  0  0  0  0  0
    2.3441    0.2603   -0.4831 C   0  0  0  0  0  0
    0.9599    0.2689    0.1691 C   0  0  0  0  0  0
    4.5610    1.1645   -0.3880 C   0  0  0  0  0  0
    5.1151   -0.2255   -0.2098 C   0  0  0  0  0  0
    4.9003   -1.1850   -1.1815 C   0  0  0  0  0  0
    5.4085   -2.4601   -1.0180 C   0  0  0  0  0  0
    6.1320   -2.7756    0.1169 C   0  0  0  0  0  0
    6.3476   -1.8158    1.0881 C   0  0  0  0  0  0
    5.8430   -0.5395    0.9226 C   0  0  0  0  0  0
   -2.2586    1.3498   -1.3370 C   0  0  0  0  0  0
   -3.1424    0.4633   -2.2023 C   0  0  0  0  0  0
   -4.5857    0.4653   -1.7105 C   0  0  0  0  0  0
   -5.3105   -3.2379    2.1069 H   0  0  0  0  0  0
   -6.3225   -3.5363   -0.1129 H   0  0  0  0  0  0
   -5.9754   -1.8514   -1.8766 H   0  0  0  0  0  0
   -3.9085   -1.2676    2.5745 H   0  0  0  0  0  0
   -1.5596   -0.2025   -0.0542 H   0  0  0  0  0  0
   -1.3784    2.7276    0.7712 H   0  0  0  0  0  0
   -0.8716    1.3607    1.7924 H   0  0  0  0  0  0
    0.2119    1.9165   -1.0052 H   0  0  0  0  0  0
    0.9041    3.6905    0.5566 H   0  0  0  0  0  0
    1.4022    2.4685    1.7524 H   0  0  0  0  0  0
    2.5741    2.8032   -1.0463 H   0  0  0  0  0  0
    3.3534    3.3082    0.4716 H   0  0  0  0  0  0
    2.2508    0.5265   -1.5360 H   0  0  0  0  0  0
    2.7791   -0.7355   -0.3982 H   0  0  0  0  0  0
    1.0520    0.0026    1.2220 H   0  0  0  0  0  0
    0.3159   -0.4521   -0.3344 H   0  0  0  0  0  0
    4.5122    1.4028   -1.4505 H   0  0  0  0  0  0
    5.2094    1.8815    0.1157 H   0  0  0  0  0  0
    4.3351   -0.9386   -2.0681 H   0  0  0  0  0  0
    5.2401   -3.2099   -1.7768 H   0  0  0  0  0  0
    6.5285   -3.7720    0.2449 H   0  0  0  0  0  0
    6.9125   -2.0624    1.9750 H   0  0  0  0  0  0
    6.0115    0.2103    1.6814 H   0  0  0  0  0  0
   -2.7405    2.3217   -1.2306 H   0  0  0  0  0  0
   -1.3059    1.4929   -1.8469 H   0  0  0  0  0  0
   -3.1154    0.8271   -3.2294 H   0  0  0  0  0  0
   -2.7584   -0.5565   -2.1764 H   0  0  0  0  0  0
   -5.2550    0.2577   -2.5454 H   0  0  0  0  0  0
   -4.8242    1.4404   -1.2858 H   0  0  0  0  0  0
  1  2  2  0  0  0
  1  6  1  0  0  0
  1 28  1  0  0  0
  2  3  1  0  0  0
  2 29  1  0  0  0
  3  4  2  0  0  0
  3 30  1  0  0  0
  4  5  1  0  0  0
  4 27  1  0  0  0
  5  6  2  0  0  0
  5  7  1  0  0  0
  6 31  1  0  0  0
  7  8  2  0  0  0
  7  9  1  0  0  0
  9 10  1  0  0  0
  9 25  1  0  0  0
  9 32  1  0  0  0
 10 11  1  0  0  0
 10 33  1  0  0  0
 10 34  1  0  0  0
 11 12  1  0  0  0
 11 17  1  0  0  0
 11 35  1  0  0  0
 12 13  1  0  0  0
 12 36  1  0  0  0
 12 37  1  0  0  0
 13 14  1  0  0  0
 13 38  1  0  0  0
 13 39  1  0  0  0
 14 15  1  0  0  0
 14 16  1  0  0  0
 14 18  1  0  0  0
 16 17  1  0  0  0
 16 40  1  0  0  0
 16 41  1  0  0  0
 17 42  1  0  0  0
 17 43  1  0  0  0
 18 19  1  0  0  0
 18 44  1  0  0  0
 18 45  1  0  0  0
 19 20  2  0  0  0
 19 24  1  0  0  0
 20 21  1  0  0  0
 20 46  1  0  0  0
 21 22  2  0  0  0
 21 47  1  0  0  0
 22 23  1  0  0  0
 22 48  1  0  0  0
 23 24  2  0  0  0
 23 49  1  0  0  0
 24 50  1  0  0  0
 25 26  1  0  0  0
 25 51  1  0  0  0
 25 52  1  0  0  0
 26 27  1  0  0  0
 26 53  1  0  0  0
 26 54  1  0  0  0
 27 55  1  0  0  0
 27 56  1  0  0  0
M  CHG  1  14   1
M  END
>  <Activity>
4.82391

>  <set>
1

>  <Min_dist>
999.9

>  <Avg_dist>
999.9

$$$$
3-13E_E2020
  Cerius2 12110214483D 1   1.00000                          
 
 58 61  0  0  0  0  0  0  0  0999 V2000
   -5.7313   -0.3463   -0.2467 C   0  0  0  0  0  0
   -5.4424    1.0130   -0.3659 C   0  0  0  0  0  0
   -4.1232    1.4443   -0.3805 C   0  0  0  0  0  0
   -3.0908    0.5344   -0.2776 C   0  0  0  0  0  0
   -3.3694   -0.8289   -0.1578 C   0  0  0  0  0  0
   -4.7065   -1.2624   -0.1433 C   0  0  0  0  0  0
   -2.1258   -1.6058   -0.0630 C   0  0  0  0  0  0
   -2.0465   -2.8110    0.0490 O   0  0  0  0  0  0
   -0.9640   -0.6446   -0.1292 C   0  0  0  0  0  0
   -1.5957    0.7473   -0.2688 C   0  0  0  0  0  0
   -0.1361   -0.7245    1.1550 C   0  0  0  0  0  0
    1.1096    0.1526    1.0141 C   0  0  0  0  0  0
    1.8633    0.1894    2.3466 C   0  0  0  0  0  0
    3.1486    1.0024    2.1771 C   0  0  0  0  0  0
    3.9943    0.3793    1.1519 N   0  3  0  0  0  0
    4.1857   -0.5769    1.4108 H   0  0  0  0  0  0
    3.3064    0.4053   -0.1445 C   0  0  0  0  0  0
    2.0273   -0.4307   -0.0643 C   0  0  0  0  0  0
    5.2591    1.1191    1.0467 C   0  0  0  0  0  0
    6.1285    0.4805   -0.0056 C   0  0  0  0  0  0
    6.0423    0.8985   -1.3204 C   0  0  0  0  0  0
    6.8398    0.3127   -2.2856 C   0  0  0  0  0  0
    7.7238   -0.6909   -1.9360 C   0  0  0  0  0  0
    7.8107   -1.1082   -0.6210 C   0  0  0  0  0  0
    7.0163   -0.5194    0.3450 C   0  0  0  0  0  0
   -6.4521    1.9147   -0.4682 O   0  0  0  0  0  0
   -5.8451    3.2040   -0.5749 C   0  0  0  0  0  0
   -7.0243   -0.7675   -0.2269 O   0  0  0  0  0  0
   -6.9933   -2.1902   -0.0974 C   0  0  0  0  0  0
   -3.9035    2.4976   -0.4734 H   0  0  0  0  0  0
   -4.9312   -2.3147   -0.0510 H   0  0  0  0  0  0
   -0.3405   -0.8649   -0.9957 H   0  0  0  0  0  0
   -1.2779    1.2108   -1.2028 H   0  0  0  0  0  0
   -1.3116    1.3740    0.5765 H   0  0  0  0  0  0
   -0.7346   -0.3733    1.9956 H   0  0  0  0  0  0
    0.1647   -1.7575    1.3296 H   0  0  0  0  0  0
    0.8137    1.1638    0.7346 H   0  0  0  0  0  0
    1.2360    0.6547    3.1069 H   0  0  0  0  0  0
    2.1130   -0.8268    2.6517 H   0  0  0  0  0  0
    2.8977    2.0184    1.8722 H   0  0  0  0  0  0
    3.6876    1.0308    3.1240 H   0  0  0  0  0  0
    3.0522    1.4340   -0.3999 H   0  0  0  0  0  0
    3.9620   -0.0071   -0.9115 H   0  0  0  0  0  0
    2.2804   -1.4597    0.1908 H   0  0  0  0  0  0
    1.5171   -0.4086   -1.0273 H   0  0  0  0  0  0
    5.0533    2.1530    0.7696 H   0  0  0  0  0  0
    5.7744    1.0960    2.0069 H   0  0  0  0  0  0
    5.3516    1.6825   -1.5936 H   0  0  0  0  0  0
    6.7719    0.6387   -3.3130 H   0  0  0  0  0  0
    8.3464   -1.1490   -2.6902 H   0  0  0  0  0  0
    8.5012   -1.8925   -0.3479 H   0  0  0  0  0  0
    7.0842   -0.8455    1.3723 H   0  0  0  0  0  0
   -6.6210    3.9649   -0.6597 H   0  0  0  0  0  0
   -5.2428    3.3966    0.3130 H   0  0  0  0  0  0
   -5.2087    3.2339   -1.4592 H   0  0  0  0  0  0
   -8.0128   -2.5755   -0.0769 H   0  0  0  0  0  0
   -6.4592   -2.6206   -0.9445 H   0  0  0  0  0  0
   -6.4844   -2.4598    0.8281 H   0  0  0  0  0  0
  1  2  2  0  0  0
  1  6  1  0  0  0
  1 28  1  0  0  0
  2  3  1  0  0  0
  2 26  1  0  0  0
  3  4  2  0  0  0
  3 30  1  0  0  0
  4  5  1  0  0  0
  4 10  1  0  0  0
  5  6  2  0  0  0
  5  7  1  0  0  0
  6 31  1  0  0  0
  7  8  2  0  0  0
  7  9  1  0  0  0
  9 10  1  0  0  0
  9 11  1  0  0  0
  9 32  1  0  0  0
 10 33  1  0  0  0
 10 34  1  0  0  0
 11 12  1  0  0  0
 11 35  1  0  0  0
 11 36  1  0  0  0
 12 13  1  0  0  0
 12 18  1  0  0  0
 12 37  1  0  0  0
 13 14  1  0  0  0
 13 38  1  0  0  0
 13 39  1  0  0  0
 14 15  1  0  0  0
 14 40  1  0  0  0
 14 41  1  0  0  0
 15 16  1  0  0  0
 15 17  1  0  0  0
 15 19  1  0  0  0
 17 18  1  0  0  0
 17 42  1  0  0  0
 17 43  1  0  0  0
 18 44  1  0  0  0
 18 45  1  0  0  0
 19 20  1  0  0  0
 19 46  1  0  0  0
 19 47  1  0  0  0
 20 21  2  0  0  0
 20 25  1  0  0  0
 21 22  1  0  0  0
 21 48  1  0  0  0
 22 23  2  0  0  0
 22 49  1  0  0  0
 23 24  1  0  0  0
 23 50  1  0  0  0
 24 25  2  0  0  0
 24 51  1  0  0  0
 25 52  1  0  0  0
 26 27  1  0  0  0
 27 53  1  0  0  0
 27 54  1  0  0  0
 27 55  1  0  0  0
 28 29  1  0  0  0
 29 56  1  0  0  0
 29 57  1  0  0  0
 29 58  1  0  0  0
M  CHG  1  15   1
M  END
>  <Activity>
8.24413

>  <set>
1

>  <Min_dist>
999.9

>  <Avg_dist>
999.9

$$$$
3-13G
  Cerius2 12110214483D 1   1.00000                          
 
 54 57  0  0  0  0  0  0  0  0999 V2000
   -6.2355   -0.5972   -0.1004 C   0  0  0  0  0  0
   -5.9746    0.6400   -0.6795 C   0  0  0  0  0  0
   -4.6631    1.0688   -0.8447 C   0  0  0  0  0  0
   -3.6196    0.2803   -0.4401 C   0  0  0  0  0  0
   -3.8679   -0.9643    0.1434 C   0  0  0  0  0  0
   -5.1950   -1.3968    0.3094 C   0  0  0  0  0  0
   -2.6076   -1.6321    0.4965 C   0  0  0  0  0  0
   -2.5017   -2.7227    1.0167 O   0  0  0  0  0  0
   -1.4676   -0.7261    0.0995 C   0  0  0  0  0  0
   -2.1297    0.5174   -0.5097 C   0  0  0  0  0  0
   -0.6447   -0.3393    1.3300 C   0  0  0  0  0  0
    0.5816    0.4638    0.8916 C   0  0  0  0  0  0
    1.3275    0.9751    2.1275 C   0  0  0  0  0  0
    2.5948    1.7091    1.6842 C   0  0  0  0  0  0
    3.4597    0.7904    0.9342 N   0  3  0  0  0  0
    3.6713   -0.0133    1.5064 H   0  0  0  0  0  0
    2.7781    0.3520   -0.2896 C   0  0  0  0  0  0
    1.5177   -0.4342    0.0777 C   0  0  0  0  0  0
    4.7079    1.4774    0.5767 C   0  0  0  0  0  0
    5.5970    0.5353   -0.1935 C   0  0  0  0  0  0
    5.5081    0.4722   -1.5715 C   0  0  0  0  0  0
    6.3235   -0.3919   -2.2780 C   0  0  0  0  0  0
    7.2283   -1.1928   -1.6064 C   0  0  0  0  0  0
    7.3178   -1.1291   -0.2284 C   0  0  0  0  0  0
    6.5054   -0.2618    0.4777 C   0  0  0  0  0  0
   -7.0015    1.4289   -1.0839 O   0  0  0  0  0  0
   -8.2073    0.7230   -0.7846 C   0  0  0  0  0  0
   -7.2551   -0.9278    0.0313 H   0  0  0  0  0  0
   -4.4658    2.0302   -1.2956 H   0  0  0  0  0  0
   -5.3974   -2.3575    0.7594 H   0  0  0  0  0  0
   -0.8348   -1.2173   -0.6397 H   0  0  0  0  0  0
   -1.8176    0.6376   -1.5471 H   0  0  0  0  0  0
   -1.8641    1.4035    0.0669 H   0  0  0  0  0  0
   -1.2553    0.2663    1.9997 H   0  0  0  0  0  0
   -0.3215   -1.2416    1.8492 H   0  0  0  0  0  0
    0.2643    1.3095    0.2815 H   0  0  0  0  0  0
    0.6858    1.6594    2.6826 H   0  0  0  0  0  0
    1.5985    0.1324    2.7635 H   0  0  0  0  0  0
    2.3227    2.5516    1.0485 H   0  0  0  0  0  0
    3.1282    2.0746    2.5617 H   0  0  0  0  0  0
    2.5020    1.2234   -0.8832 H   0  0  0  0  0  0
    3.4467   -0.2844   -0.8693 H   0  0  0  0  0  0
    1.7927   -1.3062    0.6713 H   0  0  0  0  0  0
    1.0121   -0.7573   -0.8323 H   0  0  0  0  0  0
    4.4803    2.3473   -0.0394 H   0  0  0  0  0  0
    5.2188    1.7986    1.4844 H   0  0  0  0  0  0
    4.8012    1.0979   -2.0962 H   0  0  0  0  0  0
    6.2536   -0.4417   -3.3545 H   0  0  0  0  0  0
    7.8649   -1.8685   -2.1582 H   0  0  0  0  0  0
    8.0244   -1.7550    0.2963 H   0  0  0  0  0  0
    6.5753   -0.2120    1.5543 H   0  0  0  0  0  0
   -9.0647    1.3210   -1.0934 H   0  0  0  0  0  0
   -8.2149   -0.2265   -1.3199 H   0  0  0  0  0  0
   -8.2622    0.5359    0.2878 H   0  0  0  0  0  0
  1  2  2  0  0  0
  1  6  1  0  0  0
  1 28  1  0  0  0
  2  3  1  0  0  0
  2 26  1  0  0  0
  3  4  2  0  0  0
  3 29  1  0  0  0
  4  5  1  0  0  0
  4 10  1  0  0  0
  5  6  2  0  0  0
  5  7  1  0  0  0
  6 30  1  0  0  0
  7  8  2  0  0  0
  7  9  1  0  0  0
  9 10  1  0  0  0
  9 11  1  0  0  0
  9 31  1  0  0  0
 10 32  1  0  0  0
 10 33  1  0  0  0
 11 12  1  0  0  0
 11 34  1  0  0  0
 11 35  1  0  0  0
 12 13  1  0  0  0
 12 18  1  0  0  0
 12 36  1  0  0  0
 13 14  1  0  0  0
 13 37  1  0  0  0
 13 38  1  0  0  0
 14 15  1  0  0  0
 14 39  1  0  0  0
 14 40  1  0  0  0
 15 16  1  0  0  0
 15 17  1  0  0  0
 15 19  1  0  0  0
 17 18  1  0  0  0
 17 41  1  0  0  0
 17 42  1  0  0  0
 18 43  1  0  0  0
 18 44  1  0  0  0
 19 20  1  0  0  0
 19 45  1  0  0  0
 19 46  1  0  0  0
 20 21  2  0  0  0
 20 25  1  0  0  0
 21 22  1  0  0  0
 21 47  1  0  0  0
 22 23  2  0  0  0
 22 48  1  0  0  0
 23 24  1  0  0  0
 23 49  1  0  0  0
 24 25  2  0  0  0
 24 50  1  0  0  0
 25 51  1  0  0  0
 26 27  1  0  0  0
 27 52  1  0  0  0
 27 53  1  0  0  0
 27 54  1  0  0  0
M  CHG  1  15   1
M  END
>  <Activity>
8.19382

>  <set>
1

>  <Min_dist>
999.9

>  <Avg_dist>
999.9

$$$$
3-13H
  Cerius2 12110214483D 1   1.00000                          
 
 54 57  0  0  0  0  0  0  0  0999 V2000
   -6.4328   -0.8146   -0.3855 C   0  0  0  0  0  0
   -6.2178    0.5514   -0.3871 C   0  0  0  0  0  0
   -4.9245    1.0534   -0.3479 C   0  0  0  0  0  0
   -3.8412    0.1885   -0.3075 C   0  0  0  0  0  0
   -4.0527   -1.1897   -0.3057 C   0  0  0  0  0  0
   -5.3655   -1.6847   -0.3452 C   0  0  0  0  0  0
   -2.7701   -1.9116   -0.2602 C   0  0  0  0  0  0
   -2.6313   -3.1161   -0.2487 O   0  0  0  0  0  0
   -1.6582   -0.8911   -0.2309 C   0  0  0  0  0  0
   -2.3594    0.4739   -0.2618 C   0  0  0  0  0  0
   -0.8384   -1.0371    1.0526 C   0  0  0  0  0  0
    0.3621   -0.0900    1.0014 C   0  0  0  0  0  0
    1.1016   -0.1276    2.3420 C   0  0  0  0  0  0
    2.3451    0.7601    2.2574 C   0  0  0  0  0  0
    3.2303    0.2686    1.1947 N   0  3  0  0  0  0
    3.4679   -0.6952    1.3753 H   0  0  0  0  0  0
    2.5531    0.3689   -0.1037 C   0  0  0  0  0  0
    1.3176   -0.5338   -0.1100 C   0  0  0  0  0  0
    4.4565    1.0770    1.1679 C   0  0  0  0  0  0
    5.3664    0.5734    0.0772 C   0  0  0  0  0  0
    5.2702    1.0956   -1.1991 C   0  0  0  0  0  0
    6.1048    0.6337   -2.1996 C   0  0  0  0  0  0
    7.0359   -0.3501   -1.9236 C   0  0  0  0  0  0
    7.1327   -0.8717   -0.6471 C   0  0  0  0  0  0
    6.3010   -0.4066    0.3544 C   0  0  0  0  0  0
   -4.7189    2.3969   -0.3496 O   0  0  0  0  0  0
   -6.0080    3.0119   -0.3956 C   0  0  0  0  0  0
   -7.4411   -1.2007   -0.4116 H   0  0  0  0  0  0
   -7.0581    1.2291   -0.4192 H   0  0  0  0  0  0
   -5.5394   -2.7506   -0.3438 H   0  0  0  0  0  0
   -1.0169   -1.0061   -1.1048 H   0  0  0  0  0  0
   -2.0576    1.0298   -1.1495 H   0  0  0  0  0  0
   -2.1148    1.0408    0.6365 H   0  0  0  0  0  0
   -1.4612   -0.7882    1.9118 H   0  0  0  0  0  0
   -0.4868   -2.0648    1.1442 H   0  0  0  0  0  0
    0.0175    0.9250    0.8036 H   0  0  0  0  0  0
    0.4448    0.2401    3.1303 H   0  0  0  0  0  0
    1.4001   -1.1520    2.5643 H   0  0  0  0  0  0
    2.0454    1.7843    2.0352 H   0  0  0  0  0  0
    2.8738    0.7358    3.2103 H   0  0  0  0  0  0
    2.2490    1.4014   -0.2755 H   0  0  0  0  0  0
    3.2354    0.0558   -0.8940 H   0  0  0  0  0  0
    1.6206   -1.5667    0.0615 H   0  0  0  0  0  0
    0.8152   -0.4566   -1.0743 H   0  0  0  0  0  0
    4.2007    2.1189    0.9754 H   0  0  0  0  0  0
    4.9641    0.9991    2.1293 H   0  0  0  0  0  0
    4.5428    1.8642   -1.4147 H   0  0  0  0  0  0
    6.0292    1.0411   -3.1969 H   0  0  0  0  0  0
    7.6875   -0.7115   -2.7055 H   0  0  0  0  0  0
    7.8599   -1.6405   -0.4316 H   0  0  0  0  0  0
    6.3766   -0.8141    1.3517 H   0  0  0  0  0  0
   -5.8935    4.0958   -0.3986 H   0  0  0  0  0  0
   -6.5277    2.6989   -1.3011 H   0  0  0  0  0  0
   -6.5860    2.7100    0.4778 H   0  0  0  0  0  0
  1  2  2  0  0  0
  1  6  1  0  0  0
  1 28  1  0  0  0
  2  3  1  0  0  0
  2 29  1  0  0  0
  3  4  2  0  0  0
  3 26  1  0  0  0
  4  5  1  0  0  0
  4 10  1  0  0  0
  5  6  2  0  0  0
  5  7  1  0  0  0
  6 30  1  0  0  0
  7  8  2  0  0  0
  7  9  1  0  0  0
  9 10  1  0  0  0
  9 11  1  0  0  0
  9 31  1  0  0  0
 10 32  1  0  0  0
 10 33  1  0  0  0
 11 12  1  0  0  0
 11 34  1  0  0  0
 11 35  1  0  0  0
 12 13  1  0  0  0
 12 18  1  0  0  0
 12 36  1  0  0  0
 13 14  1  0  0  0
 13 37  1  0  0  0
 13 38  1  0  0  0
 14 15  1  0  0  0
 14 39  1  0  0  0
 14 40  1  0  0  0
 15 16  1  0  0  0
 15 17  1  0  0  0
 15 19  1  0  0  0
 17 18  1  0  0  0
 17 41  1  0  0  0
 17 42  1  0  0  0
 18 43  1  0  0  0
 18 44  1  0  0  0
 19 20  1  0  0  0
 19 45  1  0  0  0
 19 46  1  0  0  0
 20 21  2  0  0  0
 20 25  1  0  0  0
 21 22  1  0  0  0
 21 47  1  0  0  0
 22 23  2  0  0  0
 22 48  1  0  0  0
 23 24  1  0  0  0
 23 49  1  0  0  0
 24 25  2  0  0  0
 24 50  1  0  0  0
 25 51  1  0  0  0
 26 27  1  0  0  0
 27 52  1  0  0  0
 27 53  1  0  0  0
 27 54  1  0  0  0
M  CHG  1  15   1
M  END
>  <Activity>
7.92082

>  <set>
1

>  <Min_dist>
999.9

>  <Avg_dist>
999.9

$$$$
3-13I
  Cerius2 12110214483D 1   1.00000                          
 
 58 61  0  0  0  0  0  0  0  0999 V2000
   -5.7652    0.3960   -0.4418 C   0  0  0  0  0  0
   -5.3743    1.7216   -0.5172 C   0  0  0  0  0  0
   -4.0302    2.0552   -0.4948 C   0  0  0  0  0  0
   -3.0656    1.0738   -0.3978 C   0  0  0  0  0  0
   -3.4406   -0.2702   -0.3206 C   0  0  0  0  0  0
   -4.8075   -0.6065   -0.3432 C   0  0  0  0  0  0
   -5.1891   -1.9065   -0.2688 O   0  0  0  0  0  0
   -5.3502   -2.2109    1.1181 C   0  0  0  0  0  0
   -2.2572   -1.1342   -0.2248 C   0  0  0  0  0  0
   -2.2646   -2.3446   -0.1452 O   0  0  0  0  0  0
   -1.0300   -0.2557   -0.2432 C   0  0  0  0  0  0
   -1.5597    1.1805   -0.3559 C   0  0  0  0  0  0
   -0.2357   -0.4274    1.0531 C   0  0  0  0  0  0
    1.0708    0.3632    0.9592 C   0  0  0  0  0  0
    1.7984    0.3118    2.3058 C   0  0  0  0  0  0
    3.1404    1.0364    2.1822 C   0  0  0  0  0  0
    3.9610    0.3825    1.1558 N   0  3  0  0  0  0
    4.0798   -0.5913    1.3916 H   0  0  0  0  0  0
    3.3028    0.4909   -0.1517 C   0  0  0  0  0  0
    1.9670   -0.2547   -0.1180 C   0  0  0  0  0  0
    5.2762    1.0339    1.0941 C   0  0  0  0  0  0
    6.1199    0.3635    0.0406 C   0  0  0  0  0  0
    6.0895    0.8209   -1.2635 C   0  0  0  0  0  0
    6.8634    0.2060   -2.2299 C   0  0  0  0  0  0
    7.6679   -0.8661   -1.8921 C   0  0  0  0  0  0
    7.6990   -1.3230   -0.5878 C   0  0  0  0  0  0
    6.9284   -0.7053    0.3795 C   0  0  0  0  0  0
   -7.0867    0.0747   -0.4586 O   0  0  0  0  0  0
   -7.8092    1.3034   -0.5595 C   0  0  0  0  0  0
   -6.1202    2.4989   -0.5941 H   0  0  0  0  0  0
   -3.7348    3.0923   -0.5541 H   0  0  0  0  0  0
   -5.6581   -3.2507    1.2285 H   0  0  0  0  0  0
   -4.4042   -2.0551    1.6366 H   0  0  0  0  0  0
   -6.1113   -1.5591    1.5471 H   0  0  0  0  0  0
   -0.4061   -0.4966   -1.1039 H   0  0  0  0  0  0
   -1.1916    1.6447   -1.2708 H   0  0  0  0  0  0
   -1.2495    1.7632    0.5115 H   0  0  0  0  0  0
   -0.8249   -0.0572    1.8920 H   0  0  0  0  0  0
   -0.0114   -1.4833    1.2046 H   0  0  0  0  0  0
    0.8520    1.3997    0.7025 H   0  0  0  0  0  0
    1.1899    0.7999    3.0671 H   0  0  0  0  0  0
    1.9702   -0.7271    2.5872 H   0  0  0  0  0  0
    2.9674    2.0752    1.9010 H   0  0  0  0  0  0
    3.6610    1.0019    3.1392 H   0  0  0  0  0  0
    3.1263    1.5413   -0.3832 H   0  0  0  0  0  0
    3.9432    0.0536   -0.9178 H   0  0  0  0  0  0
    2.1424   -1.3054    0.1132 H   0  0  0  0  0  0
    1.4791   -0.1715   -1.0891 H   0  0  0  0  0  0
    5.1489    2.0866    0.8419 H   0  0  0  0  0  0
    5.7693    0.9493    2.0625 H   0  0  0  0  0  0
    5.4610    1.6586   -1.5275 H   0  0  0  0  0  0
    6.8391    0.5629   -3.2489 H   0  0  0  0  0  0
    8.2720   -1.3470   -2.6472 H   0  0  0  0  0  0
    8.3273   -2.1609   -0.3239 H   0  0  0  0  0  0
    6.9527   -1.0622    1.3985 H   0  0  0  0  0  0
   -8.8791    1.0955   -0.5765 H   0  0  0  0  0  0
   -7.5752    1.9340    0.2983 H   0  0  0  0  0  0
   -7.5245    1.8181   -1.4772 H   0  0  0  0  0  0
  1  2  2  0  0  0
  1  6  1  0  0  0
  1 28  1  0  0  0
  2  3  1  0  0  0
  2 30  1  0  0  0
  3  4  2  0  0  0
  3 31  1  0  0  0
  4  5  1  0  0  0
  4 12  1  0  0  0
  5  6  2  0  0  0
  5  9  1  0  0  0
  6  7  1  0  0  0
  7  8  1  0  0  0
  8 32  1  0  0  0
  8 33  1  0  0  0
  8 34  1  0  0  0
  9 10  2  0  0  0
  9 11  1  0  0  0
 11 12  1  0  0  0
 11 13  1  0  0  0
 11 35  1  0  0  0
 12 36  1  0  0  0
 12 37  1  0  0  0
 13 14  1  0  0  0
 13 38  1  0  0  0
 13 39  1  0  0  0
 14 15  1  0  0  0
 14 20  1  0  0  0
 14 40  1  0  0  0
 15 16  1  0  0  0
 15 41  1  0  0  0
 15 42  1  0  0  0
 16 17  1  0  0  0
 16 43  1  0  0  0
 16 44  1  0  0  0
 17 18  1  0  0  0
 17 19  1  0  0  0
 17 21  1  0  0  0
 19 20  1  0  0  0
 19 45  1  0  0  0
 19 46  1  0  0  0
 20 47  1  0  0  0
 20 48  1  0  0  0
 21 22  1  0  0  0
 21 49  1  0  0  0
 21 50  1  0  0  0
 22 23  2  0  0  0
 22 27  1  0  0  0
 23 24  1  0  0  0
 23 51  1  0  0  0
 24 25  2  0  0  0
 24 52  1  0  0  0
 25 26  1  0  0  0
 25 53  1  0  0  0
 26 27  2  0  0  0
 26 54  1  0  0  0
 27 55  1  0  0  0
 28 29  1  0  0  0
 29 56  1  0  0  0
 29 57  1  0  0  0
 29 58  1  0  0  0
M  CHG  1  17   1
M  END
>  <Activity>
7.07058

>  <set>
1

>  <Min_dist>
999.9

>  <Avg_dist>
999.9

$$$$
3-13J
  Cerius2 12110214483D 1   1.00000                          
 
 58 61  0  0  0  0  0  0  0  0999 V2000
   -5.7603    0.0079   -0.2838 C   0  0  0  0  0  0
   -5.4178    1.3319   -0.5170 C   0  0  0  0  0  0
   -4.0796    1.7113   -0.5600 C   0  0  0  0  0  0
   -3.0882    0.7879   -0.3737 C   0  0  0  0  0  0
   -3.4125   -0.5515   -0.1374 C   0  0  0  0  0  0
   -4.7696   -0.9373   -0.0936 C   0  0  0  0  0  0
   -5.1008   -2.2324    0.1346 O   0  0  0  0  0  0
   -6.5280   -2.3025    0.1199 C   0  0  0  0  0  0
   -2.1997   -1.3564    0.0317 C   0  0  0  0  0  0
   -2.1625   -2.5497    0.2482 O   0  0  0  0  0  0
   -1.0047   -0.4454   -0.1103 C   0  0  0  0  0  0
   -1.5866    0.9502   -0.3743 C   0  0  0  0  0  0
   -0.1844   -0.4421    1.1811 C   0  0  0  0  0  0
    1.0918    0.3757    0.9726 C   0  0  0  0  0  0
    1.8420    0.5021    2.3016 C   0  0  0  0  0  0
    3.1555    1.2521    2.0703 C   0  0  0  0  0  0
    3.9822    0.5133    1.1085 N   0  3  0  0  0  0
    4.1391   -0.4229    1.4507 H   0  0  0  0  0  0
    3.3000    0.4503   -0.1896 C   0  0  0  0  0  0
    1.9920   -0.3306   -0.0453 C   0  0  0  0  0  0
    5.2726    1.1968    0.9475 C   0  0  0  0  0  0
    6.1225    0.4393   -0.0398 C   0  0  0  0  0  0
    6.0553    0.7441   -1.3865 C   0  0  0  0  0  0
    6.8349    0.0493   -2.2922 C   0  0  0  0  0  0
    7.6821   -0.9501   -1.8511 C   0  0  0  0  0  0
    7.7499   -1.2543   -0.5044 C   0  0  0  0  0  0
    6.9735   -0.5565    0.4018 C   0  0  0  0  0  0
   -6.3902    2.2593   -0.7041 O   0  0  0  0  0  0
   -7.6399    1.5734   -0.6043 C   0  0  0  0  0  0
   -6.7997   -0.2832   -0.2465 H   0  0  0  0  0  0
   -3.8217    2.7440   -0.7425 H   0  0  0  0  0  0
   -6.8432   -3.3302    0.2999 H   0  0  0  0  0  0
   -6.9315   -1.6567    0.8998 H   0  0  0  0  0  0
   -6.8979   -1.9739   -0.8514 H   0  0  0  0  0  0
   -0.3865   -0.7618   -0.9504 H   0  0  0  0  0  0
   -1.2499    1.3194   -1.3430 H   0  0  0  0  0  0
   -1.2837    1.6379    0.4153 H   0  0  0  0  0  0
   -0.7729    0.0014    1.9843 H   0  0  0  0  0  0
    0.0794   -1.4658    1.4467 H   0  0  0  0  0  0
    0.8325    1.3684    0.6045 H   0  0  0  0  0  0
    1.2289    1.0532    3.0147 H   0  0  0  0  0  0
    2.0548   -0.4918    2.6954 H   0  0  0  0  0  0
    2.9415    2.2459    1.6769 H   0  0  0  0  0  0
    3.6921    1.3440    3.0147 H   0  0  0  0  0  0
    3.0829    1.4611   -0.5349 H   0  0  0  0  0  0
    3.9432   -0.0498   -0.9137 H   0  0  0  0  0  0
    2.2080   -1.3418    0.2998 H   0  0  0  0  0  0
    1.4861   -0.3747   -1.0097 H   0  0  0  0  0  0
    5.1041    2.2092    0.5804 H   0  0  0  0  0  0
    5.7836    1.2394    1.9093 H   0  0  0  0  0  0
    5.3935    1.5249   -1.7310 H   0  0  0  0  0  0
    6.7819    0.2870   -3.3443 H   0  0  0  0  0  0
    8.2907   -1.4935   -2.5588 H   0  0  0  0  0  0
    8.4115   -2.0354   -0.1599 H   0  0  0  0  0  0
    7.0265   -0.7942    1.4540 H   0  0  0  0  0  0
   -8.4557    2.2817   -0.7487 H   0  0  0  0  0  0
   -7.6914    0.7989   -1.3697 H   0  0  0  0  0  0
   -7.7257    1.1163    0.3815 H   0  0  0  0  0  0
  1  2  2  0  0  0
  1  6  1  0  0  0
  1 30  1  0  0  0
  2  3  1  0  0  0
  2 28  1  0  0  0
  3  4  2  0  0  0
  3 31  1  0  0  0
  4  5  1  0  0  0
  4 12  1  0  0  0
  5  6  2  0  0  0
  5  9  1  0  0  0
  6  7  1  0  0  0
  7  8  1  0  0  0
  8 32  1  0  0  0
  8 33  1  0  0  0
  8 34  1  0  0  0
  9 10  2  0  0  0
  9 11  1  0  0  0
 11 12  1  0  0  0
 11 13  1  0  0  0
 11 35  1  0  0  0
 12 36  1  0  0  0
 12 37  1  0  0  0
 13 14  1  0  0  0
 13 38  1  0  0  0
 13 39  1  0  0  0
 14 15  1  0  0  0
 14 20  1  0  0  0
 14 40  1  0  0  0
 15 16  1  0  0  0
 15 41  1  0  0  0
 15 42  1  0  0  0
 16 17  1  0  0  0
 16 43  1  0  0  0
 16 44  1  0  0  0
 17 18  1  0  0  0
 17 19  1  0  0  0
 17 21  1  0  0  0
 19 20  1  0  0  0
 19 45  1  0  0  0
 19 46  1  0  0  0
 20 47  1  0  0  0
 20 48  1  0  0  0
 21 22  1  0  0  0
 21 49  1  0  0  0
 21 50  1  0  0  0
 22 23  2  0  0  0
 22 27  1  0  0  0
 23 24  1  0  0  0
 23 51  1  0  0  0
 24 25  2  0  0  0
 24 52  1  0  0  0
 25 26  1  0  0  0
 25 53  1  0  0  0
 26 27  2  0  0  0
 26 54  1  0  0  0
 27 55  1  0  0  0
 28 29  1  0  0  0
 29 56  1  0  0  0
 29 57  1  0  0  0
 29 58  1  0  0  0
M  CHG  1  17   1
M  END
>  <Activity>
7.60206

>  <set>
1

>  <Min_dist>
999.9

>  <Avg_dist>
999.9

$$$$
3-13K
  Cerius2 12110214483D 1   1.00000                          
 
 58 61  0  0  0  0  0  0  0  0999 V2000
   -5.9670   -0.1313   -0.2976 C   0  0  0  0  0  0
   -5.6450    1.2083   -0.3797 C   0  0  0  0  0  0
   -4.3149    1.6100   -0.3760 C   0  0  0  0  0  0
   -3.3007    0.6719   -0.2900 C   0  0  0  0  0  0
   -3.6137   -0.6865   -0.2065 C   0  0  0  0  0  0
   -4.9655   -1.0839   -0.2110 C   0  0  0  0  0  0
   -5.2860   -2.3997   -0.1304 O   0  0  0  0  0  0
   -6.7125   -2.4798   -0.1578 C   0  0  0  0  0  0
   -2.3916   -1.4963   -0.1243 C   0  0  0  0  0  0
   -2.3435   -2.7055   -0.0424 O   0  0  0  0  0  0
   -1.2055   -0.5634   -0.1594 C   0  0  0  0  0  0
   -1.8011    0.8471   -0.2673 C   0  0  0  0  0  0
   -0.3881   -0.6966    1.1271 C   0  0  0  0  0  0
    0.8802    0.1518    1.0156 C   0  0  0  0  0  0
    1.6261    0.1359    2.3530 C   0  0  0  0  0  0
    2.9325    0.9200    2.2116 C   0  0  0  0  0  0
    3.7688    0.3016    1.1758 N   0  3  0  0  0  0
    3.9343   -0.6654    1.4116 H   0  0  0  0  0  0
    3.0901    0.3777   -0.1234 C   0  0  0  0  0  0
    1.7898   -0.4272   -0.0718 C   0  0  0  0  0  0
    5.0525    1.0114    1.0967 C   0  0  0  0  0  0
    5.9123    0.3776    0.0337 C   0  0  0  0  0  0
    5.8450    0.8307   -1.2706 C   0  0  0  0  0  0
    6.6337    0.2493   -2.2458 C   0  0  0  0  0  0
    7.4899   -0.7849   -1.9165 C   0  0  0  0  0  0
    7.5578   -1.2373   -0.6121 C   0  0  0  0  0  0
    6.7723   -0.6530    0.3639 C   0  0  0  0  0  0
   -4.0077    2.9322   -0.4577 O   0  0  0  0  0  0
   -5.2466    3.6401   -0.5339 C   0  0  0  0  0  0
   -7.0028   -0.4371   -0.2965 H   0  0  0  0  0  0
   -6.4298    1.9471   -0.4474 H   0  0  0  0  0  0
   -7.0191   -3.5239   -0.0951 H   0  0  0  0  0  0
   -7.1236   -1.9290    0.6882 H   0  0  0  0  0  0
   -7.0829   -2.0476   -1.0874 H   0  0  0  0  0  0
   -0.5822   -0.7775   -1.0276 H   0  0  0  0  0  0
   -1.4660    1.3259   -1.1874 H   0  0  0  0  0  0
   -1.5069    1.4450    0.5953 H   0  0  0  0  0  0
   -0.9829   -0.3516    1.9728 H   0  0  0  0  0  0
   -0.1146   -1.7410    1.2772 H   0  0  0  0  0  0
    0.6117    1.1769    0.7602 H   0  0  0  0  0  0
    1.0058    0.5977    3.1212 H   0  0  0  0  0  0
    1.8481   -0.8937    2.6338 H   0  0  0  0  0  0
    2.7093    1.9494    1.9311 H   0  0  0  0  0  0
    3.4660    0.9108    3.1621 H   0  0  0  0  0  0
    2.8636    1.4186   -0.3541 H   0  0  0  0  0  0
    3.7399   -0.0318   -0.8968 H   0  0  0  0  0  0
    2.0152   -1.4685    0.1586 H   0  0  0  0  0  0
    1.2865   -0.3680   -1.0369 H   0  0  0  0  0  0
    4.8747    2.0569    0.8447 H   0  0  0  0  0  0
    5.5609    0.9511    2.0590 H   0  0  0  0  0  0
    5.1761    1.6386   -1.5278 H   0  0  0  0  0  0
    6.5806    0.6027   -3.2649 H   0  0  0  0  0  0
    8.1055   -1.2396   -2.6785 H   0  0  0  0  0  0
    8.2264   -2.0455   -0.3549 H   0  0  0  0  0  0
    6.8253   -1.0064    1.3830 H   0  0  0  0  0  0
   -5.0502    4.7101   -0.6012 H   0  0  0  0  0  0
   -5.7969    3.3155   -1.4170 H   0  0  0  0  0  0
   -5.8379    3.4347    0.3585 H   0  0  0  0  0  0
  1  2  2  0  0  0
  1  6  1  0  0  0
  1 30  1  0  0  0
  2  3  1  0  0  0
  2 31  1  0  0  0
  3  4  2  0  0  0
  3 28  1  0  0  0
  4  5  1  0  0  0
  4 12  1  0  0  0
  5  6  2  0  0  0
  5  9  1  0  0  0
  6  7  1  0  0  0
  7  8  1  0  0  0
  8 32  1  0  0  0
  8 33  1  0  0  0
  8 34  1  0  0  0
  9 10  2  0  0  0
  9 11  1  0  0  0
 11 12  1  0  0  0
 11 13  1  0  0  0
 11 35  1  0  0  0
 12 36  1  0  0  0
 12 37  1  0  0  0
 13 14  1  0  0  0
 13 38  1  0  0  0
 13 39  1  0  0  0
 14 15  1  0  0  0
 14 20  1  0  0  0
 14 40  1  0  0  0
 15 16  1  0  0  0
 15 41  1  0  0  0
 15 42  1  0  0  0
 16 17  1  0  0  0
 16 43  1  0  0  0
 16 44  1  0  0  0
 17 18  1  0  0  0
 17 19  1  0  0  0
 17 21  1  0  0  0
 19 20  1  0  0  0
 19 45  1  0  0  0
 19 46  1  0  0  0
 20 47  1  0  0  0
 20 48  1  0  0  0
 21 22  1  0  0  0
 21 49  1  0  0  0
 21 50  1  0  0  0
 22 23  2  0  0  0
 22 27  1  0  0  0
 23 24  1  0  0  0
 23 51  1  0  0  0
 24 25  2  0  0  0
 24 52  1  0  0  0
 25 26  1  0  0  0
 25 53  1  0  0  0
 26 27  2  0  0  0
 26 54  1  0  0  0
 27 55  1  0  0  0
 28 29  1  0  0  0
 29 56  1  0  0  0
 29 57  1  0  0  0
 29 58  1  0  0  0
M  CHG  1  17   1
M  END
>  <Activity>
7.4437

>  <set>
1

>  <Min_dist>
999.9

>  <Avg_dist>
999.9

$$$$
3-13L
  Cerius2 12110214483D 1   1.00000                          
 
 58 61  0  0  0  0  0  0  0  0999 V2000
   -5.8477   -1.0543   -0.1944 C   0  0  0  0  0  0
   -5.6578    0.2907   -0.4835 C   0  0  0  0  0  0
   -4.3672    0.8135   -0.5549 C   0  0  0  0  0  0
   -3.2731   -0.0041   -0.3390 C   0  0  0  0  0  0
   -3.4606   -1.3576   -0.0480 C   0  0  0  0  0  0
   -4.7652   -1.8745    0.0222 C   0  0  0  0  0  0
   -2.1681   -2.0302    0.1427 C   0  0  0  0  0  0
   -2.0086   -3.2037    0.4050 O   0  0  0  0  0  0
   -1.0733   -1.0083   -0.0453 C   0  0  0  0  0  0
   -1.7961    0.3090   -0.3587 C   0  0  0  0  0  0
   -0.2516   -0.8698    1.2378 C   0  0  0  0  0  0
    0.9332    0.0650    0.9863 C   0  0  0  0  0  0
    1.6727    0.3202    2.3028 C   0  0  0  0  0  0
    2.9015    1.1906    2.0308 C   0  0  0  0  0  0
    3.7950    0.5023    1.0915 N   0  3  0  0  0  0
    4.0484   -0.3986    1.4686 H   0  0  0  0  0  0
    3.1167    0.3183   -0.1972 C   0  0  0  0  0  0
    1.8962   -0.5857   -0.0110 C   0  0  0  0  0  0
    5.0078    1.3070    0.8926 C   0  0  0  0  0  0
    5.9262    0.6015   -0.0717 C   0  0  0  0  0  0
    5.8219    0.8440   -1.4286 C   0  0  0  0  0  0
    6.6643    0.1969   -2.3132 C   0  0  0  0  0  0
    7.6113   -0.6924   -1.8408 C   0  0  0  0  0  0
    7.7162   -0.9342   -0.4838 C   0  0  0  0  0  0
    6.8767   -0.2838    0.4011 C   0  0  0  0  0  0
   -4.1840    2.1310   -0.8382 O   0  0  0  0  0  0
   -4.1733    2.8244    0.4113 C   0  0  0  0  0  0
   -6.7290    1.0966   -0.6970 O   0  0  0  0  0  0
   -7.8940    0.2808   -0.5574 C   0  0  0  0  0  0
   -6.8484   -1.4563   -0.1352 H   0  0  0  0  0  0
   -4.9185   -2.9197    0.2466 H   0  0  0  0  0  0
   -0.4298   -1.2932   -0.8778 H   0  0  0  0  0  0
   -1.5032    0.6717   -1.3439 H   0  0  0  0  0  0
   -1.5612    1.0548    0.4007 H   0  0  0  0  0  0
   -0.8787   -0.4571    2.0281 H   0  0  0  0  0  0
    0.1168   -1.8498    1.5409 H   0  0  0  0  0  0
    0.5719    1.0106    0.5819 H   0  0  0  0  0  0
    1.0097    0.8337    2.9990 H   0  0  0  0  0  0
    1.9880   -0.6303    2.7332 H   0  0  0  0  0  0
    2.5850    2.1408    1.6007 H   0  0  0  0  0  0
    3.4302    1.3744    2.9661 H   0  0  0  0  0  0
    2.7957    1.2872   -0.5799 H   0  0  0  0  0  0
    3.8043   -0.1419   -0.9067 H   0  0  0  0  0  0
    2.2161   -1.5549    0.3715 H   0  0  0  0  0  0
    1.3929   -0.7196   -0.9685 H   0  0  0  0  0  0
    4.7349    2.2815    0.4876 H   0  0  0  0  0  0
    5.5163    1.4399    1.8475 H   0  0  0  0  0  0
    5.0820    1.5388   -1.7977 H   0  0  0  0  0  0
    6.5823    0.3858   -3.3734 H   0  0  0  0  0  0
    8.2690   -1.1986   -2.5319 H   0  0  0  0  0  0
    8.4559   -1.6293   -0.1148 H   0  0  0  0  0  0
    6.9587   -0.4727    1.4613 H   0  0  0  0  0  0
   -4.0282    3.8901    0.2341 H   0  0  0  0  0  0
   -5.1231    2.6670    0.9223 H   0  0  0  0  0  0
   -3.3603    2.4451    1.0304 H   0  0  0  0  0  0
   -8.7844    0.8879   -0.7211 H   0  0  0  0  0  0
   -7.8635   -0.5247   -1.2911 H   0  0  0  0  0  0
   -7.9226   -0.1429    0.4465 H   0  0  0  0  0  0
  1  2  2  0  0  0
  1  6  1  0  0  0
  1 30  1  0  0  0
  2  3  1  0  0  0
  2 28  1  0  0  0
  3  4  2  0  0  0
  3 26  1  0  0  0
  4  5  1  0  0  0
  4 10  1  0  0  0
  5  6  2  0  0  0
  5  7  1  0  0  0
  6 31  1  0  0  0
  7  8  2  0  0  0
  7  9  1  0  0  0
  9 10  1  0  0  0
  9 11  1  0  0  0
  9 32  1  0  0  0
 10 33  1  0  0  0
 10 34  1  0  0  0
 11 12  1  0  0  0
 11 35  1  0  0  0
 11 36  1  0  0  0
 12 13  1  0  0  0
 12 18  1  0  0  0
 12 37  1  0  0  0
 13 14  1  0  0  0
 13 38  1  0  0  0
 13 39  1  0  0  0
 14 15  1  0  0  0
 14 40  1  0  0  0
 14 41  1  0  0  0
 15 16  1  0  0  0
 15 17  1  0  0  0
 15 19  1  0  0  0
 17 18  1  0  0  0
 17 42  1  0  0  0
 17 43  1  0  0  0
 18 44  1  0  0  0
 18 45  1  0  0  0
 19 20  1  0  0  0
 19 46  1  0  0  0
 19 47  1  0  0  0
 20 21  2  0  0  0
 20 25  1  0  0  0
 21 22  1  0  0  0
 21 48  1  0  0  0
 22 23  2  0  0  0
 22 49  1  0  0  0
 23 24  1  0  0  0
 23 50  1  0  0  0
 24 25  2  0  0  0
 24 51  1  0  0  0
 25 52  1  0  0  0
 26 27  1  0  0  0
 27 53  1  0  0  0
 27 54  1  0  0  0
 27 55  1  0  0  0
 28 29  1  0  0  0
 29 56  1  0  0  0
 29 57  1  0  0  0
 29 58  1  0  0  0
M  CHG  1  15   1
M  END
>  <Activity>
7.69897

>  <set>
1

>  <Min_dist>
999.9

>  <Avg_dist>
999.9

$$$$
3-13N
  Cerius2 12110214483D 1   1.00000                          
 
 55 58  0  0  0  0  0  0  0  0999 V2000
   -5.2084    0.1604   -0.2927 C   0  0  0  0  0  0
   -4.9782   -1.2048   -0.1227 C   0  0  0  0  0  0
   -3.7334   -1.6524    0.2978 C   0  0  0  0  0  0
   -2.7175   -0.7531    0.5500 C   0  0  0  0  0  0
   -2.9378    0.6158    0.3828 C   0  0  0  0  0  0
   -4.1995    1.0659   -0.0432 C   0  0  0  0  0  0
   -1.7247    1.3794    0.7062 C   0  0  0  0  0  0
   -1.6087    2.5858    0.6556 O   0  0  0  0  0  0
   -0.6480    0.4027    1.1123 C   0  0  0  0  0  0
   -1.2976   -0.9841    1.0095 C   0  0  0  0  0  0
    0.5443    0.5016    0.1587 C   0  0  0  0  0  0
    1.1391    1.9111    0.2268 C   0  0  0  0  0  0
    2.3781    1.9798   -0.6685 C   0  0  0  0  0  0
    3.3736    1.0043   -0.2080 N   0  3  0  0  0  0
    3.5979    1.1851    0.7590 H   0  0  0  0  0  0
    2.8359   -0.3552   -0.3381 C   0  0  0  0  0  0
    1.6145   -0.5138    0.5699 C   0  0  0  0  0  0
    4.5900    1.1267   -1.0225 C   0  0  0  0  0  0
    5.6131    0.1257   -0.5509 C   0  0  0  0  0  0
    5.6478   -1.1404   -1.1047 C   0  0  0  0  0  0
    6.5862   -2.0586   -0.6721 C   0  0  0  0  0  0
    7.4902   -1.7106    0.3141 C   0  0  0  0  0  0
    7.4561   -0.4442    0.8673 C   0  0  0  0  0  0
    6.5205    0.4754    0.4316 C   0  0  0  0  0  0
   -5.9722   -2.0961   -0.3681 O   0  0  0  0  0  0
   -5.4361   -3.3948   -0.1076 C   0  0  0  0  0  0
   -6.4266    0.5977   -0.7101 O   0  0  0  0  0  0
   -6.3499    2.0225   -0.7870 C   0  0  0  0  0  0
   -3.5591   -2.7101    0.4286 H   0  0  0  0  0  0
   -4.3787    2.1227   -0.1751 H   0  0  0  0  0  0
   -0.3300    0.5957    2.1369 H   0  0  0  0  0  0
   -1.2940   -1.4725    1.9839 H   0  0  0  0  0  0
   -0.7632   -1.5949    0.2819 H   0  0  0  0  0  0
    0.2150    0.2937   -0.8594 H   0  0  0  0  0  0
    0.4005    2.6349   -0.1178 H   0  0  0  0  0  0
    1.4200    2.1383    1.2552 H   0  0  0  0  0  0
    2.0961    1.7527   -1.6965 H   0  0  0  0  0  0
    2.8040    2.9821   -0.6225 H   0  0  0  0  0  0
    2.5441   -0.5326   -1.3732 H   0  0  0  0  0  0
    3.5997   -1.0768   -0.0482 H   0  0  0  0  0  0
    1.9053   -0.3369    1.6054 H   0  0  0  0  0  0
    1.2157   -1.5233    0.4705 H   0  0  0  0  0  0
    4.3483    0.9341   -2.0677 H   0  0  0  0  0  0
    4.9944    2.1340   -0.9226 H   0  0  0  0  0  0
    4.9415   -1.4123   -1.8752 H   0  0  0  0  0  0
    6.6129   -3.0480   -1.1043 H   0  0  0  0  0  0
    8.2229   -2.4282    0.6526 H   0  0  0  0  0  0
    8.1622   -0.1724    1.6381 H   0  0  0  0  0  0
    6.4938    1.4648    0.8638 H   0  0  0  0  0  0
   -6.2022   -4.1479   -0.2920 H   0  0  0  0  0  0
   -4.5845   -3.5746   -0.7637 H   0  0  0  0  0  0
   -5.1126   -3.4526    0.9317 H   0  0  0  0  0  0
   -7.3086    2.4206   -1.1193 H   0  0  0  0  0  0
   -6.1096    2.4271    0.1962 H   0  0  0  0  0  0
   -5.5728    2.3068   -1.4966 H   0  0  0  0  0  0
  1  2  2  0  0  0
  1  6  1  0  0  0
  1 27  1  0  0  0
  2  3  1  0  0  0
  2 25  1  0  0  0
  3  4  2  0  0  0
  3 29  1  0  0  0
  4  5  1  0  0  0
  4 10  1  0  0  0
  5  6  2  0  0  0
  5  7  1  0  0  0
  6 30  1  0  0  0
  7  8  2  0  0  0
  7  9  1  0  0  0
  9 10  1  0  0  0
  9 11  1  0  0  0
  9 31  1  0  0  0
 10 32  1  0  0  0
 10 33  1  0  0  0
 11 12  1  0  0  0
 11 17  1  0  0  0
 11 34  1  0  0  0
 12 13  1  0  0  0
 12 35  1  0  0  0
 12 36  1  0  0  0
 13 14  1  0  0  0
 13 37  1  0  0  0
 13 38  1  0  0  0
 14 15  1  0  0  0
 14 16  1  0  0  0
 14 18  1  0  0  0
 16 17  1  0  0  0
 16 39  1  0  0  0
 16 40  1  0  0  0
 17 41  1  0  0  0
 17 42  1  0  0  0
 18 19  1  0  0  0
 18 43  1  0  0  0
 18 44  1  0  0  0
 19 20  2  0  0  0
 19 24  1  0  0  0
 20 21  1  0  0  0
 20 45  1  0  0  0
 21 22  2  0  0  0
 21 46  1  0  0  0
 22 23  1  0  0  0
 22 47  1  0  0  0
 23 24  2  0  0  0
 23 48  1  0  0  0
 24 49  1  0  0  0
 25 26  1  0  0  0
 26 50  1  0  0  0
 26 51  1  0  0  0
 26 52  1  0  0  0
 27 28  1  0  0  0
 28 53  1  0  0  0
 28 54  1  0  0  0
 28 55  1  0  0  0
M  CHG  1  14   1
M  END
>  <Activity>
5.48149

>  <set>
1

>  <Min_dist>
999.9

>  <Avg_dist>
999.9

$$$$
3-13O
  Cerius2 12110214483D 1   1.00000                          
BGF file created by Open Babel 1.100.1
 61 64  0  0  0  0  0  0  0  0999 V2000
    4.9012   63.6570   67.1245 C   0  0  0  0  0  0
    4.3855   65.0953   67.1679 C   0  0  0  0  0  0
    5.2770   66.2628   67.6398 C   0  0  0  0  0  0
    4.5857   67.6253   67.4818 C   0  0  0  0  0  0
    4.1925   67.8073   66.0805 N   0  3  0  0  0  0
    3.1996   66.8221   65.6392 C   0  0  0  0  0  0
    3.8229   65.4102   65.7568 C   0  0  0  0  0  0
    4.3302   69.1509   65.5151 C   0  0  0  0  0  0
    4.2612   69.1992   64.0021 C   0  0  0  0  0  0
    3.0583   69.6122   63.4103 C   0  0  0  0  0  0
    2.9137   69.6073   62.0214 C   0  0  0  0  0  0
    3.9685   69.1928   61.2101 C   0  0  0  0  0  0
    5.1698   68.7828   61.7855 C   0  0  0  0  0  0
    5.3166   68.7866   63.1737 C   0  0  0  0  0  0
    5.5383   63.3911   67.9873 H   0  0  0  0  0  0
    5.5118   63.4701   66.2240 H   0  0  0  0  0  0
    3.5310   65.0411   67.8689 H   0  0  0  0  0  0
    5.5824   66.1197   68.6906 H   0  0  0  0  0  0
    6.2068   66.2717   67.0398 H   0  0  0  0  0  0
    3.7145   67.7004   68.1590 H   0  0  0  0  0  0
    5.2829   68.4214   67.7923 H   0  0  0  0  0  0
    2.2727   66.8895   66.2384 H   0  0  0  0  0  0
    2.9028   66.9965   64.5928 H   0  0  0  0  0  0
    4.6504   65.3441   65.0247 H   0  0  0  0  0  0
    3.0777   64.6579   65.4492 H   0  0  0  0  0  0
    3.5737   69.8400   65.9317 H   0  0  0  0  0  0
    5.3143   69.5451   65.8234 H   0  0  0  0  0  0
    2.2062   69.9310   64.0444 H   0  0  0  0  0  0
    1.9555   69.9248   61.5679 H   0  0  0  0  0  0
    3.8512   69.1849   60.1094 H   0  0  0  0  0  0
    6.0072   68.4449   61.1453 H   0  0  0  0  0  0
    6.2681   68.4425   63.6279 H   0  0  0  0  0  0
    3.6505   62.7522   67.1188 C   0  0  0  0  0  0
    3.1447   62.8703   68.5822 C   0  0  0  0  0  0
    3.4351   61.5249   69.0750 C   0  0  0  0  0  0
    4.4126   60.8107   68.8753 O   0  0  0  0  0  0
    2.3360   61.2610   69.9910 C   0  0  0  0  0  0
    2.1816   60.0574   70.7052 C   0  0  0  0  0  0
    1.0937   59.8814   71.5627 C   0  0  0  0  0  0
    0.1451   60.9030   71.7211 C   0  0  0  0  0  0
    0.3027   62.1039   71.0182 C   0  0  0  0  0  0
    1.3932   62.2913   70.1618 C   0  0  0  0  0  0
    2.8904   63.0298   66.3777 H   0  0  0  0  0  0
    3.9249   61.7316   66.8036 H   0  0  0  0  0  0
    2.9204   59.2427   70.5798 H   0  0  0  0  0  0
   -0.4380   62.9164   71.1493 H   0  0  0  0  0  0
    4.9170   67.4352   65.6976 H   0  0  0  0  0  0
    1.7182   63.3461   69.0819 C   0  0  0  0  0  0
   -1.9461   61.6499   72.7498 C   0  0  0  0  0  0
   -0.9124   60.6890   72.5698 O   0  0  0  0  0  0
   -2.4715   61.8676   71.8078 H   0  0  0  0  0  0
   -2.6580   61.2011   73.4573 H   0  0  0  0  0  0
   -1.5628   62.5877   73.1789 H   0  0  0  0  0  0
    1.8063   57.6159   72.1658 C   0  0  0  0  0  0
    0.9121   58.7179   72.2712 O   0  0  0  0  0  0
    2.8230   57.8784   72.4948 H   0  0  0  0  0  0
    1.4096   56.8375   72.8330 H   0  0  0  0  0  0
    1.8466   57.2157   71.1415 H   0  0  0  0  0  0
    3.8712   63.4334   69.2034 H   0  0  0  0  0  0
    1.7561   64.3626   69.5005 H   0  0  0  0  0  0
    0.9359   63.3348   68.3061 H   0  0  0  0  0  0
  1  2  1  0  0  0
  1 15  1  0  0  0
  1 16  1  0  0  0
  1 33  1  0  0  0
  2  3  1  0  0  0
  2  7  1  0  0  0
  2 17  1  0  0  0
  3  4  1  0  0  0
  3 18  1  0  0  0
  3 19  1  0  0  0
  4  5  1  0  0  0
  4 20  1  0  0  0
  4 21  1  0  0  0
  5  6  1  0  0  0
  5  8  1  0  0  0
  5 47  1  0  0  0
  6  7  1  0  0  0
  6 22  1  0  0  0
  6 23  1  0  0  0
  7 24  1  0  0  0
  7 25  1  0  0  0
  8  9  1  0  0  0
  8 26  1  0  0  0
  8 27  1  0  0  0
  9 10  1  0  0  0
  9 14  2  0  0  0
 10 11  2  0  0  0
 10 28  1  0  0  0
 11 12  1  0  0  0
 11 29  1  0  0  0
 12 13  2  0  0  0
 12 30  1  0  0  0
 13 14  1  0  0  0
 13 31  1  0  0  0
 14 32  1  0  0  0
 33 34  1  0  0  0
 33 43  1  0  0  0
 33 44  1  0  0  0
 34 35  1  0  0  0
 34 48  1  0  0  0
 34 59  1  0  0  0
 35 36  2  0  0  0
 35 37  1  0  0  0
 37 38  2  0  0  0
 37 42  1  0  0  0
 38 39  1  0  0  0
 38 45  1  0  0  0
 39 40  2  0  0  0
 39 55  1  0  0  0
 40 41  1  0  0  0
 40 50  1  0  0  0
 41 42  2  0  0  0
 41 46  1  0  0  0
 42 48  1  0  0  0
 48 60  1  0  0  0
 48 61  1  0  0  0
 49 50  1  0  0  0
 49 51  1  0  0  0
 49 52  1  0  0  0
 49 53  1  0  0  0
 54 55  1  0  0  0
 54 56  1  0  0  0
 54 57  1  0  0  0
 54 58  1  0  0  0
M  CHG  1   5   1
M  END
>  <Activity>
7.52288

>  <set>
1

>  <Min_dist>
999.9

>  <Avg_dist>
999.9

$$$$
3-15A
  Cerius2 12110214483D 1   1.00000                          
Structure written by Cerius2 SD Exporter
 58 61  0  0  0  0  0  0  0  0999 V2000
   -5.6949   -0.2552   -0.2904 C   0  0  0  0  0  0
   -5.3668    1.1003   -0.2729 C   0  0  0  0  0  0
   -4.0358    1.4927   -0.2421 C   0  0  0  0  0  0
   -3.0302    0.5477   -0.2285 C   0  0  0  0  0  0
   -3.3481   -0.8121   -0.2458 C   0  0  0  0  0  0
   -4.6971   -1.2062   -0.2770 C   0  0  0  0  0  0
   -2.1276   -1.6301   -0.2267 C   0  0  0  0  0  0
   -2.0832   -2.8422   -0.2353 O   0  0  0  0  0  0
   -0.9386   -0.7009   -0.1946 C   0  0  0  0  0  0
   -1.5297    0.7155   -0.1958 C   0  0  0  0  0  0
   -0.1193   -0.9322    1.0767 C   0  0  0  0  0  0
    1.0935   -0.1044    1.0350 N   0  3  0  0  0  0
    0.8382    0.8582    0.8725 H   0  0  0  0  0  0
    1.8046   -0.2129    2.3158 C   0  0  0  0  0  0
    3.0678    0.6494    2.2724 C   0  0  0  0  0  0
    3.9410    0.1844    1.1866 C   0  3  0  0  0  0
    4.1963   -0.7782    1.3491 H   0  0  0  0  0  0
    3.2299    0.2929   -0.0942 C   0  0  0  0  0  0
    1.9667   -0.5694   -0.0509 C   0  0  0  0  0  0
    5.1538    1.0122    1.1449 C   0  0  0  0  0  0
    6.0497    0.5352    0.0310 C   0  0  0  0  0  0
    5.9202    1.0699   -1.2372 C   0  0  0  0  0  0
    6.7419    0.6323   -2.2590 C   0  0  0  0  0  0
    7.6934   -0.3397   -2.0126 C   0  0  0  0  0  0
    7.8235   -0.8738   -0.7442 C   0  0  0  0  0  0
    7.0047   -0.4331    0.2786 C   0  0  0  0  0  0
   -6.3499    2.0364   -0.2866 O   0  0  0  0  0  0
   -5.7060    3.3119   -0.2630 C   0  0  0  0  0  0
   -6.9994   -0.6388   -0.3150 O   0  0  0  0  0  0
   -7.0096   -2.0677   -0.3280 C   0  0  0  0  0  0
   -3.7857    2.5433   -0.2289 H   0  0  0  0  0  0
   -4.9521   -2.2556   -0.2906 H   0  0  0  0  0  0
   -0.3176   -0.8517   -1.0776 H   0  0  0  0  0  0
   -1.1945    1.2604   -1.0783 H   0  0  0  0  0  0
   -1.2318    1.2464    0.7083 H   0  0  0  0  0  0
   -0.7154   -0.6599    1.9476 H   0  0  0  0  0  0
    0.1605   -1.9836    1.1422 H   0  0  0  0  0  0
    1.1566    0.1322    3.1215 H   0  0  0  0  0  0
    2.0804   -1.2527    2.4913 H   0  0  0  0  0  0
    2.7920    1.6892    2.0969 H   0  0  0  0  0  0
    3.5954    0.5689    3.2228 H   0  0  0  0  0  0
    2.9541    1.3327   -0.2698 H   0  0  0  0  0  0
    3.8778   -0.0522   -0.9000 H   0  0  0  0  0  0
    2.2425   -1.6092    0.1247 H   0  0  0  0  0  0
    1.4390   -0.4889   -1.0012 H   0  0  0  0  0  0
    4.8781    2.0521    0.9694 H   0  0  0  0  0  0
    5.6815    0.9317    2.0953 H   0  0  0  0  0  0
    5.1768    1.8293   -1.4297 H   0  0  0  0  0  0
    6.6403    1.0495   -3.2500 H   0  0  0  0  0  0
    8.3349   -0.6822   -2.8111 H   0  0  0  0  0  0
    8.5667   -1.6334   -0.5518 H   0  0  0  0  0  0
    7.1063   -0.8503    1.2696 H   0  0  0  0  0  0
   -6.4594    4.0995   -0.2729 H   0  0  0  0  0  0
   -5.1026    3.3977    0.6407 H   0  0  0  0  0  0
   -5.0648    3.4115   -1.1388 H   0  0  0  0  0  0
   -8.0397   -2.4236   -0.3479 H   0  0  0  0  0  0
   -6.4840   -2.4268   -1.2129 H   0  0  0  0  0  0
   -6.5129   -2.4428    0.5668 H   0  0  0  0  0  0
  1  2  2  0  0  0
  1  6  1  0  0  0
  1 29  1  0  0  0
  2  3  1  0  0  0
  2 27  1  0  0  0
  3  4  2  0  0  0
  3 31  1  0  0  0
  4  5  1  0  0  0
  4 10  1  0  0  0
  5  6  2  0  0  0
  5  7  1  0  0  0
  6 32  1  0  0  0
  7  8  2  0  0  0
  7  9  1  0  0  0
  9 10  1  0  0  0
  9 11  1  0  0  0
  9 33  1  0  0  0
 10 34  1  0  0  0
 10 35  1  0  0  0
 11 12  1  0  0  0
 11 36  1  0  0  0
 11 37  1  0  0  0
 12 13  1  0  0  0
 12 14  1  0  0  0
 12 19  1  0  0  0
 14 15  1  0  0  0
 14 38  1  0  0  0
 14 39  1  0  0  0
 15 16  1  0  0  0
 15 40  1  0  0  0
 15 41  1  0  0  0
 16 17  1  0  0  0
 16 18  1  0  0  0
 16 20  1  0  0  0
 18 19  1  0  0  0
 18 42  1  0  0  0
 18 43  1  0  0  0
 19 44  1  0  0  0
 19 45  1  0  0  0
 20 21  1  0  0  0
 20 46  1  0  0  0
 20 47  1  0  0  0
 21 22  2  0  0  0
 21 26  1  0  0  0
 22 23  1  0  0  0
 22 48  1  0  0  0
 23 24  2  0  0  0
 23 49  1  0  0  0
 24 25  1  0  0  0
 24 50  1  0  0  0
 25 26  2  0  0  0
 25 51  1  0  0  0
 26 52  1  0  0  0
 27 28  1  0  0  0
 28 53  1  0  0  0
 28 54  1  0  0  0
 28 55  1  0  0  0
 29 30  1  0  0  0
 30 56  1  0  0  0
 30 57  1  0  0  0
 30 58  1  0  0  0
M  CHG  2  12   1  16   1
M  END
>  <Activity>
6.31876

>  <set>
1

>  <Min_dist>
999.9

>  <Avg_dist>
999.9

$$$$
3-16A
  Cerius2 12110214483D 1   1.00000                          
 
 61 64  0  0  0  0  0  0  0  0999 V2000
   -6.1069   -0.1549    0.3300 C   0  0  0  0  0  0
   -5.7408    1.1907    0.3548 C   0  0  0  0  0  0
   -4.4343    1.5607    0.0667 C   0  0  0  0  0  0
   -3.4910    0.6031   -0.2453 C   0  0  0  0  0  0
   -3.8474   -0.7470   -0.2728 C   0  0  0  0  0  0
   -5.1713   -1.1183    0.0194 C   0  0  0  0  0  0
   -2.6908   -1.5815   -0.6266 C   0  0  0  0  0  0
   -2.6903   -2.7901   -0.7294 O   0  0  0  0  0  0
   -1.5035   -0.6743   -0.8399 C   0  0  0  0  0  0
   -2.0278    0.7465   -0.5909 C   0  0  0  0  0  0
   -0.3929   -1.0117    0.1569 C   0  0  0  0  0  0
    0.8483   -0.1753   -0.1602 C   0  0  0  0  0  0
    1.9107   -0.4061    0.9184 C   0  0  0  0  0  0
    3.1775    0.3707    0.5534 C   0  0  0  0  0  0
    3.6849   -0.0949   -0.7428 N   0  3  0  0  0  0
    3.8527   -1.0889   -0.6998 H   0  0  0  0  0  0
    2.7005    0.1886   -1.7940 C   0  0  0  0  0  0
    1.4153   -0.5952   -1.5194 C   0  0  0  0  0  0
    4.9418    0.5994   -1.0530 C   0  0  0  0  0  0
    6.0043    0.1774   -0.0712 C   0  0  0  0  0  0
    7.2152    0.8428   -0.0348 C   0  0  0  0  0  0
    8.1900    0.4556    0.8659 C   0  0  0  0  0  0
    7.9534   -0.5967    1.7303 C   0  0  0  0  0  0
    6.7419   -1.2617    1.6945 C   0  0  0  0  0  0
    5.7658   -0.8718    0.7970 C   0  0  0  0  0  0
    7.4730    1.9901   -0.9773 C   0  0  0  0  0  0
   -6.6627    2.1392    0.6604 O   0  0  0  0  0  0
   -5.9925    3.4000    0.6037 C   0  0  0  0  0  0
   -7.3858   -0.5169    0.6179 O   0  0  0  0  0  0
   -7.4463   -1.9406    0.5101 C   0  0  0  0  0  0
   -4.1547    2.6036    0.0866 H   0  0  0  0  0  0
   -5.4558   -2.1600    0.0005 H   0  0  0  0  0  0
   -1.1359   -0.7675   -1.8617 H   0  0  0  0  0  0
   -1.9131    1.3510   -1.4906 H   0  0  0  0  0  0
   -1.4900    1.2041    0.2394 H   0  0  0  0  0  0
   -0.7325   -0.7888    1.1684 H   0  0  0  0  0  0
   -0.1464   -2.0708    0.0815 H   0  0  0  0  0  0
    0.5793    0.8807   -0.1867 H   0  0  0  0  0  0
    1.5345   -0.0577    1.8803 H   0  0  0  0  0  0
    2.1411   -1.4697    0.9805 H   0  0  0  0  0  0
    2.9460    1.4340    0.4918 H   0  0  0  0  0  0
    3.9359    0.2087    1.3194 H   0  0  0  0  0  0
    2.4791    1.2559   -1.8056 H   0  0  0  0  0  0
    3.1067   -0.1078   -2.7611 H   0  0  0  0  0  0
    1.6355   -1.6627   -1.5078 H   0  0  0  0  0  0
    0.6850   -0.3819   -2.3000 H   0  0  0  0  0  0
    5.2587    0.3429   -2.0639 H   0  0  0  0  0  0
    4.7890    1.6763   -0.9824 H   0  0  0  0  0  0
    9.1364    0.9751    0.8938 H   0  0  0  0  0  0
    8.7152   -0.8996    2.4334 H   0  0  0  0  0  0
    6.5572   -2.0841    2.3697 H   0  0  0  0  0  0
    4.8193   -1.3913    0.7691 H   0  0  0  0  0  0
    7.1542    2.9222   -0.5109 H   0  0  0  0  0  0
    8.5381    2.0425   -1.2030 H   0  0  0  0  0  0
    6.9134    1.8353   -1.8998 H   0  0  0  0  0  0
   -6.6967    4.1968    0.8433 H   0  0  0  0  0  0
   -5.1745    3.4094    1.3240 H   0  0  0  0  0  0
   -5.5952    3.5556   -0.3993 H   0  0  0  0  0  0
   -8.4581   -2.2792    0.7333 H   0  0  0  0  0  0
   -7.1782   -2.2400   -0.5031 H   0  0  0  0  0  0
   -6.7488   -2.3885    1.2179 H   0  0  0  0  0  0
  1  2  2  0  0  0
  1  6  1  0  0  0
  1 29  1  0  0  0
  2  3  1  0  0  0
  2 27  1  0  0  0
  3  4  2  0  0  0
  3 31  1  0  0  0
  4  5  1  0  0  0
  4 10  1  0  0  0
  5  6  2  0  0  0
  5  7  1  0  0  0
  6 32  1  0  0  0
  7  8  2  0  0  0
  7  9  1  0  0  0
  9 10  1  0  0  0
  9 11  1  0  0  0
  9 33  1  0  0  0
 10 34  1  0  0  0
 10 35  1  0  0  0
 11 12  1  0  0  0
 11 36  1  0  0  0
 11 37  1  0  0  0
 12 13  1  0  0  0
 12 18  1  0  0  0
 12 38  1  0  0  0
 13 14  1  0  0  0
 13 39  1  0  0  0
 13 40  1  0  0  0
 14 15  1  0  0  0
 14 41  1  0  0  0
 14 42  1  0  0  0
 15 16  1  0  0  0
 15 17  1  0  0  0
 15 19  1  0  0  0
 17 18  1  0  0  0
 17 43  1  0  0  0
 17 44  1  0  0  0
 18 45  1  0  0  0
 18 46  1  0  0  0
 19 20  1  0  0  0
 19 47  1  0  0  0
 19 48  1  0  0  0
 20 21  2  0  0  0
 20 25  1  0  0  0
 21 22  1  0  0  0
 21 26  1  0  0  0
 22 23  2  0  0  0
 22 49  1  0  0  0
 23 24  1  0  0  0
 23 50  1  0  0  0
 24 25  2  0  0  0
 24 51  1  0  0  0
 25 52  1  0  0  0
 26 53  1  0  0  0
 26 54  1  0  0  0
 26 55  1  0  0  0
 27 28  1  0  0  0
 28 56  1  0  0  0
 28 57  1  0  0  0
 28 58  1  0  0  0
 29 30  1  0  0  0
 30 59  1  0  0  0
 30 60  1  0  0  0
 30 61  1  0  0  0
M  CHG  1  15   1
M  END
>  <Activity>
8

>  <set>
1

>  <Min_dist>
999.9

>  <Avg_dist>
999.9

$$$$
3-16B
  Cerius2 12110214483D 1   1.00000                          
 
 61 64  0  0  0  0  0  0  0  0999 V2000
   -5.9653   -0.1834   -0.4314 C   0  0  0  0  0  0
   -5.6610    1.1217   -0.0446 C   0  0  0  0  0  0
   -4.3387    1.5014    0.1394 C   0  0  0  0  0  0
   -3.3184    0.5935   -0.0581 C   0  0  0  0  0  0
   -3.6124   -0.7156   -0.4454 C   0  0  0  0  0  0
   -4.9526   -1.0970   -0.6310 C   0  0  0  0  0  0
   -2.3796   -1.5011   -0.5960 C   0  0  0  0  0  0
   -2.3145   -2.6675   -0.9221 O   0  0  0  0  0  0
   -1.2084   -0.6049   -0.2746 C   0  0  0  0  0  0
   -1.8230    0.7574    0.0750 C   0  0  0  0  0  0
   -0.4304   -1.1579    0.9211 C   0  0  0  0  0  0
    0.8269   -0.3153    1.1453 C   0  0  0  0  0  0
    1.5299   -0.7751    2.4257 C   0  0  0  0  0  0
    2.8272    0.0171    2.6014 C   0  0  0  0  0  0
    3.7061   -0.2143    1.4487 N   0  3  0  0  0  0
    3.8797   -1.2036    1.3527 H   0  0  0  0  0  0
    3.0679    0.2898    0.2267 C   0  0  0  0  0  0
    1.7799   -0.4920   -0.0403 C   0  0  0  0  0  0
    4.9799    0.4870    1.6574 C   0  0  0  0  0  0
    5.8833    0.2502    0.4747 C   0  0  0  0  0  0
    5.8502    1.1138   -0.6039 C   0  0  0  0  0  0
    6.6790    0.8967   -1.6890 C   0  0  0  0  0  0
    7.5409   -0.1838   -1.6950 C   0  0  0  0  0  0
    7.5746   -1.0472   -0.6157 C   0  0  0  0  0  0
    6.7492   -0.8276    0.4710 C   0  0  0  0  0  0
    6.6423    1.8377   -2.8655 C   0  0  0  0  0  0
   -6.6587    2.0212    0.1514 O   0  0  0  0  0  0
   -6.0377    3.2497    0.5349 C   0  0  0  0  0  0
   -7.2615   -0.5561   -0.6061 O   0  0  0  0  0  0
   -7.2470   -1.9309   -0.9957 C   0  0  0  0  0  0
   -4.1071    2.5130    0.4386 H   0  0  0  0  0  0
   -5.1892   -2.1074   -0.9304 H   0  0  0  0  0  0
   -0.5544   -0.5128   -1.1417 H   0  0  0  0  0  0
   -1.4664    1.5183   -0.6192 H   0  0  0  0  0  0
   -1.5660    1.0328    1.0978 H   0  0  0  0  0  0
   -1.0573   -1.1192    1.8119 H   0  0  0  0  0  0
   -0.1448   -2.1909    0.7224 H   0  0  0  0  0  0
    0.5500    0.7349    1.2385 H   0  0  0  0  0  0
    0.8781   -0.6005    3.2816 H   0  0  0  0  0  0
    1.7596   -1.8382    2.3531 H   0  0  0  0  0  0
    2.5964    1.0799    2.6741 H   0  0  0  0  0  0
    3.3303   -0.3076    3.5122 H   0  0  0  0  0  0
    2.8320    1.3467    0.3500 H   0  0  0  0  0  0
    3.7486    0.1663   -0.6156 H   0  0  0  0  0  0
    2.0148   -1.5492   -0.1641 H   0  0  0  0  0  0
    1.3067   -0.1150   -0.9470 H   0  0  0  0  0  0
    4.7932    1.5555    1.7639 H   0  0  0  0  0  0
    5.4584    0.1099    2.5613 H   0  0  0  0  0  0
    5.1768    1.9581   -0.5993 H   0  0  0  0  0  0
    8.1878   -0.3539   -2.5429 H   0  0  0  0  0  0
    8.2478   -1.8917   -0.6205 H   0  0  0  0  0  0
    6.7755   -1.5020    1.3141 H   0  0  0  0  0  0
    7.3605    2.6426   -2.7095 H   0  0  0  0  0  0
    6.8984    1.2933   -3.7744 H   0  0  0  0  0  0
    5.6413    2.2579   -2.9635 H   0  0  0  0  0  0
   -6.8035    4.0066    0.7042 H   0  0  0  0  0  0
   -5.4679    3.0981    1.4517 H   0  0  0  0  0  0
   -5.3680    3.5816   -0.2585 H   0  0  0  0  0  0
   -8.2696   -2.2761   -1.1480 H   0  0  0  0  0  0
   -6.6848   -2.0398   -1.9231 H   0  0  0  0  0  0
   -6.7757   -2.5254   -0.2130 H   0  0  0  0  0  0
  1  2  2  0  0  0
  1  6  1  0  0  0
  1 29  1  0  0  0
  2  3  1  0  0  0
  2 27  1  0  0  0
  3  4  2  0  0  0
  3 31  1  0  0  0
  4  5  1  0  0  0
  4 10  1  0  0  0
  5  6  2  0  0  0
  5  7  1  0  0  0
  6 32  1  0  0  0
  7  8  2  0  0  0
  7  9  1  0  0  0
  9 10  1  0  0  0
  9 11  1  0  0  0
  9 33  1  0  0  0
 10 34  1  0  0  0
 10 35  1  0  0  0
 11 12  1  0  0  0
 11 36  1  0  0  0
 11 37  1  0  0  0
 12 13  1  0  0  0
 12 18  1  0  0  0
 12 38  1  0  0  0
 13 14  1  0  0  0
 13 39  1  0  0  0
 13 40  1  0  0  0
 14 15  1  0  0  0
 14 41  1  0  0  0
 14 42  1  0  0  0
 15 16  1  0  0  0
 15 17  1  0  0  0
 15 19  1  0  0  0
 17 18  1  0  0  0
 17 43  1  0  0  0
 17 44  1  0  0  0
 18 45  1  0  0  0
 18 46  1  0  0  0
 19 20  1  0  0  0
 19 47  1  0  0  0
 19 48  1  0  0  0
 20 21  2  0  0  0
 20 25  1  0  0  0
 21 22  1  0  0  0
 21 49  1  0  0  0
 22 23  2  0  0  0
 22 26  1  0  0  0
 23 24  1  0  0  0
 23 50  1  0  0  0
 24 25  2  0  0  0
 24 51  1  0  0  0
 25 52  1  0  0  0
 26 53  1  0  0  0
 26 54  1  0  0  0
 26 55  1  0  0  0
 27 28  1  0  0  0
 28 56  1  0  0  0
 28 57  1  0  0  0
 28 58  1  0  0  0
 29 30  1  0  0  0
 30 59  1  0  0  0
 30 60  1  0  0  0
 30 61  1  0  0  0
M  CHG  1  15   1
M  END
>  <Activity>
8.69897

>  <set>
1

>  <Min_dist>
999.9

>  <Avg_dist>
999.9

$$$$
3-16C
  Cerius2 12110214483D 1   1.00000                          
 
 61 64  0  0  0  0  0  0  0  0999 V2000
   -6.0238   -0.4814   -0.2435 C   0  0  0  0  0  0
   -5.7540    0.8063   -0.7067 C   0  0  0  0  0  0
   -4.4427    1.2531   -0.7928 C   0  0  0  0  0  0
   -3.3994    0.4294   -0.4221 C   0  0  0  0  0  0
   -3.6589   -0.8616    0.0429 C   0  0  0  0  0  0
   -4.9880   -1.3111    0.1290 C   0  0  0  0  0  0
   -2.4065   -1.5537    0.3774 C   0  0  0  0  0  0
   -2.3109   -2.6849    0.8046 O   0  0  0  0  0  0
   -1.2598   -0.6133    0.0972 C   0  0  0  0  0  0
   -1.9095    0.6763   -0.4229 C   0  0  0  0  0  0
   -0.4788   -0.3322    1.3825 C   0  0  0  0  0  0
    0.7561    0.5097    1.0551 C   0  0  0  0  0  0
    1.4592    0.9142    2.3540 C   0  0  0  0  0  0
    2.7358    1.6878    2.0171 C   0  0  0  0  0  0
    3.6295    0.8402    1.2186 N   0  3  0  0  0  0
    3.8274   -0.0094    1.7256 H   0  0  0  0  0  0
    2.9897    0.5076   -0.0599 C   0  0  0  0  0  0
    1.7230   -0.3114    0.1971 C   0  0  0  0  0  0
    4.8844    1.5595    0.9623 C   0  0  0  0  0  0
    5.8031    0.6905    0.1426 C   0  0  0  0  0  0
    5.7585    0.7470   -1.2379 C   0  0  0  0  0  0
    6.6011   -0.0502   -1.9899 C   0  0  0  0  0  0
    7.4886   -0.9035   -1.3613 C   0  0  0  0  0  0
    7.5339   -0.9593    0.0192 C   0  0  0  0  0  0
    6.6943   -0.1590    0.7711 C   0  0  0  0  0  0
    8.4065   -1.7732   -2.1811 C   0  0  0  0  0  0
   -6.7744    1.6229   -1.0738 O   0  0  0  0  0  0
   -6.1861    2.8546   -1.4965 C   0  0  0  0  0  0
   -7.3093   -0.9164   -0.1541 O   0  0  0  0  0  0
   -7.2588   -2.2542    0.3456 C   0  0  0  0  0  0
   -4.2377    2.2507   -1.1523 H   0  0  0  0  0  0
   -5.1980   -2.3080    0.4875 H   0  0  0  0  0  0
   -0.6009   -1.0365   -0.6609 H   0  0  0  0  0  0
   -1.5654    0.8870   -1.4354 H   0  0  0  0  0  0
   -1.6677    1.5098    0.2365 H   0  0  0  0  0  0
   -1.1139    0.2112    2.0821 H   0  0  0  0  0  0
   -0.1670   -1.2750    1.8318 H   0  0  0  0  0  0
    0.4535    1.4042    0.5106 H   0  0  0  0  0  0
    0.7963    1.5458    2.9453 H   0  0  0  0  0  0
    1.7148    0.0204    2.9231 H   0  0  0  0  0  0
    2.4791    2.5814    1.4482 H   0  0  0  0  0  0
    3.2388    1.9774    2.9397 H   0  0  0  0  0  0
    2.7276    1.4264   -0.5844 H   0  0  0  0  0  0
    3.6802   -0.0741   -0.6706 H   0  0  0  0  0  0
    1.9840   -1.2307    0.7215 H   0  0  0  0  0  0
    1.2485   -0.5559   -0.7532 H   0  0  0  0  0  0
    4.6714    2.4789    0.4169 H   0  0  0  0  0  0
    5.3642    1.8023    1.9105 H   0  0  0  0  0  0
    5.0650    1.4136   -1.7290 H   0  0  0  0  0  0
    6.5657   -0.0066   -3.0684 H   0  0  0  0  0  0
    8.2270   -1.6262    0.5102 H   0  0  0  0  0  0
    6.7296   -0.2025    1.8497 H   0  0  0  0  0  0
    9.3377   -1.2398   -2.3723 H   0  0  0  0  0  0
    8.6198   -2.6923   -1.6352 H   0  0  0  0  0  0
    7.9261   -2.0167   -3.1287 H   0  0  0  0  0  0
   -6.9712    3.5461   -1.8025 H   0  0  0  0  0  0
   -5.6205    3.2889   -0.6721 H   0  0  0  0  0  0
   -5.5179    2.6685   -2.3373 H   0  0  0  0  0  0
   -8.2715   -2.6472    0.4347 H   0  0  0  0  0  0
   -6.6864   -2.8774   -0.3415 H   0  0  0  0  0  0
   -6.7799   -2.2585    1.3248 H   0  0  0  0  0  0
  1  2  2  0  0  0
  1  6  1  0  0  0
  1 29  1  0  0  0
  2  3  1  0  0  0
  2 27  1  0  0  0
  3  4  2  0  0  0
  3 31  1  0  0  0
  4  5  1  0  0  0
  4 10  1  0  0  0
  5  6  2  0  0  0
  5  7  1  0  0  0
  6 32  1  0  0  0
  7  8  2  0  0  0
  7  9  1  0  0  0
  9 10  1  0  0  0
  9 11  1  0  0  0
  9 33  1  0  0  0
 10 34  1  0  0  0
 10 35  1  0  0  0
 11 12  1  0  0  0
 11 36  1  0  0  0
 11 37  1  0  0  0
 12 13  1  0  0  0
 12 18  1  0  0  0
 12 38  1  0  0  0
 13 14  1  0  0  0
 13 39  1  0  0  0
 13 40  1  0  0  0
 14 15  1  0  0  0
 14 41  1  0  0  0
 14 42  1  0  0  0
 15 16  1  0  0  0
 15 17  1  0  0  0
 15 19  1  0  0  0
 17 18  1  0  0  0
 17 43  1  0  0  0
 17 44  1  0  0  0
 18 45  1  0  0  0
 18 46  1  0  0  0
 19 20  1  0  0  0
 19 47  1  0  0  0
 19 48  1  0  0  0
 20 21  2  0  0  0
 20 25  1  0  0  0
 21 22  1  0  0  0
 21 49  1  0  0  0
 22 23  2  0  0  0
 22 50  1  0  0  0
 23 24  1  0  0  0
 23 26  1  0  0  0
 24 25  2  0  0  0
 24 51  1  0  0  0
 25 52  1  0  0  0
 26 53  1  0  0  0
 26 54  1  0  0  0
 26 55  1  0  0  0
 27 28  1  0  0  0
 28 56  1  0  0  0
 28 57  1  0  0  0
 28 58  1  0  0  0
 29 30  1  0  0  0
 30 59  1  0  0  0
 30 60  1  0  0  0
 30 61  1  0  0  0
M  CHG  1  15   1
M  END
>  <Activity>
7.39794

>  <set>
1

>  <Min_dist>
999.9

>  <Avg_dist>
999.9

$$$$
3-16D
  Cerius2 12110214483D 1   1.00000                          
 
 60 63  0  0  0  0  0  0  0  0999 V2000
   -6.6843   -0.0677    0.2553 C   0  0  0  0  0  0
   -6.2576    1.2347    0.5148 C   0  0  0  0  0  0
   -4.9302    1.5847    0.3099 C   0  0  0  0  0  0
   -4.0255    0.6499   -0.1507 C   0  0  0  0  0  0
   -4.4427   -0.6567   -0.4135 C   0  0  0  0  0  0
   -5.7877   -1.0080   -0.2049 C   0  0  0  0  0  0
   -3.3186   -1.4736   -0.8915 C   0  0  0  0  0  0
   -3.3712   -2.6454   -1.2001 O   0  0  0  0  0  0
   -2.0871   -0.6019   -0.9320 C   0  0  0  0  0  0
   -2.5508    0.7793   -0.4493 C   0  0  0  0  0  0
   -1.0131   -1.1578    0.0051 C   0  0  0  0  0  0
    0.2698   -0.3379   -0.1460 C   0  0  0  0  0  0
    1.2684   -0.7442    0.9416 C   0  0  0  0  0  0
    2.5771    0.0217    0.7367 C   0  0  0  0  0  0
    3.1331   -0.2970   -0.5839 N   0  3  0  0  0  0
    3.2652   -1.2944   -0.6603 H   0  0  0  0  0  0
    2.2127    0.1550   -1.6341 C   0  0  0  0  0  0
    0.8899   -0.6058   -1.5204 C   0  0  0  0  0  0
    4.4264    0.3806   -0.7455 C   0  0  0  0  0  0
    5.4315   -0.2229    0.2014 C   0  0  0  0  0  0
    6.7142    0.2879    0.2654 C   0  0  0  0  0  0
    7.6362   -0.2658    1.1341 C   0  0  0  0  0  0
    7.2752   -1.3298    1.9389 C   0  0  0  0  0  0
    5.9919   -1.8403    1.8756 C   0  0  0  0  0  0
    5.0688   -1.2839    1.0103 C   0  0  0  0  0  0
    7.1008    1.4275   -0.5965 N   0  3  0  0  0  0
    8.2311    1.8777   -0.5401 O   0  0  0  0  0  0
    6.2886    1.9150   -1.3621 O   0  5  0  0  0  0
   -7.1412    2.1605    0.9676 O   0  0  0  0  0  0
   -6.4132    3.3785    1.1360 C   0  0  0  0  0  0
   -7.9839   -0.4112    0.4617 O   0  0  0  0  0  0
   -8.1072   -1.7909    0.1106 C   0  0  0  0  0  0
   -4.6037    2.5942    0.5116 H   0  0  0  0  0  0
   -6.1190   -2.0162   -0.4056 H   0  0  0  0  0  0
   -1.7038   -0.5369   -1.9504 H   0  0  0  0  0  0
   -2.3907    1.5223   -1.2306 H   0  0  0  0  0  0
   -2.0093    1.0617    0.4535 H   0  0  0  0  0  0
   -1.3635   -1.0977    1.0355 H   0  0  0  0  0  0
   -0.8115   -2.1982   -0.2499 H   0  0  0  0  0  0
    0.0378    0.7228   -0.0499 H   0  0  0  0  0  0
    0.8562   -0.5048    1.9219 H   0  0  0  0  0  0
    1.4597   -1.8154    0.8782 H   0  0  0  0  0  0
    2.3847    1.0927    0.8005 H   0  0  0  0  0  0
    3.2903   -0.2651    1.5095 H   0  0  0  0  0  0
    2.0280    1.2232   -1.5197 H   0  0  0  0  0  0
    2.6567   -0.0334   -2.6115 H   0  0  0  0  0  0
    1.0734   -1.6741   -1.6349 H   0  0  0  0  0  0
    0.2072   -0.2674   -2.2999 H   0  0  0  0  0  0
    4.7748    0.2587   -1.7711 H   0  0  0  0  0  0
    4.3108    1.4417   -0.5247 H   0  0  0  0  0  0
    8.6387    0.1330    1.1836 H   0  0  0  0  0  0
    7.9957   -1.7628    2.6170 H   0  0  0  0  0  0
    5.7099   -2.6720    2.5042 H   0  0  0  0  0  0
    4.0664   -1.6827    0.9608 H   0  0  0  0  0  0
   -7.0848    4.1559    1.5003 H   0  0  0  0  0  0
   -5.6100    3.2251    1.8568 H   0  0  0  0  0  0
   -5.9893    3.6837    0.1793 H   0  0  0  0  0  0
   -9.1376   -2.1133    0.2605 H   0  0  0  0  0  0
   -7.8329   -1.9255   -0.9357 H   0  0  0  0  0  0
   -7.4451   -2.3863    0.7393 H   0  0  0  0  0  0
  1  2  2  0  0  0
  1  6  1  0  0  0
  1 31  1  0  0  0
  2  3  1  0  0  0
  2 29  1  0  0  0
  3  4  2  0  0  0
  3 33  1  0  0  0
  4  5  1  0  0  0
  4 10  1  0  0  0
  5  6  2  0  0  0
  5  7  1  0  0  0
  6 34  1  0  0  0
  7  8  2  0  0  0
  7  9  1  0  0  0
  9 10  1  0  0  0
  9 11  1  0  0  0
  9 35  1  0  0  0
 10 36  1  0  0  0
 10 37  1  0  0  0
 11 12  1  0  0  0
 11 38  1  0  0  0
 11 39  1  0  0  0
 12 13  1  0  0  0
 12 18  1  0  0  0
 12 40  1  0  0  0
 13 14  1  0  0  0
 13 41  1  0  0  0
 13 42  1  0  0  0
 14 15  1  0  0  0
 14 43  1  0  0  0
 14 44  1  0  0  0
 15 16  1  0  0  0
 15 17  1  0  0  0
 15 19  1  0  0  0
 17 18  1  0  0  0
 17 45  1  0  0  0
 17 46  1  0  0  0
 18 47  1  0  0  0
 18 48  1  0  0  0
 19 20  1  0  0  0
 19 49  1  0  0  0
 19 50  1  0  0  0
 20 21  2  0  0  0
 20 25  1  0  0  0
 21 22  1  0  0  0
 21 26  1  0  0  0
 22 23  2  0  0  0
 22 51  1  0  0  0
 23 24  1  0  0  0
 23 52  1  0  0  0
 24 25  2  0  0  0
 24 53  1  0  0  0
 25 54  1  0  0  0
 26 27  2  0  0  0
 26 28  1  0  0  0
 29 30  1  0  0  0
 30 55  1  0  0  0
 30 56  1  0  0  0
 30 57  1  0  0  0
 31 32  1  0  0  0
 32 58  1  0  0  0
 32 59  1  0  0  0
 32 60  1  0  0  0
M  CHG  3  15   1  26   1  28  -1
M  END
>  <Activity>
6.79588

>  <set>
1

>  <Min_dist>
999.9

>  <Avg_dist>
999.9

$$$$
3-16F
  Cerius2 12110214483D 1   1.00000                          
 
 60 63  0  0  0  0  0  0  0  0999 V2000
   -6.6256   -0.7564   -0.0458 C   0  0  0  0  0  0
   -6.3916    0.1540   -1.0764 C   0  0  0  0  0  0
   -5.0996    0.5867   -1.3411 C   0  0  0  0  0  0
   -4.0403    0.1211   -0.5891 C   0  0  0  0  0  0
   -4.2640   -0.7906    0.4449 C   0  0  0  0  0  0
   -5.5736   -1.2269    0.7105 C   0  0  0  0  0  0
   -3.0002   -1.1457    1.1053 C   0  0  0  0  0  0
   -2.8750   -1.9135    2.0360 O   0  0  0  0  0  0
   -1.8850   -0.3897    0.4251 C   0  0  0  0  0  0
   -2.5654    0.4337   -0.6770 C   0  0  0  0  0  0
   -1.1863    0.5358    1.4232 C   0  0  0  0  0  0
    0.0239    1.1888    0.7524 C   0  0  0  0  0  0
    0.6385    2.2231    1.6999 C   0  0  0  0  0  0
    1.8938    2.8148    1.0553 C   0  0  0  0  0  0
    2.8663    1.7459    0.7981 N   0  3  0  0  0  0
    3.0765    1.2687    1.6619 H   0  0  0  0  0  0
    2.3106    0.7882   -0.1655 C   0  0  0  0  0  0
    1.0713    0.1185    0.4321 C   0  0  0  0  0  0
    4.0985    2.3284    0.2500 C   0  0  0  0  0  0
    5.0980    1.2321   -0.0147 C   0  0  0  0  0  0
    5.1233    0.6020   -1.2448 C   0  0  0  0  0  0
    6.0401   -0.4037   -1.4876 C   0  0  0  0  0  0
    6.9319   -0.7790   -0.5003 C   0  0  0  0  0  0
    6.9072   -0.1483    0.7296 C   0  0  0  0  0  0
    5.9933    0.8603    0.9708 C   0  0  0  0  0  0
    7.9130   -1.8566   -0.7599 N   0  3  0  0  0  0
    8.6988   -2.1873    0.1100 O   0  0  0  0  0  0
    7.9345   -2.4125   -1.8434 O   0  5  0  0  0  0
   -7.4280    0.6166   -1.8211 O   0  0  0  0  0  0
   -6.8758    1.5192   -2.7816 C   0  0  0  0  0  0
   -7.8925   -1.1756    0.2165 O   0  0  0  0  0  0
   -7.8066   -2.0904    1.3108 C   0  0  0  0  0  0
   -4.9224    1.2914   -2.1401 H   0  0  0  0  0  0
   -5.7558   -1.9318    1.5082 H   0  0  0  0  0  0
   -1.1684   -1.0855   -0.0113 H   0  0  0  0  0  0
   -2.1787    0.1436   -1.6540 H   0  0  0  0  0  0
   -2.3973    1.4973   -0.5078 H   0  0  0  0  0  0
   -1.8817    1.3089    1.7501 H   0  0  0  0  0  0
   -0.8553   -0.0432    2.2854 H   0  0  0  0  0  0
   -0.2907    1.6797   -0.1686 H   0  0  0  0  0  0
   -0.0831    3.0180    1.8884 H   0  0  0  0  0  0
    0.9048    1.7417    2.6409 H   0  0  0  0  0  0
    1.6263    3.2961    0.1146 H   0  0  0  0  0  0
    2.3338    3.5517    1.7272 H   0  0  0  0  0  0
    2.0342    1.3127   -1.0802 H   0  0  0  0  0  0
    3.0583    0.0289   -0.3949 H   0  0  0  0  0  0
    1.3466   -0.4065    1.3467 H   0  0  0  0  0  0
    0.6591   -0.5909   -0.2856 H   0  0  0  0  0  0
    3.8721    2.8464   -0.6820 H   0  0  0  0  0  0
    4.5161    3.0356    0.9666 H   0  0  0  0  0  0
    4.4266    0.8952   -2.0162 H   0  0  0  0  0  0
    6.0594   -0.8964   -2.4484 H   0  0  0  0  0  0
    7.6037   -0.4418    1.5010 H   0  0  0  0  0  0
    5.9739    1.3531    1.9317 H   0  0  0  0  0  0
   -7.6748    1.9186   -3.4062 H   0  0  0  0  0  0
   -6.3749    2.3379   -2.2649 H   0  0  0  0  0  0
   -6.1565    0.9896   -3.4063 H   0  0  0  0  0  0
   -8.8034   -2.4553    1.5585 H   0  0  0  0  0  0
   -7.1707   -2.9310    1.0327 H   0  0  0  0  0  0
   -7.3801   -1.5829    2.1761 H   0  0  0  0  0  0
  1  2  2  0  0  0
  1  6  1  0  0  0
  1 31  1  0  0  0
  2  3  1  0  0  0
  2 29  1  0  0  0
  3  4  2  0  0  0
  3 33  1  0  0  0
  4  5  1  0  0  0
  4 10  1  0  0  0
  5  6  2  0  0  0
  5  7  1  0  0  0
  6 34  1  0  0  0
  7  8  2  0  0  0
  7  9  1  0  0  0
  9 10  1  0  0  0
  9 11  1  0  0  0
  9 35  1  0  0  0
 10 36  1  0  0  0
 10 37  1  0  0  0
 11 12  1  0  0  0
 11 38  1  0  0  0
 11 39  1  0  0  0
 12 13  1  0  0  0
 12 18  1  0  0  0
 12 40  1  0  0  0
 13 14  1  0  0  0
 13 41  1  0  0  0
 13 42  1  0  0  0
 14 15  1  0  0  0
 14 43  1  0  0  0
 14 44  1  0  0  0
 15 16  1  0  0  0
 15 17  1  0  0  0
 15 19  1  0  0  0
 17 18  1  0  0  0
 17 45  1  0  0  0
 17 46  1  0  0  0
 18 47  1  0  0  0
 18 48  1  0  0  0
 19 20  1  0  0  0
 19 49  1  0  0  0
 19 50  1  0  0  0
 20 21  2  0  0  0
 20 25  1  0  0  0
 21 22  1  0  0  0
 21 51  1  0  0  0
 22 23  2  0  0  0
 22 52  1  0  0  0
 23 24  1  0  0  0
 23 26  1  0  0  0
 24 25  2  0  0  0
 24 53  1  0  0  0
 25 54  1  0  0  0
 26 27  2  0  0  0
 26 28  1  0  0  0
 29 30  1  0  0  0
 30 55  1  0  0  0
 30 56  1  0  0  0
 30 57  1  0  0  0
 31 32  1  0  0  0
 32 58  1  0  0  0
 32 59  1  0  0  0
 32 60  1  0  0  0
M  CHG  3  15   1  26   1  28  -1
M  END
>  <Activity>
7

>  <set>
1

>  <Min_dist>
999.9

>  <Avg_dist>
999.9

$$$$
3-16G
  Cerius2 12110214483D 1   1.00000                          
 
 64 67  0  0  0  0  0  0  0  0999 V2000
   -5.9457   -0.3429   -0.2008 C   0  0  0  0  0  0
   -5.6625    1.0130   -0.3644 C   0  0  0  0  0  0
   -4.3449    1.4455   -0.4225 C   0  0  0  0  0  0
   -3.3085    0.5402   -0.3192 C   0  0  0  0  0  0
   -3.5814   -0.8196   -0.1552 C   0  0  0  0  0  0
   -4.9169   -1.2544   -0.0967 C   0  0  0  0  0  0
   -2.3343   -1.5920   -0.0688 C   0  0  0  0  0  0
   -2.2500   -2.7935    0.0745 O   0  0  0  0  0  0
   -1.1764   -0.6313   -0.1893 C   0  0  0  0  0  0
   -1.8140    0.7553   -0.3521 C   0  0  0  0  0  0
   -0.3179   -0.6746    1.0764 C   0  0  0  0  0  0
    0.9223    0.1999    0.8815 C   0  0  0  0  0  0
    1.7076    0.2746    2.1941 C   0  0  0  0  0  0
    2.9868    1.0843    1.9715 C   0  0  0  0  0  0
    3.8090    0.4343    0.9439 N   0  3  0  0  0  0
    4.0085   -0.5142    1.2245 H   0  0  0  0  0  0
    3.0903    0.4235   -0.3359 C   0  0  0  0  0  0
    1.8151   -0.4116   -0.2020 C   0  0  0  0  0  0
    5.0695    1.1726    0.7881 C   0  0  0  0  0  0
    5.9277    0.4961   -0.2828 C   0  0  0  0  0  0
    7.2404    1.2651   -0.4451 C   0  0  0  0  0  0
    8.0987    0.5886   -1.5160 C   0  0  0  0  0  0
    8.3996   -0.8509   -1.0941 C   0  0  0  0  0  0
    7.0869   -1.6199   -0.9318 C   0  0  0  0  0  0
    6.2287   -0.9434    0.1391 C   0  0  0  0  0  0
   -6.6761    1.9101   -0.4672 O   0  0  0  0  0  0
   -6.0745    3.1968   -0.6239 C   0  0  0  0  0  0
   -7.2370   -0.7651   -0.1384 O   0  0  0  0  0  0
   -7.2001   -2.1837    0.0295 C   0  0  0  0  0  0
   -4.1296    2.4961   -0.5495 H   0  0  0  0  0  0
   -5.1372   -2.3041    0.0299 H   0  0  0  0  0  0
   -0.5733   -0.8747   -1.0641 H   0  0  0  0  0  0
   -1.5196    1.1932   -1.3058 H   0  0  0  0  0  0
   -1.5111    1.4055    0.4686 H   0  0  0  0  0  0
   -0.8968   -0.3011    1.9210 H   0  0  0  0  0  0
   -0.0109   -1.7020    1.2722 H   0  0  0  0  0  0
    0.6178    1.2026    0.5815 H   0  0  0  0  0  0
    1.0977    0.7598    2.9561 H   0  0  0  0  0  0
    1.9666   -0.7325    2.5211 H   0  0  0  0  0  0
    2.7267    2.0911    1.6448 H   0  0  0  0  0  0
    3.5483    1.1396    2.9041 H   0  0  0  0  0  0
    2.8280    1.4444   -0.6134 H   0  0  0  0  0  0
    3.7282   -0.0091   -1.1067 H   0  0  0  0  0  0
    2.0763   -1.4329    0.0752 H   0  0  0  0  0  0
    1.2820   -0.4169   -1.1527 H   0  0  0  0  0  0
    4.8550    2.1981    0.4875 H   0  0  0  0  0  0
    5.6077    1.1767    1.7359 H   0  0  0  0  0  0
    5.3895    0.4920   -1.2306 H   0  0  0  0  0  0
    7.0260    2.2906   -0.7457 H   0  0  0  0  0  0
    7.7786    1.2692    0.5027 H   0  0  0  0  0  0
    7.5604    0.5845   -2.4638 H   0  0  0  0  0  0
    9.0339    1.1364   -1.6316 H   0  0  0  0  0  0
    9.0110   -1.3328   -1.8570 H   0  0  0  0  0  0
    8.9379   -0.8468   -0.1463 H   0  0  0  0  0  0
    6.5487   -1.6240   -1.8797 H   0  0  0  0  0  0
    7.3013   -2.6454   -0.6313 H   0  0  0  0  0  0
    6.7669   -0.9393    1.0869 H   0  0  0  0  0  0
    5.2934   -1.4912    0.2547 H   0  0  0  0  0  0
   -6.8537    3.9541   -0.7111 H   0  0  0  0  0  0
   -5.4516    3.4147    0.2436 H   0  0  0  0  0  0
   -5.4594    3.2032   -1.5238 H   0  0  0  0  0  0
   -8.2180   -2.5696    0.0851 H   0  0  0  0  0  0
   -6.6855   -2.6366   -0.8179 H   0  0  0  0  0  0
   -6.6686   -2.4269    0.9496 H   0  0  0  0  0  0
  1  2  2  0  0  0
  1  6  1  0  0  0
  1 28  1  0  0  0
  2  3  1  0  0  0
  2 26  1  0  0  0
  3  4  2  0  0  0
  3 30  1  0  0  0
  4  5  1  0  0  0
  4 10  1  0  0  0
  5  6  2  0  0  0
  5  7  1  0  0  0
  6 31  1  0  0  0
  7  8  2  0  0  0
  7  9  1  0  0  0
  9 10  1  0  0  0
  9 11  1  0  0  0
  9 32  1  0  0  0
 10 33  1  0  0  0
 10 34  1  0  0  0
 11 12  1  0  0  0
 11 35  1  0  0  0
 11 36  1  0  0  0
 12 13  1  0  0  0
 12 18  1  0  0  0
 12 37  1  0  0  0
 13 14  1  0  0  0
 13 38  1  0  0  0
 13 39  1  0  0  0
 14 15  1  0  0  0
 14 40  1  0  0  0
 14 41  1  0  0  0
 15 16  1  0  0  0
 15 17  1  0  0  0
 15 19  1  0  0  0
 17 18  1  0  0  0
 17 42  1  0  0  0
 17 43  1  0  0  0
 18 44  1  0  0  0
 18 45  1  0  0  0
 19 20  1  0  0  0
 19 46  1  0  0  0
 19 47  1  0  0  0
 20 21  1  0  0  0
 20 25  1  0  0  0
 20 48  1  0  0  0
 21 22  1  0  0  0
 21 49  1  0  0  0
 21 50  1  0  0  0
 22 23  1  0  0  0
 22 51  1  0  0  0
 22 52  1  0  0  0
 23 24  1  0  0  0
 23 53  1  0  0  0
 23 54  1  0  0  0
 24 25  1  0  0  0
 24 55  1  0  0  0
 24 56  1  0  0  0
 25 57  1  0  0  0
 25 58  1  0  0  0
 26 27  1  0  0  0
 27 59  1  0  0  0
 27 60  1  0  0  0
 27 61  1  0  0  0
 28 29  1  0  0  0
 29 62  1  0  0  0
 29 63  1  0  0  0
 29 64  1  0  0  0
M  CHG  1  15   1
M  END
>  <Activity>
8.05061

>  <set>
1

>  <Min_dist>
999.9

>  <Avg_dist>
999.9

$$$$
3-9
  Cerius2 12110214483D 1   1.00000                          
 
 50 53  0  0  0  0  0  0  0  0999 V2000
   -6.9536   -0.4163   -0.2759 C   0  0  0  0  0  0
   -6.6176    0.2401   -1.4469 C   0  0  0  0  0  0
   -5.2901    0.4739   -1.7571 C   0  0  0  0  0  0
   -4.2894    0.0552   -0.9014 C   0  0  0  0  0  0
   -4.6178   -0.6068    0.2817 C   0  0  0  0  0  0
   -5.9675   -0.8398    0.5874 C   0  0  0  0  0  0
   -3.4023   -0.9588    1.0342 C   0  0  0  0  0  0
   -3.3669   -1.5387    2.0985 O   0  0  0  0  0  0
   -2.2077   -0.4724    0.2499 C   0  0  0  0  0  0
   -2.7891    0.1865   -1.0085 C   0  0  0  0  0  0
   -1.4178    0.5514    1.0676 C   0  0  0  0  0  0
   -0.1403    0.9289    0.3151 C   0  0  0  0  0  0
    0.5781    2.0578    1.0599 C   0  0  0  0  0  0
    1.8938    2.3760    0.3462 C   0  0  0  0  0  0
    2.7456    1.1808    0.3269 N   0  3  0  0  0  0
    2.8981    0.8624    1.2721 H   0  0  0  0  0  0
    2.0941    0.1172   -0.4470 C   0  0  0  0  0  0
    0.7862   -0.2879    0.2362 C   0  0  0  0  0  0
    4.0367    1.5113   -0.2911 C   0  0  0  0  0  0
    4.9124    0.2851   -0.3116 C   0  0  0  0  0  0
    4.8755   -0.5726   -1.3951 C   0  0  0  0  0  0
    5.6788   -1.6974   -1.4138 C   0  0  0  0  0  0
    6.5193   -1.9643   -0.3493 C   0  0  0  0  0  0
    6.5569   -1.1062    0.7338 C   0  0  0  0  0  0
    5.7568    0.0209    0.7506 C   0  0  0  0  0  0
   -7.9917   -0.5929   -0.0362 H   0  0  0  0  0  0
   -7.3943    0.5704   -2.1208 H   0  0  0  0  0  0
   -5.0345    0.9861   -2.6730 H   0  0  0  0  0  0
   -6.2333   -1.3515    1.5006 H   0  0  0  0  0  0
   -1.5688   -1.3119   -0.0243 H   0  0  0  0  0  0
   -2.4309   -0.3281   -1.9001 H   0  0  0  0  0  0
   -2.5070    1.2388   -1.0444 H   0  0  0  0  0  0
   -2.0267    1.4425    1.2199 H   0  0  0  0  0  0
   -1.1562    0.1206    2.0341 H   0  0  0  0  0  0
   -0.3948    1.2606   -0.6916 H   0  0  0  0  0  0
   -0.0536    2.9460    1.0716 H   0  0  0  0  0  0
    0.7856    1.7445    2.0831 H   0  0  0  0  0  0
    1.6851    2.6894   -0.6767 H   0  0  0  0  0  0
    2.4077    3.1794    0.8738 H   0  0  0  0  0  0
    1.8812    0.4788   -1.4530 H   0  0  0  0  0  0
    2.7560   -0.7469   -0.5049 H   0  0  0  0  0  0
    0.9980   -0.6499    1.2423 H   0  0  0  0  0  0
    0.3031   -1.0764   -0.3409 H   0  0  0  0  0  0
    3.8729    1.8580   -1.3114 H   0  0  0  0  0  0
    4.5249    2.2970    0.2856 H   0  0  0  0  0  0
    4.2189   -0.3640   -2.2267 H   0  0  0  0  0  0
    5.6495   -2.3679   -2.2600 H   0  0  0  0  0  0
    7.1464   -2.8435   -0.3637 H   0  0  0  0  0  0
    7.2133   -1.3149    1.5656 H   0  0  0  0  0  0
    5.7861    0.6914    1.5968 H   0  0  0  0  0  0
  1  2  2  0  0  0
  1  6  1  0  0  0
  1 26  1  0  0  0
  2  3  1  0  0  0
  2 27  1  0  0  0
  3  4  2  0  0  0
  3 28  1  0  0  0
  4  5  1  0  0  0
  4 10  1  0  0  0
  5  6  2  0  0  0
  5  7  1  0  0  0
  6 29  1  0  0  0
  7  8  2  0  0  0
  7  9  1  0  0  0
  9 10  1  0  0  0
  9 11  1  0  0  0
  9 30  1  0  0  0
 10 31  1  0  0  0
 10 32  1  0  0  0
 11 12  1  0  0  0
 11 33  1  0  0  0
 11 34  1  0  0  0
 12 13  1  0  0  0
 12 18  1  0  0  0
 12 35  1  0  0  0
 13 14  1  0  0  0
 13 36  1  0  0  0
 13 37  1  0  0  0
 14 15  1  0  0  0
 14 38  1  0  0  0
 14 39  1  0  0  0
 15 16  1  0  0  0
 15 17  1  0  0  0
 15 19  1  0  0  0
 17 18  1  0  0  0
 17 40  1  0  0  0
 17 41  1  0  0  0
 18 42  1  0  0  0
 18 43  1  0  0  0
 19 20  1  0  0  0
 19 44  1  0  0  0
 19 45  1  0  0  0
 20 21  2  0  0  0
 20 25  1  0  0  0
 21 22  1  0  0  0
 21 46  1  0  0  0
 22 23  2  0  0  0
 22 47  1  0  0  0
 23 24  1  0  0  0
 23 48  1  0  0  0
 24 25  2  0  0  0
 24 49  1  0  0  0
 25 50  1  0  0  0
M  CHG  1  15   1
M  END
>  <Activity>
6.82391

>  <set>
1

>  <Min_dist>
999.9

>  <Avg_dist>
999.9

$$$$
1-11
  Cerius2 12110214483D 1   1.00000                          
 
 47 50  0  0  0  0  0  0  0  0999 V2000
   -4.9170    1.6327   -0.4175 C   0  0  0  0  0  0
   -5.3555    0.4636    0.1745 C   0  0  0  0  0  0
   -4.4607   -0.5539    0.4684 C   0  0  0  0  0  0
   -3.1181   -0.3966    0.1656 C   0  0  0  0  0  0
   -2.6708    0.7960   -0.4389 C   0  0  0  0  0  0
   -3.5761    1.8043   -0.7263 C   0  0  0  0  0  0
   -1.2127    0.6348   -0.6206 C   0  0  0  0  0  0
   -0.4648    1.4554   -1.1129 O   0  0  0  0  0  0
   -0.8529   -0.5727   -0.1496 N   0  0  0  0  0  0
   -1.9167   -1.2417    0.3305 C   0  0  0  0  0  0
   -1.8937   -2.3536    0.8184 O   0  0  0  0  0  0
    0.5173   -1.0913   -0.1586 C   0  0  0  0  0  0
    1.0291   -1.1606   -1.6003 C   0  0  0  0  0  0
    2.4864   -1.6272   -1.5966 C   0  0  0  0  0  0
    3.3051   -0.6802   -0.8301 N   0  3  0  0  0  0
    3.2071    0.2434   -1.2243 H   0  0  0  0  0  0
    2.8660   -0.6620    0.5704 C   0  0  0  0  0  0
    1.4233   -0.1583    0.6500 C   0  0  0  0  0  0
    4.7142   -1.0908   -0.8931 C   0  0  0  0  0  0
    5.5561   -0.1194   -0.1066 C   0  0  0  0  0  0
    5.7921   -0.3400    1.2375 C   0  0  0  0  0  0
    6.5643    0.5510    1.9590 C   0  0  0  0  0  0
    7.1010    1.6624    1.3363 C   0  0  0  0  0  0
    6.8657    1.8825   -0.0080 C   0  0  0  0  0  0
    6.0970    0.9892   -0.7305 C   0  0  0  0  0  0
   -6.7903    0.2967    0.4976 N   0  3  0  0  0  0
   -7.5799    1.1881    0.2416 O   0  0  0  0  0  0
   -7.1814   -0.7320    1.0195 O   0  5  0  0  0  0
   -5.6242    2.4164   -0.6454 H   0  0  0  0  0  0
   -4.8089   -1.4652    0.9318 H   0  0  0  0  0  0
   -3.2391    2.7199   -1.1893 H   0  0  0  0  0  0
    0.5326   -2.0882    0.2819 H   0  0  0  0  0  0
    0.4225   -1.8659   -2.1684 H   0  0  0  0  0  0
    0.9642   -0.1732   -2.0574 H   0  0  0  0  0  0
    2.5501   -2.6147   -1.1395 H   0  0  0  0  0  0
    2.8538   -1.6778   -2.6215 H   0  0  0  0  0  0
    2.9216   -1.6701    0.9812 H   0  0  0  0  0  0
    3.5137   -0.0001    1.1452 H   0  0  0  0  0  0
    1.3666    0.8499    0.2396 H   0  0  0  0  0  0
    1.0985   -0.1472    1.6904 H   0  0  0  0  0  0
    4.8208   -2.0896   -0.4699 H   0  0  0  0  0  0
    5.0441   -1.0993   -1.9320 H   0  0  0  0  0  0
    5.3729   -1.2083    1.7240 H   0  0  0  0  0  0
    6.7481    0.3791    3.0093 H   0  0  0  0  0  0
    7.7037    2.3590    1.9001 H   0  0  0  0  0  0
    7.2847    2.7510   -0.4944 H   0  0  0  0  0  0
    5.9133    1.1611   -1.7807 H   0  0  0  0  0  0
  1  2  2  0  0  0
  1  6  1  0  0  0
  1 29  1  0  0  0
  2  3  1  0  0  0
  2 26  1  0  0  0
  3  4  2  0  0  0
  3 30  1  0  0  0
  4  5  1  0  0  0
  4 10  1  0  0  0
  5  6  2  0  0  0
  5  7  1  0  0  0
  6 31  1  0  0  0
  7  8  2  0  0  0
  7  9  1  0  0  0
  9 10  1  0  0  0
  9 12  1  0  0  0
 10 11  2  0  0  0
 12 13  1  0  0  0
 12 18  1  0  0  0
 12 32  1  0  0  0
 13 14  1  0  0  0
 13 33  1  0  0  0
 13 34  1  0  0  0
 14 15  1  0  0  0
 14 35  1  0  0  0
 14 36  1  0  0  0
 15 16  1  0  0  0
 15 17  1  0  0  0
 15 19  1  0  0  0
 17 18  1  0  0  0
 17 37  1  0  0  0
 17 38  1  0  0  0
 18 39  1  0  0  0
 18 40  1  0  0  0
 19 20  1  0  0  0
 19 41  1  0  0  0
 19 42  1  0  0  0
 20 21  2  0  0  0
 20 25  1  0  0  0
 21 22  1  0  0  0
 21 43  1  0  0  0
 22 23  2  0  0  0
 22 44  1  0  0  0
 23 24  1  0  0  0
 23 45  1  0  0  0
 24 25  2  0  0  0
 24 46  1  0  0  0
 25 47  1  0  0  0
 26 27  2  0  0  0
 26 28  1  0  0  0
M  CHG  3  15   1  26   1  28  -1
M  END
>  <Activity>
4.56864

>  <set>
2

>  <Min_dist>
0.166667

>  <Avg_dist>
0.567888

$$$$
1-17
  Cerius2 12110214483D 1   1.00000                          
 
 53 56  0  0  0  0  0  0  0  0999 V2000
    0.4496    1.1619   -0.3926 C   0  0  0  0  0  0
   -1.0181    1.4792   -0.0995 C   0  0  0  0  0  0
   -1.6835    2.0362   -1.3614 C   0  0  0  0  0  0
   -3.1690    2.2766   -1.0844 C   0  0  0  0  0  0
   -3.8114    1.0115   -0.7085 N   0  3  0  0  0  0
   -3.6706    0.3331   -1.4421 H   0  0  0  0  0  0
   -3.2271    0.5079    0.5403 C   0  0  0  0  0  0
   -1.7437    0.1994    0.3258 C   0  0  0  0  0  0
   -5.2510    1.2327   -0.5178 C   0  0  0  0  0  0
   -5.9120   -0.0655   -0.1319 C   0  0  0  0  0  0
   -6.0241   -0.4146    1.2010 C   0  0  0  0  0  0
   -6.6303   -1.6054    1.5550 C   0  0  0  0  0  0
   -7.1247   -2.4470    0.5762 C   0  0  0  0  0  0
   -7.0134   -2.0975   -0.7566 C   0  0  0  0  0  0
   -6.4111   -0.9047   -1.1104 C   0  0  0  0  0  0
    1.1129    0.6056    0.8690 C   0  0  0  0  0  0
    2.5183    0.3017    0.5883 N   0  0  0  0  0  0
    3.5313    1.1721    0.7477 C   0  0  0  0  0  0
    3.4263    2.3170    1.1405 O   0  0  0  0  0  0
    4.7906    0.5059    0.3664 C   0  0  0  0  0  0
    6.1208    0.9006    0.3277 C   0  0  0  0  0  0
    7.0909    0.0093   -0.0913 C   0  0  0  0  0  0
    6.7426   -1.2807   -0.4744 C   0  0  0  0  0  0
    5.4082   -1.6891   -0.4397 C   0  0  0  0  0  0
    4.4328   -0.8033   -0.0218 C   0  0  0  0  0  0
    2.9657   -0.8863    0.1430 C   0  0  0  0  0  0
    2.2798   -1.8616   -0.0876 O   0  0  0  0  0  0
    7.7274   -2.1679   -0.8944 N   0  0  0  0  0  0
    0.5090    0.4220   -1.1908 H   0  0  0  0  0  0
    0.9634    2.0721   -0.7019 H   0  0  0  0  0  0
   -1.0788    2.2170    0.7005 H   0  0  0  0  0  0
   -1.2080    2.9771   -1.6385 H   0  0  0  0  0  0
   -1.5763    1.3198   -2.1758 H   0  0  0  0  0  0
   -3.2750    2.9933   -0.2700 H   0  0  0  0  0  0
   -3.6457    2.6734   -1.9807 H   0  0  0  0  0  0
   -3.3318    1.2623    1.3200 H   0  0  0  0  0  0
   -3.7466   -0.4011    0.8433 H   0  0  0  0  0  0
   -1.6378   -0.5551   -0.4537 H   0  0  0  0  0  0
   -1.3113   -0.1726    1.2546 H   0  0  0  0  0  0
   -5.4042    1.9674    0.2727 H   0  0  0  0  0  0
   -5.6881    1.6011   -1.4459 H   0  0  0  0  0  0
   -5.6378    0.2430    1.9657 H   0  0  0  0  0  0
   -6.7172   -1.8784    2.5963 H   0  0  0  0  0  0
   -7.5977   -3.3777    0.8527 H   0  0  0  0  0  0
   -7.3995   -2.7552   -1.5214 H   0  0  0  0  0  0
   -6.3241   -0.6316   -2.1517 H   0  0  0  0  0  0
    1.0535    1.3455    1.6671 H   0  0  0  0  0  0
    0.5991   -0.3046    1.1783 H   0  0  0  0  0  0
    6.3972    1.9018    0.6239 H   0  0  0  0  0  0
    8.1256    0.3172   -0.1215 H   0  0  0  0  0  0
    5.1394   -2.6917   -0.7377 H   0  0  0  0  0  0
    8.6553   -1.8862   -0.9196 H   0  0  0  0  0  0
    7.4866   -3.0686   -1.1622 H   0  0  0  0  0  0
  1  2  1  0  0  0
  1 16  1  0  0  0
  1 29  1  0  0  0
  1 30  1  0  0  0
  2  3  1  0  0  0
  2  8  1  0  0  0
  2 31  1  0  0  0
  3  4  1  0  0  0
  3 32  1  0  0  0
  3 33  1  0  0  0
  4  5  1  0  0  0
  4 34  1  0  0  0
  4 35  1  0  0  0
  5  6  1  0  0  0
  5  7  1  0  0  0
  5  9  1  0  0  0
  7  8  1  0  0  0
  7 36  1  0  0  0
  7 37  1  0  0  0
  8 38  1  0  0  0
  8 39  1  0  0  0
  9 10  1  0  0  0
  9 40  1  0  0  0
  9 41  1  0  0  0
 10 11  2  0  0  0
 10 15  1  0  0  0
 11 12  1  0  0  0
 11 42  1  0  0  0
 12 13  2  0  0  0
 12 43  1  0  0  0
 13 14  1  0  0  0
 13 44  1  0  0  0
 14 15  2  0  0  0
 14 45  1  0  0  0
 15 46  1  0  0  0
 16 17  1  0  0  0
 16 47  1  0  0  0
 16 48  1  0  0  0
 17 18  1  0  0  0
 17 26  1  0  0  0
 18 19  2  0  0  0
 18 20  1  0  0  0
 20 21  2  0  0  0
 20 25  1  0  0  0
 21 22  1  0  0  0
 21 49  1  0  0  0
 22 23  2  0  0  0
 22 50  1  0  0  0
 23 24  1  0  0  0
 23 28  1  0  0  0
 24 25  2  0  0  0
 24 51  1  0  0  0
 25 26  1  0  0  0
 26 27  2  0  0  0
 28 52  1  0  0  0
 28 53  1  0  0  0
M  CHG  1   5   1
M  END
>  <Activity>
8.05552

>  <set>
2

>  <Min_dist>
0.070588

>  <Avg_dist>
0.466497

$$$$
1-21
  Cerius2 12110214483D 1   1.00000                          
 
 68 72  0  0  0  0  0  0  0  0999 V2000
   -2.4718    1.3750   -0.4038 C   0  0  0  0  0  0
   -3.9780    1.5801   -0.2301 C   0  0  0  0  0  0
   -4.6087    1.9159   -1.5846 C   0  0  0  0  0  0
   -6.1246    2.0413   -1.4181 C   0  0  0  0  0  0
   -6.6727    0.7731   -0.9226 N   0  3  0  0  0  0
   -6.4244    0.0295   -1.5578 H   0  0  0  0  0  0
   -6.1265    0.4806    0.4081 C   0  0  0  0  0  0
   -4.6107    0.2951    0.3120 C   0  0  0  0  0  0
   -8.1357    0.8738   -0.8368 C   0  0  0  0  0  0
   -8.6999   -0.4277   -0.3281 C   0  0  0  0  0  0
   -8.8653   -0.6255    1.0300 C   0  0  0  0  0  0
   -9.3827   -1.8194    1.4966 C   0  0  0  0  0  0
   -9.7353   -2.8153    0.6051 C   0  0  0  0  0  0
   -9.5707   -2.6172   -0.7530 C   0  0  0  0  0  0
   -9.0573   -1.4217   -1.2199 C   0  0  0  0  0  0
   -1.8433    1.0395    0.9502 C   0  0  0  0  0  0
   -0.4011    0.8431    0.7839 N   0  0  0  0  0  0
    0.5168    1.8210    0.8872 C   0  0  0  0  0  0
    0.2850    2.9882    1.1289 O   0  0  0  0  0  0
    1.8569    1.2355    0.6571 C   0  0  0  0  0  0
    3.1436    1.7488    0.6397 C   0  0  0  0  0  0
    4.2174    0.9119    0.3858 C   0  0  0  0  0  0
    4.0100   -0.4460    0.1470 C   0  0  0  0  0  0
    2.7147   -0.9720    0.1623 C   0  0  0  0  0  0
    1.6406   -0.1373    0.4167 C   0  0  0  0  0  0
    0.1794   -0.3397    0.5137 C   0  0  0  0  0  0
   -0.4005   -1.3971    0.3701 O   0  0  0  0  0  0
    5.1638   -1.3327   -0.1240 C   0  0  0  0  0  0
    4.9846   -2.5165   -0.3323 O   0  0  0  0  0  0
    6.4131   -0.8273   -0.1396 N   0  0  0  0  0  0
    7.5550   -1.7049   -0.4077 C   0  0  0  0  0  0
    8.8279   -0.8991   -0.3685 C   0  0  0  0  0  0
    9.5162   -0.7516    0.8212 C   0  0  0  0  0  0
   10.6838   -0.0124    0.8571 C   0  0  0  0  0  0
   11.1633    0.5788   -0.2967 C   0  0  0  0  0  0
   10.4755    0.4306   -1.4866 C   0  0  0  0  0  0
    9.3103   -0.3122   -1.5234 C   0  0  0  0  0  0
   -2.2947    0.5550   -1.0997 H   0  0  0  0  0  0
   -2.0237    2.2878   -0.7962 H   0  0  0  0  0  0
   -4.1564    2.3981    0.4679 H   0  0  0  0  0  0
   -4.2035    2.8591   -1.9509 H   0  0  0  0  0  0
   -4.3852    1.1218   -2.2970 H   0  0  0  0  0  0
   -6.3470    2.8358   -0.7057 H   0  0  0  0  0  0
   -6.5768    2.2806   -2.3806 H   0  0  0  0  0  0
   -6.3489    1.3083    1.0816 H   0  0  0  0  0  0
   -6.5801   -0.4324    0.7939 H   0  0  0  0  0  0
   -4.3872   -0.5326   -0.3611 H   0  0  0  0  0  0
   -4.2069    0.0798    1.3012 H   0  0  0  0  0  0
   -8.4051    1.6786   -0.1528 H   0  0  0  0  0  0
   -8.5439    1.0851   -1.8252 H   0  0  0  0  0  0
   -8.5899    0.1526    1.7265 H   0  0  0  0  0  0
   -9.5113   -1.9742    2.5577 H   0  0  0  0  0  0
  -10.1389   -3.7484    0.9698 H   0  0  0  0  0  0
   -9.8458   -3.3954   -1.4495 H   0  0  0  0  0  0
   -8.9288   -1.2669   -2.2810 H   0  0  0  0  0  0
   -2.0204    1.8595    1.6462 H   0  0  0  0  0  0
   -2.2914    0.1267    1.3427 H   0  0  0  0  0  0
    3.3090    2.8002    0.8234 H   0  0  0  0  0  0
    5.2201    1.3130    0.3724 H   0  0  0  0  0  0
    2.5533   -2.0237   -0.0226 H   0  0  0  0  0  0
    6.5561    0.1176    0.0267 H   0  0  0  0  0  0
    7.5972   -2.4879    0.3494 H   0  0  0  0  0  0
    7.4419   -2.1577   -1.3927 H   0  0  0  0  0  0
    9.1416   -1.2135    1.7227 H   0  0  0  0  0  0
   11.2212    0.1034    1.7868 H   0  0  0  0  0  0
   12.0751    1.1569   -0.2685 H   0  0  0  0  0  0
   10.8500    0.8928   -2.3880 H   0  0  0  0  0  0
    8.7729   -0.4281   -2.4531 H   0  0  0  0  0  0
  1  2  1  0  0  0
  1 16  1  0  0  0
  1 38  1  0  0  0
  1 39  1  0  0  0
  2  3  1  0  0  0
  2  8  1  0  0  0
  2 40  1  0  0  0
  3  4  1  0  0  0
  3 41  1  0  0  0
  3 42  1  0  0  0
  4  5  1  0  0  0
  4 43  1  0  0  0
  4 44  1  0  0  0
  5  6  1  0  0  0
  5  7  1  0  0  0
  5  9  1  0  0  0
  7  8  1  0  0  0
  7 45  1  0  0  0
  7 46  1  0  0  0
  8 47  1  0  0  0
  8 48  1  0  0  0
  9 10  1  0  0  0
  9 49  1  0  0  0
  9 50  1  0  0  0
 10 11  2  0  0  0
 10 15  1  0  0  0
 11 12  1  0  0  0
 11 51  1  0  0  0
 12 13  2  0  0  0
 12 52  1  0  0  0
 13 14  1  0  0  0
 13 53  1  0  0  0
 14 15  2  0  0  0
 14 54  1  0  0  0
 15 55  1  0  0  0
 16 17  1  0  0  0
 16 56  1  0  0  0
 16 57  1  0  0  0
 17 18  1  0  0  0
 17 26  1  0  0  0
 18 19  2  0  0  0
 18 20  1  0  0  0
 20 21  2  0  0  0
 20 25  1  0  0  0
 21 22  1  0  0  0
 21 58  1  0  0  0
 22 23  2  0  0  0
 22 59  1  0  0  0
 23 24  1  0  0  0
 23 28  1  0  0  0
 24 25  2  0  0  0
 24 60  1  0  0  0
 25 26  1  0  0  0
 26 27  2  0  0  0
 28 29  2  0  0  0
 28 30  1  0  0  0
 30 31  1  0  0  0
 30 61  1  0  0  0
 31 32  1  0  0  0
 31 62  1  0  0  0
 31 63  1  0  0  0
 32 33  2  0  0  0
 32 37  1  0  0  0
 33 34  1  0  0  0
 33 64  1  0  0  0
 34 35  2  0  0  0
 34 65  1  0  0  0
 35 36  1  0  0  0
 35 66  1  0  0  0
 36 37  2  0  0  0
 36 67  1  0  0  0
 37 68  1  0  0  0
M  CHG  1   5   1
M  END
>  <Activity>
8.65758

>  <set>
2

>  <Min_dist>
0.201835

>  <Avg_dist>
0.451581

$$$$
1-22
  Cerius2 12110214483D 1   1.00000                          
 
 63 67  0  0  0  0  0  0  0  0999 V2000
   -1.4979    1.7692   -0.3729 C   0  0  0  0  0  0
   -3.0072    1.7564   -0.1227 C   0  0  0  0  0  0
   -3.7437    2.1193   -1.4155 C   0  0  0  0  0  0
   -5.2527    2.0272   -1.1794 C   0  0  0  0  0  0
   -5.6066    0.6597   -0.7803 N   0  3  0  0  0  0
   -5.2968    0.0125   -1.4897 H   0  0  0  0  0  0
   -4.9607    0.3304    0.4960 C   0  0  0  0  0  0
   -3.4404    0.3573    0.3244 C   0  0  0  0  0  0
   -7.0642    0.5571   -0.6288 C   0  0  0  0  0  0
   -7.4291   -0.8465   -0.2190 C   0  0  0  0  0  0
   -7.4986   -1.1793    1.1209 C   0  0  0  0  0  0
   -7.8332   -2.4667    1.4968 C   0  0  0  0  0  0
   -8.0988   -3.4213    0.5329 C   0  0  0  0  0  0
   -8.0301   -3.0883   -0.8070 C   0  0  0  0  0  0
   -7.6997   -1.7997   -1.1829 C   0  0  0  0  0  0
   -0.7636    1.4065    0.9195 C   0  0  0  0  0  0
    0.6816    1.4188    0.6799 N   0  0  0  0  0  0
    1.4694    2.4978    0.8358 C   0  0  0  0  0  0
    1.1014    3.5988    1.1919 O   0  0  0  0  0  0
    2.8605    2.1179    0.5006 C   0  0  0  0  0  0
    4.0676    2.7982    0.4795 C   0  0  0  0  0  0
    5.2261    2.1373    0.1083 C   0  0  0  0  0  0
    5.1845    0.7883   -0.2452 C   0  0  0  0  0  0
    3.9696    0.0946   -0.2269 C   0  0  0  0  0  0
    2.8114    0.7540    0.1444 C   0  0  0  0  0  0
    1.3955    0.3510    0.2808 C   0  0  0  0  0  0
    0.9508   -0.7585    0.0658 O   0  0  0  0  0  0
    6.4272    0.0902   -0.6405 C   0  0  0  0  0  0
    7.2959    0.6900   -1.2426 O   0  0  0  0  0  0
    6.6123   -1.3360   -0.3034 C   0  0  0  0  0  0
    7.7082   -2.0400   -0.8086 C   0  0  0  0  0  0
    7.8747   -3.3714   -0.4898 C   0  0  0  0  0  0
    6.9594   -4.0101    0.3285 C   0  0  0  0  0  0
    5.8715   -3.3190    0.8326 C   0  0  0  0  0  0
    5.6955   -1.9857    0.5267 C   0  0  0  0  0  0
   -1.2517    1.0423   -1.1469 H   0  0  0  0  0  0
   -1.1918    2.7636   -0.6979 H   0  0  0  0  0  0
   -3.2542    2.4811    0.6532 H   0  0  0  0  0  0
   -3.4827    3.1358   -1.7100 H   0  0  0  0  0  0
   -3.4558    1.4255   -2.2054 H   0  0  0  0  0  0
   -5.5395    2.7214   -0.3896 H   0  0  0  0  0  0
   -5.7801    2.2851   -2.0978 H   0  0  0  0  0  0
   -5.2537    1.0609    1.2501 H   0  0  0  0  0  0
   -5.2724   -0.6643    0.8145 H   0  0  0  0  0  0
   -3.1462   -0.3731   -0.4294 H   0  0  0  0  0  0
   -2.9626    0.1143    1.2735 H   0  0  0  0  0  0
   -7.4003    1.2577    0.1355 H   0  0  0  0  0  0
   -7.5457    0.7954   -1.5772 H   0  0  0  0  0  0
   -7.2911   -0.4335    1.8740 H   0  0  0  0  0  0
   -7.8869   -2.7269    2.5437 H   0  0  0  0  0  0
   -8.3596   -4.4273    0.8266 H   0  0  0  0  0  0
   -8.2373   -3.8341   -1.5601 H   0  0  0  0  0  0
   -7.6461   -1.5395   -2.2297 H   0  0  0  0  0  0
   -1.0098    2.1335    1.6935 H   0  0  0  0  0  0
   -1.0696    0.4121    1.2444 H   0  0  0  0  0  0
    4.1045    3.8426    0.7520 H   0  0  0  0  0  0
    6.1663    2.6686    0.0919 H   0  0  0  0  0  0
    3.9361   -0.9496   -0.5009 H   0  0  0  0  0  0
    8.4230   -1.5429   -1.4476 H   0  0  0  0  0  0
    8.7212   -3.9170   -0.8800 H   0  0  0  0  0  0
    7.0946   -5.0530    0.5746 H   0  0  0  0  0  0
    5.1610   -3.8237    1.4703 H   0  0  0  0  0  0
    4.8461   -1.4475    0.9208 H   0  0  0  0  0  0
  1  2  1  0  0  0
  1 16  1  0  0  0
  1 36  1  0  0  0
  1 37  1  0  0  0
  2  3  1  0  0  0
  2  8  1  0  0  0
  2 38  1  0  0  0
  3  4  1  0  0  0
  3 39  1  0  0  0
  3 40  1  0  0  0
  4  5  1  0  0  0
  4 41  1  0  0  0
  4 42  1  0  0  0
  5  6  1  0  0  0
  5  7  1  0  0  0
  5  9  1  0  0  0
  7  8  1  0  0  0
  7 43  1  0  0  0
  7 44  1  0  0  0
  8 45  1  0  0  0
  8 46  1  0  0  0
  9 10  1  0  0  0
  9 47  1  0  0  0
  9 48  1  0  0  0
 10 11  2  0  0  0
 10 15  1  0  0  0
 11 12  1  0  0  0
 11 49  1  0  0  0
 12 13  2  0  0  0
 12 50  1  0  0  0
 13 14  1  0  0  0
 13 51  1  0  0  0
 14 15  2  0  0  0
 14 52  1  0  0  0
 15 53  1  0  0  0
 16 17  1  0  0  0
 16 54  1  0  0  0
 16 55  1  0  0  0
 17 18  1  0  0  0
 17 26  1  0  0  0
 18 19  2  0  0  0
 18 20  1  0  0  0
 20 21  2  0  0  0
 20 25  1  0  0  0
 21 22  1  0  0  0
 21 56  1  0  0  0
 22 23  2  0  0  0
 22 57  1  0  0  0
 23 24  1  0  0  0
 23 28  1  0  0  0
 24 25  2  0  0  0
 24 58  1  0  0  0
 25 26  1  0  0  0
 26 27  2  0  0  0
 28 29  2  0  0  0
 28 30  1  0  0  0
 30 31  2  0  0  0
 30 35  1  0  0  0
 31 32  1  0  0  0
 31 59  1  0  0  0
 32 33  2  0  0  0
 32 60  1  0  0  0
 33 34  1  0  0  0
 33 61  1  0  0  0
 34 35  2  0  0  0
 34 62  1  0  0  0
 35 63  1  0  0  0
M  CHG  1   5   1
M  END
>  <Activity>
8.61979

>  <set>
2

>  <Min_dist>
0.164706

>  <Avg_dist>
0.478735

$$$$
1-23
  Cerius2 12110214483D 1   1.00000                          
 
 53 56  0  0  0  0  0  0  0  0999 V2000
    0.0587    0.7562   -0.5465 C   0  0  0  0  0  0
   -1.3531    1.2445   -0.2157 C   0  0  0  0  0  0
   -1.9963    1.8398   -1.4715 C   0  0  0  0  0  0
   -3.4350    2.2533   -1.1539 C   0  0  0  0  0  0
   -4.2009    1.0788   -0.7199 N   0  3  0  0  0  0
   -4.1630    0.3700   -1.4370 H   0  0  0  0  0  0
   -3.6326    0.5453    0.5238 C   0  0  0  0  0  0
   -2.2016    0.0661    0.2708 C   0  0  0  0  0  0
   -5.5992    1.4657   -0.4895 C   0  0  0  0  0  0
   -6.3869    0.2608   -0.0438 C   0  0  0  0  0  0
   -6.4900   -0.0385    1.3019 C   0  0  0  0  0  0
   -7.2125   -1.1438    1.7107 C   0  0  0  0  0  0
   -7.8324   -1.9495    0.7739 C   0  0  0  0  0  0
   -7.7300   -1.6497   -0.5716 C   0  0  0  0  0  0
   -7.0111   -0.5419   -0.9802 C   0  0  0  0  0  0
    0.7000    0.1617    0.7090 C   0  0  0  0  0  0
    2.0518   -0.3058    0.3924 N   0  0  0  0  0  0
    3.1610    0.4488    0.4923 C   0  0  0  0  0  0
    3.1998    1.6076    0.8535 O   0  0  0  0  0  0
    4.3247   -0.3688    0.0894 C   0  0  0  0  0  0
    5.6864   -0.1331   -0.0054 C   0  0  0  0  0  0
    6.5316   -1.1470   -0.4301 C   0  0  0  0  0  0
    6.0247   -2.3897   -0.7591 C   0  0  0  0  0  0
    4.6639   -2.6401   -0.6690 C   0  0  0  0  0  0
    3.8075   -1.6367   -0.2462 C   0  0  0  0  0  0
    2.3478   -1.5478   -0.0311 C   0  0  0  0  0  0
    1.5493   -2.4456   -0.2081 O   0  0  0  0  0  0
    6.2369    1.1955    0.3447 N   0  3  0  0  0  0
    7.4347    1.3999    0.2604 O   0  0  0  0  0  0
    5.4922    2.0844    0.7171 O   0  5  0  0  0  0
    0.0067   -0.0062   -1.3237 H   0  0  0  0  0  0
    0.6597    1.5943   -0.8993 H   0  0  0  0  0  0
   -1.3025    2.0050    0.5634 H   0  0  0  0  0  0
   -1.4288    2.7136   -1.7918 H   0  0  0  0  0  0
   -1.9989    1.0949   -2.2672 H   0  0  0  0  0  0
   -3.4312    2.9983   -0.3584 H   0  0  0  0  0  0
   -3.8958    2.6778   -2.0459 H   0  0  0  0  0  0
   -3.6247    1.3268    1.2836 H   0  0  0  0  0  0
   -4.2394   -0.2912    0.8706 H   0  0  0  0  0  0
   -2.2084   -0.7156   -0.4887 H   0  0  0  0  0  0
   -1.7808   -0.3279    1.1959 H   0  0  0  0  0  0
   -5.6411    2.2334    0.2832 H   0  0  0  0  0  0
   -6.0250    1.8567   -1.4135 H   0  0  0  0  0  0
   -6.0058    0.5910    2.0337 H   0  0  0  0  0  0
   -7.2925   -1.3780    2.7619 H   0  0  0  0  0  0
   -8.3963   -2.8135    1.0933 H   0  0  0  0  0  0
   -8.2140   -2.2794   -1.3035 H   0  0  0  0  0  0
   -6.9312   -0.3077   -2.0314 H   0  0  0  0  0  0
    0.7520    0.9242    1.4863 H   0  0  0  0  0  0
    0.0990   -0.6764    1.0619 H   0  0  0  0  0  0
    7.5933   -0.9640   -0.5047 H   0  0  0  0  0  0
    6.6931   -3.1713   -1.0890 H   0  0  0  0  0  0
    4.2733   -3.6132   -0.9278 H   0  0  0  0  0  0
  1  2  1  0  0  0
  1 16  1  0  0  0
  1 31  1  0  0  0
  1 32  1  0  0  0
  2  3  1  0  0  0
  2  8  1  0  0  0
  2 33  1  0  0  0
  3  4  1  0  0  0
  3 34  1  0  0  0
  3 35  1  0  0  0
  4  5  1  0  0  0
  4 36  1  0  0  0
  4 37  1  0  0  0
  5  6  1  0  0  0
  5  7  1  0  0  0
  5  9  1  0  0  0
  7  8  1  0  0  0
  7 38  1  0  0  0
  7 39  1  0  0  0
  8 40  1  0  0  0
  8 41  1  0  0  0
  9 10  1  0  0  0
  9 42  1  0  0  0
  9 43  1  0  0  0
 10 11  2  0  0  0
 10 15  1  0  0  0
 11 12  1  0  0  0
 11 44  1  0  0  0
 12 13  2  0  0  0
 12 45  1  0  0  0
 13 14  1  0  0  0
 13 46  1  0  0  0
 14 15  2  0  0  0
 14 47  1  0  0  0
 15 48  1  0  0  0
 16 17  1  0  0  0
 16 49  1  0  0  0
 16 50  1  0  0  0
 17 18  1  0  0  0
 17 26  1  0  0  0
 18 19  2  0  0  0
 18 20  1  0  0  0
 20 21  2  0  0  0
 20 25  1  0  0  0
 21 22  1  0  0  0
 21 28  1  0  0  0
 22 23  2  0  0  0
 22 51  1  0  0  0
 23 24  1  0  0  0
 23 52  1  0  0  0
 24 25  2  0  0  0
 24 53  1  0  0  0
 25 26  1  0  0  0
 26 27  2  0  0  0
 28 29  2  0  0  0
 28 30  1  0  0  0
M  CHG  3   5   1  28   1  30  -1
M  END
>  <Activity>
8.04576

>  <set>
2

>  <Min_dist>
0.122449

>  <Avg_dist>
0.518347

$$$$
1-25
  Cerius2 12110214483D 1   1.00000                          
 
 65 69  0  0  0  0  0  0  0  0999 V2000
   -1.3490    0.2962   -0.6067 C   0  0  0  0  0  0
   -2.6594    1.0429   -0.3490 C   0  0  0  0  0  0
   -3.2118    1.5795   -1.6727 C   0  0  0  0  0  0
   -4.5609    2.2557   -1.4194 C   0  0  0  0  0  0
   -5.5020    1.2816   -0.8537 N   0  3  0  0  0  0
   -5.5873    0.4951   -1.4800 H   0  0  0  0  0  0
   -5.0136    0.8163    0.4499 C   0  0  0  0  0  0
   -3.6819    0.0847    0.2685 C   0  0  0  0  0  0
   -6.8165    1.9148   -0.6833 C   0  0  0  0  0  0
   -7.7838    0.9158   -0.1026 C   0  0  0  0  0  0
   -7.9189    0.8010    1.2684 C   0  0  0  0  0  0
   -8.8062   -0.1154    1.8011 C   0  0  0  0  0  0
   -9.5588   -0.9167    0.9628 C   0  0  0  0  0  0
   -9.4243   -0.8011   -0.4081 C   0  0  0  0  0  0
   -8.5402    0.1183   -0.9409 C   0  0  0  0  0  0
   -0.7985   -0.2392    0.7166 C   0  0  0  0  0  0
    0.4562   -0.9542    0.4699 N   0  0  0  0  0  0
    1.6739   -0.3829    0.4877 C   0  0  0  0  0  0
    1.9032    0.7899    0.7074 O   0  0  0  0  0  0
    2.6836   -1.4161    0.1971 C   0  0  0  0  0  0
    4.0720   -1.4164    0.0849 C   0  0  0  0  0  0
    4.7379   -2.6073   -0.2105 C   0  0  0  0  0  0
    4.0295   -3.7759   -0.3904 C   0  0  0  0  0  0
    2.6453   -3.7872   -0.2813 C   0  0  0  0  0  0
    1.9664   -2.6172    0.0113 C   0  0  0  0  0  0
    0.5425   -2.2697    0.2015 C   0  0  0  0  0  0
   -0.3924   -3.0413    0.1259 O   0  0  0  0  0  0
    4.7894   -0.2389    0.2653 N   0  0  0  0  0  0
    6.0024   -0.0949   -0.3043 C   0  0  0  0  0  0
    6.4238   -0.9480   -1.0607 O   0  0  0  0  0  0
    6.8202    1.1004   -0.0092 C   0  0  0  0  0  0
    8.0769    1.2527   -0.5974 C   0  0  0  0  0  0
    8.8349    2.3710   -0.3181 C   0  0  0  0  0  0
    8.3521    3.3402    0.5434 C   0  0  0  0  0  0
    7.1073    3.1954    1.1298 C   0  0  0  0  0  0
    6.3367    2.0848    0.8546 C   0  0  0  0  0  0
   -1.5325   -0.5355   -1.2869 H   0  0  0  0  0  0
   -0.6243    0.9774   -1.0527 H   0  0  0  0  0  0
   -2.4776    1.8732    0.3334 H   0  0  0  0  0  0
   -2.5139    2.3049   -2.0910 H   0  0  0  0  0  0
   -3.3438    0.7548   -2.3730 H   0  0  0  0  0  0
   -4.4277    3.0804   -0.7192 H   0  0  0  0  0  0
   -4.9569    2.6391   -2.3597 H   0  0  0  0  0  0
   -4.8707    1.6717    1.1103 H   0  0  0  0  0  0
   -5.7439    0.1370    0.8896 H   0  0  0  0  0  0
   -3.8237   -0.7710   -0.3915 H   0  0  0  0  0  0
   -3.3201   -0.2584    1.2378 H   0  0  0  0  0  0
   -6.7249    2.7663   -0.0090 H   0  0  0  0  0  0
   -7.1837    2.2558   -1.6513 H   0  0  0  0  0  0
   -7.3310    1.4269    1.9232 H   0  0  0  0  0  0
   -8.9113   -0.2057    2.8721 H   0  0  0  0  0  0
  -10.2515   -1.6331    1.3790 H   0  0  0  0  0  0
  -10.0120   -1.4274   -1.0630 H   0  0  0  0  0  0
   -8.4352    0.2085   -2.0120 H   0  0  0  0  0  0
   -0.6150    0.5925    1.3969 H   0  0  0  0  0  0
   -1.5232   -0.9203    1.1626 H   0  0  0  0  0  0
    5.8143   -2.6128   -0.2989 H   0  0  0  0  0  0
    4.5558   -4.6910   -0.6185 H   0  0  0  0  0  0
    2.0992   -4.7079   -0.4244 H   0  0  0  0  0  0
    4.4169    0.4787    0.8012 H   0  0  0  0  0  0
    8.4552    0.4966   -1.2695 H   0  0  0  0  0  0
    9.8073    2.4901   -0.7725 H   0  0  0  0  0  0
    8.9498    4.2134    0.7593 H   0  0  0  0  0  0
    6.7364    3.9556    1.8014 H   0  0  0  0  0  0
    5.3653    1.9730    1.3130 H   0  0  0  0  0  0
  1  2  1  0  0  0
  1 16  1  0  0  0
  1 37  1  0  0  0
  1 38  1  0  0  0
  2  3  1  0  0  0
  2  8  1  0  0  0
  2 39  1  0  0  0
  3  4  1  0  0  0
  3 40  1  0  0  0
  3 41  1  0  0  0
  4  5  1  0  0  0
  4 42  1  0  0  0
  4 43  1  0  0  0
  5  6  1  0  0  0
  5  7  1  0  0  0
  5  9  1  0  0  0
  7  8  1  0  0  0
  7 44  1  0  0  0
  7 45  1  0  0  0
  8 46  1  0  0  0
  8 47  1  0  0  0
  9 10  1  0  0  0
  9 48  1  0  0  0
  9 49  1  0  0  0
 10 11  2  0  0  0
 10 15  1  0  0  0
 11 12  1  0  0  0
 11 50  1  0  0  0
 12 13  2  0  0  0
 12 51  1  0  0  0
 13 14  1  0  0  0
 13 52  1  0  0  0
 14 15  2  0  0  0
 14 53  1  0  0  0
 15 54  1  0  0  0
 16 17  1  0  0  0
 16 55  1  0  0  0
 16 56  1  0  0  0
 17 18  1  0  0  0
 17 26  1  0  0  0
 18 19  2  0  0  0
 18 20  1  0  0  0
 20 21  2  0  0  0
 20 25  1  0  0  0
 21 22  1  0  0  0
 21 28  1  0  0  0
 22 23  2  0  0  0
 22 57  1  0  0  0
 23 24  1  0  0  0
 23 58  1  0  0  0
 24 25  2  0  0  0
 24 59  1  0  0  0
 25 26  1  0  0  0
 26 27  2  0  0  0
 28 29  1  0  0  0
 28 60  1  0  0  0
 29 30  2  0  0  0
 29 31  1  0  0  0
 31 32  2  0  0  0
 31 36  1  0  0  0
 32 33  1  0  0  0
 32 61  1  0  0  0
 33 34  2  0  0  0
 33 62  1  0  0  0
 34 35  1  0  0  0
 34 63  1  0  0  0
 35 36  2  0  0  0
 35 64  1  0  0  0
 36 65  1  0  0  0
M  CHG  1   5   1
M  END
>  <Activity>
6.46852

>  <set>
2

>  <Min_dist>
0.076923

>  <Avg_dist>
0.4891

$$$$
1-26
  Cerius2 12110214483D 1   1.00000                          
 
 50 53  0  0  0  0  0  0  0  0999 V2000
    0.8063    1.0674   -0.3584 C   0  0  0  0  0  0
   -0.6431    1.4150   -0.0129 C   0  0  0  0  0  0
   -1.3053    2.0996   -1.2121 C   0  0  0  0  0  0
   -2.7758    2.3725   -0.8886 C   0  0  0  0  0  0
   -3.4617    1.1059   -0.6063 N   0  3  0  0  0  0
   -3.3591    0.4858   -1.3956 H   0  0  0  0  0  0
   -2.8785    0.4787    0.5858 C   0  0  0  0  0  0
   -1.4120    0.1329    0.3191 C   0  0  0  0  0  0
   -4.8884    1.3652   -0.3712 C   0  0  0  0  0  0
   -5.5940    0.0656   -0.0811 C   0  0  0  0  0  0
   -5.6992   -0.3882    1.2204 C   0  0  0  0  0  0
   -6.3464   -1.5804    1.4865 C   0  0  0  0  0  0
   -6.8888   -2.3185    0.4511 C   0  0  0  0  0  0
   -6.7843   -1.8642   -0.8503 C   0  0  0  0  0  0
   -6.1409   -0.6699   -1.1159 C   0  0  0  0  0  0
    1.4665    0.3835    0.8406 C   0  0  0  0  0  0
    2.8543    0.0507    0.5098 N   0  0  0  0  0  0
    3.9037    0.8652    0.7210 C   0  0  0  0  0  0
    3.8519    1.9758    1.2085 O   0  0  0  0  0  0
    5.1353    0.1787    0.2588 C   0  0  0  0  0  0
    6.4131    0.5079    0.2296 N   0  0  0  0  0  0
    7.3272   -0.3141   -0.2486 C   0  0  0  0  0  0
    6.9868   -1.5618   -0.7424 C   0  0  0  0  0  0
    5.6555   -1.9584   -0.7350 C   0  0  0  0  0  0
    4.7132   -1.0730   -0.2257 C   0  0  0  0  0  0
    3.2483   -1.1122   -0.0401 C   0  0  0  0  0  0
    2.5209   -2.0384   -0.3363 O   0  0  0  0  0  0
    0.8242    0.3945   -1.2157 H   0  0  0  0  0  0
    1.3508    1.9799   -0.6013 H   0  0  0  0  0  0
   -0.6622    2.0857    0.8461 H   0  0  0  0  0  0
   -0.7973    3.0414   -1.4197 H   0  0  0  0  0  0
   -1.2391    1.4496   -2.0846 H   0  0  0  0  0  0
   -2.8408    3.0228   -0.0162 H   0  0  0  0  0  0
   -3.2502    2.8601   -1.7403 H   0  0  0  0  0  0
   -2.9413    1.1693    1.4268 H   0  0  0  0  0  0
   -3.4288   -0.4319    0.8227 H   0  0  0  0  0  0
   -1.3480   -0.5580   -0.5216 H   0  0  0  0  0  0
   -0.9803   -0.3311    1.2059 H   0  0  0  0  0  0
   -5.0002    2.0371    0.4797 H   0  0  0  0  0  0
   -5.3248    1.8256   -1.2575 H   0  0  0  0  0  0
   -5.2755    0.1884    2.0293 H   0  0  0  0  0  0
   -6.4280   -1.9353    2.5032 H   0  0  0  0  0  0
   -7.3938   -3.2503    0.6589 H   0  0  0  0  0  0
   -7.2077   -2.4411   -1.6592 H   0  0  0  0  0  0
   -6.0593   -0.3150   -2.1327 H   0  0  0  0  0  0
    1.4486    1.0564    1.6979 H   0  0  0  0  0  0
    0.9220   -0.5290    1.0835 H   0  0  0  0  0  0
    8.3626   -0.0072   -0.2554 H   0  0  0  0  0  0
    7.7495   -2.2209   -1.1301 H   0  0  0  0  0  0
    5.3614   -2.9260   -1.1139 H   0  0  0  0  0  0
  1  2  1  0  0  0
  1 16  1  0  0  0
  1 28  1  0  0  0
  1 29  1  0  0  0
  2  3  1  0  0  0
  2  8  1  0  0  0
  2 30  1  0  0  0
  3  4  1  0  0  0
  3 31  1  0  0  0
  3 32  1  0  0  0
  4  5  1  0  0  0
  4 33  1  0  0  0
  4 34  1  0  0  0
  5  6  1  0  0  0
  5  7  1  0  0  0
  5  9  1  0  0  0
  7  8  1  0  0  0
  7 35  1  0  0  0
  7 36  1  0  0  0
  8 37  1  0  0  0
  8 38  1  0  0  0
  9 10  1  0  0  0
  9 39  1  0  0  0
  9 40  1  0  0  0
 10 11  2  0  0  0
 10 15  1  0  0  0
 11 12  1  0  0  0
 11 41  1  0  0  0
 12 13  2  0  0  0
 12 42  1  0  0  0
 13 14  1  0  0  0
 13 43  1  0  0  0
 14 15  2  0  0  0
 14 44  1  0  0  0
 15 45  1  0  0  0
 16 17  1  0  0  0
 16 46  1  0  0  0
 16 47  1  0  0  0
 17 18  1  0  0  0
 17 26  1  0  0  0
 18 19  2  0  0  0
 18 20  1  0  0  0
 20 21  2  0  0  0
 20 25  1  0  0  0
 21 22  1  0  0  0
 22 23  2  0  0  0
 22 48  1  0  0  0
 23 24  1  0  0  0
 23 49  1  0  0  0
 24 25  2  0  0  0
 24 50  1  0  0  0
 25 26  1  0  0  0
 26 27  2  0  0  0
M  CHG  1   5   1
M  END
>  <Activity>
7.88606

>  <set>
2

>  <Min_dist>
0.174419

>  <Avg_dist>
0.519547

$$$$
1-31C
  Cerius2 12110214483D 1   1.00000                          
 
 57 60  0  0  0  0  0  0  0  0999 V2000
    0.8502   -0.8041    0.0551 C   0  0  0  0  0  0
   -0.5631   -1.0371   -0.4827 C   0  0  0  0  0  0
   -1.1784   -2.2585    0.2064 C   0  0  0  0  0  0
   -2.6189   -2.4383   -0.2773 C   0  0  0  0  0  0
   -3.4027   -1.2420    0.0528 N   0  3  0  0  0  0
   -3.3578   -1.0755    1.0470 H   0  0  0  0  0  0
   -2.8616   -0.0793   -0.6613 C   0  0  0  0  0  0
   -1.4303    0.1913   -0.1925 C   0  0  0  0  0  0
   -4.8015   -1.4497   -0.3448 C   0  0  0  0  0  0
   -5.6075   -0.2221   -0.0064 C   0  0  0  0  0  0
   -5.7375    0.7962   -0.9322 C   0  0  0  0  0  0
   -6.4767    1.9223   -0.6219 C   0  0  0  0  0  0
   -7.0864    2.0299    0.6141 C   0  0  0  0  0  0
   -6.9571    1.0112    1.5396 C   0  0  0  0  0  0
   -6.2215   -0.1168    1.2276 C   0  0  0  0  0  0
    1.4635    0.4164   -0.6342 C   0  0  0  0  0  0
    2.8205    0.6400   -0.1179 N   0  3  0  0  0  0
    2.7807    0.8013    0.8774 H   0  0  0  0  0  0
    3.6495   -0.5374   -0.3912 C   0  0  0  0  0  0
    5.0826   -0.2767   -0.0090 C   0  0  0  0  0  0
    5.9269   -1.3607    0.1774 C   0  0  0  0  0  0
    7.2482   -1.1640    0.5264 C   0  0  0  0  0  0
    7.7336    0.1197    0.6905 C   0  0  0  0  0  0
    6.8941    1.2005    0.5056 C   0  0  0  0  0  0
    5.5675    1.0037    0.1568 C   0  0  0  0  0  0
    4.6821    2.2094   -0.0292 C   0  0  0  0  0  0
    3.4135    1.8103   -0.7828 C   0  0  0  0  0  0
    0.8058   -0.6301    1.1302 H   0  0  0  0  0  0
    1.4646   -1.6818   -0.1457 H   0  0  0  0  0  0
   -0.5201   -1.2085   -1.5583 H   0  0  0  0  0  0
   -0.5977   -3.1471   -0.0413 H   0  0  0  0  0  0
   -1.1729   -2.1085    1.2860 H   0  0  0  0  0  0
   -2.6232   -2.5884   -1.3569 H   0  0  0  0  0  0
   -3.0599   -3.3072    0.2112 H   0  0  0  0  0  0
   -2.8607   -0.2797   -1.7327 H   0  0  0  0  0  0
   -3.4817    0.7933   -0.4564 H   0  0  0  0  0  0
   -1.4301    0.3921    0.8789 H   0  0  0  0  0  0
   -1.0297    1.0538   -0.7252 H   0  0  0  0  0  0
   -4.8508   -1.6322   -1.4182 H   0  0  0  0  0  0
   -5.2071   -2.3091    0.1890 H   0  0  0  0  0  0
   -5.2612    0.7122   -1.8979 H   0  0  0  0  0  0
   -6.5777    2.7182   -1.3449 H   0  0  0  0  0  0
   -7.6634    2.9100    0.8569 H   0  0  0  0  0  0
   -7.4332    1.0954    2.5053 H   0  0  0  0  0  0
   -6.1205   -0.9127    1.9506 H   0  0  0  0  0  0
    1.5080    0.2423   -1.7093 H   0  0  0  0  0  0
    0.8491    1.2940   -0.4334 H   0  0  0  0  0  0
    3.2726   -1.3836    0.1834 H   0  0  0  0  0  0
    3.5984   -0.7741   -1.4539 H   0  0  0  0  0  0
    5.5488   -2.3643    0.0491 H   0  0  0  0  0  0
    7.9013   -2.0118    0.6713 H   0  0  0  0  0  0
    8.7668    0.2770    0.9631 H   0  0  0  0  0  0
    7.2731    2.2037    0.6338 H   0  0  0  0  0  0
    4.4101    2.6132    0.9460 H   0  0  0  0  0  0
    5.2187    2.9688   -0.5980 H   0  0  0  0  0  0
    3.6645    1.5546   -1.8123 H   0  0  0  0  0  0
    2.7050    2.6386   -0.7711 H   0  0  0  0  0  0
  1  2  1  0  0  0
  1 16  1  0  0  0
  1 28  1  0  0  0
  1 29  1  0  0  0
  2  3  1  0  0  0
  2  8  1  0  0  0
  2 30  1  0  0  0
  3  4  1  0  0  0
  3 31  1  0  0  0
  3 32  1  0  0  0
  4  5  1  0  0  0
  4 33  1  0  0  0
  4 34  1  0  0  0
  5  6  1  0  0  0
  5  7  1  0  0  0
  5  9  1  0  0  0
  7  8  1  0  0  0
  7 35  1  0  0  0
  7 36  1  0  0  0
  8 37  1  0  0  0
  8 38  1  0  0  0
  9 10  1  0  0  0
  9 39  1  0  0  0
  9 40  1  0  0  0
 10 11  2  0  0  0
 10 15  1  0  0  0
 11 12  1  0  0  0
 11 41  1  0  0  0
 12 13  2  0  0  0
 12 42  1  0  0  0
 13 14  1  0  0  0
 13 43  1  0  0  0
 14 15  2  0  0  0
 14 44  1  0  0  0
 15 45  1  0  0  0
 16 17  1  0  0  0
 16 46  1  0  0  0
 16 47  1  0  0  0
 17 18  1  0  0  0
 17 19  1  0  0  0
 17 27  1  0  0  0
 19 20  1  0  0  0
 19 48  1  0  0  0
 19 49  1  0  0  0
 20 21  2  0  0  0
 20 25  1  0  0  0
 21 22  1  0  0  0
 21 50  1  0  0  0
 22 23  2  0  0  0
 22 51  1  0  0  0
 23 24  1  0  0  0
 23 52  1  0  0  0
 24 25  2  0  0  0
 24 53  1  0  0  0
 25 26  1  0  0  0
 26 27  1  0  0  0
 26 54  1  0  0  0
 26 55  1  0  0  0
 27 56  1  0  0  0
 27 57  1  0  0  0
M  CHG  2   5   1  17   1
M  END
>  <Activity>
5.79588

>  <set>
2

>  <Min_dist>
0.171875

>  <Avg_dist>
0.487674

$$$$
1-31D
  Cerius2 12110214483D 1   1.00000                          
 
 54 57  0  0  0  0  0  0  0  0999 V2000
    0.6159    0.8478   -0.4330 C   0  0  0  0  0  0
   -0.8020    1.2713   -0.0442 C   0  0  0  0  0  0
   -1.4483    2.0270   -1.2088 C   0  0  0  0  0  0
   -2.8922    2.3778   -0.8435 C   0  0  0  0  0  0
   -3.6465    1.1469   -0.5783 N   0  3  0  0  0  0
   -3.5989    0.5439   -1.3859 H   0  0  0  0  0  0
   -3.0758    0.4533    0.5827 C   0  0  0  0  0  0
   -1.6390    0.0284    0.2722 C   0  0  0  0  0  0
   -5.0495    1.4839   -0.3027 C   0  0  0  0  0  0
   -5.8253    0.2210   -0.0302 C   0  0  0  0  0  0
   -5.9288   -0.2616    1.2610 C   0  0  0  0  0  0
   -6.6404   -1.4201    1.5110 C   0  0  0  0  0  0
   -7.2489   -2.0957    0.4697 C   0  0  0  0  0  0
   -7.1461   -1.6126   -0.8214 C   0  0  0  0  0  0
   -6.4382   -0.4518   -1.0707 C   0  0  0  0  0  0
    1.2601    0.0930    0.7315 C   0  0  0  0  0  0
    2.6178   -0.3124    0.3592 N   0  0  0  0  0  0
    3.6291    0.5267    0.6231 C   0  0  0  0  0  0
    3.3855    1.5895    1.1593 O   0  0  0  0  0  0
    5.0268    0.2032    0.2848 C   0  0  0  0  0  0
    6.0598    1.0952    0.5708 C   0  0  0  0  0  0
    7.3589    0.7641    0.2415 C   0  0  0  0  0  0
    7.6401   -0.4449   -0.3695 C   0  0  0  0  0  0
    6.6185   -1.3366   -0.6569 C   0  0  0  0  0  0
    5.3229   -1.0163   -0.3327 C   0  0  0  0  0  0
    4.1787   -1.9574   -0.6278 C   0  0  0  0  0  0
    2.7900   -1.5103   -0.2256 C   0  0  0  0  0  0
    1.8350   -2.2262   -0.4385 O   0  0  0  0  0  0
    0.5743    0.1990   -1.3079 H   0  0  0  0  0  0
    1.2087    1.7327   -0.6647 H   0  0  0  0  0  0
   -0.7618    1.9179    0.8324 H   0  0  0  0  0  0
   -0.8894    2.9423   -1.4036 H   0  0  0  0  0  0
   -1.4406    1.3986   -2.0994 H   0  0  0  0  0  0
   -2.8987    3.0064    0.0470 H   0  0  0  0  0  0
   -3.3552    2.9161   -1.6705 H   0  0  0  0  0  0
   -3.0784    1.1229    1.4427 H   0  0  0  0  0  0
   -3.6744   -0.4291    0.8085 H   0  0  0  0  0  0
   -1.6353   -0.6414   -0.5877 H   0  0  0  0  0  0
   -1.2164   -0.4847    1.1360 H   0  0  0  0  0  0
   -5.1019    2.1375    0.5681 H   0  0  0  0  0  0
   -5.4771    1.9938   -1.1660 H   0  0  0  0  0  0
   -5.4534    0.2662    2.0745 H   0  0  0  0  0  0
   -6.7207   -1.7975    2.5197 H   0  0  0  0  0  0
   -7.8042   -3.0012    0.6649 H   0  0  0  0  0  0
   -7.6213   -2.1407   -1.6349 H   0  0  0  0  0  0
   -6.3579   -0.0744   -2.0794 H   0  0  0  0  0  0
    1.3017    0.7418    1.6064 H   0  0  0  0  0  0
    0.6674   -0.7919    0.9633 H   0  0  0  0  0  0
    5.8447    2.0403    1.0471 H   0  0  0  0  0  0
    8.1607    1.4532    0.4620 H   0  0  0  0  0  0
    8.6595   -0.6947   -0.6240 H   0  0  0  0  0  0
    6.8406   -2.2796   -1.1343 H   0  0  0  0  0  0
    4.1735   -2.1518   -1.7003 H   0  0  0  0  0  0
    4.3827   -2.9011   -0.1218 H   0  0  0  0  0  0
  1  2  1  0  0  0
  1 16  1  0  0  0
  1 29  1  0  0  0
  1 30  1  0  0  0
  2  3  1  0  0  0
  2  8  1  0  0  0
  2 31  1  0  0  0
  3  4  1  0  0  0
  3 32  1  0  0  0
  3 33  1  0  0  0
  4  5  1  0  0  0
  4 34  1  0  0  0
  4 35  1  0  0  0
  5  6  1  0  0  0
  5  7  1  0  0  0
  5  9  1  0  0  0
  7  8  1  0  0  0
  7 36  1  0  0  0
  7 37  1  0  0  0
  8 38  1  0  0  0
  8 39  1  0  0  0
  9 10  1  0  0  0
  9 40  1  0  0  0
  9 41  1  0  0  0
 10 11  2  0  0  0
 10 15  1  0  0  0
 11 12  1  0  0  0
 11 42  1  0  0  0
 12 13  2  0  0  0
 12 43  1  0  0  0
 13 14  1  0  0  0
 13 44  1  0  0  0
 14 15  2  0  0  0
 14 45  1  0  0  0
 15 46  1  0  0  0
 16 17  1  0  0  0
 16 47  1  0  0  0
 16 48  1  0  0  0
 17 18  1  0  0  0
 17 27  1  0  0  0
 18 19  2  0  0  0
 18 20  1  0  0  0
 20 21  2  0  0  0
 20 25  1  0  0  0
 21 22  1  0  0  0
 21 49  1  0  0  0
 22 23  2  0  0  0
 22 50  1  0  0  0
 23 24  1  0  0  0
 23 51  1  0  0  0
 24 25  2  0  0  0
 24 52  1  0  0  0
 25 26  1  0  0  0
 26 27  1  0  0  0
 26 53  1  0  0  0
 26 54  1  0  0  0
 27 28  2  0  0  0
M  CHG  1   5   1
M  END
>  <Activity>
7.63827

>  <set>
2

>  <Min_dist>
0.085714

>  <Avg_dist>
0.454107

$$$$
1-34
  Cerius2 12110214483D 1   1.00000                          
 
 52 55  0  0  0  0  0  0  0  0999 V2000
    0.7106    0.8346   -0.3942 C   0  0  0  0  0  0
   -0.7133    1.2324   -0.0001 C   0  0  0  0  0  0
   -1.3600    2.0198   -1.1433 C   0  0  0  0  0  0
   -2.8090    2.3456   -0.7752 C   0  0  0  0  0  0
   -3.5535    1.1000   -0.5545 N   0  3  0  0  0  0
   -3.4959    0.5240   -1.3810 H   0  0  0  0  0  0
   -2.9829    0.3742    0.5866 C   0  0  0  0  0  0
   -1.5406   -0.0275    0.2708 C   0  0  0  0  0  0
   -4.9611    1.4153   -0.2763 C   0  0  0  0  0  0
   -5.7268    0.1373   -0.0495 C   0  0  0  0  0  0
   -5.8330   -0.3880    1.2248 C   0  0  0  0  0  0
   -6.5353   -1.5603    1.4328 C   0  0  0  0  0  0
   -7.1318   -2.2072    0.3666 C   0  0  0  0  0  0
   -7.0264   -1.6814   -0.9075 C   0  0  0  0  0  0
   -6.3277   -0.5068   -1.1149 C   0  0  0  0  0  0
    1.3553    0.0481    0.7489 C   0  0  0  0  0  0
    2.7186   -0.3328    0.3716 N   0  0  0  0  0  0
    3.7499    0.4952    0.6588 C   0  0  0  0  0  0
    3.5695    1.5563    1.2273 O   0  0  0  0  0  0
    5.0970    0.0628    0.2578 C   0  0  0  0  0  0
    6.2254    0.8407    0.5069 C   0  0  0  0  0  0
    7.4643    0.3866    0.1096 C   0  0  0  0  0  0
    7.5948   -0.8361   -0.5352 C   0  0  0  0  0  0
    6.4919   -1.6199   -0.7913 C   0  0  0  0  0  0
    5.2261   -1.1820   -0.3977 C   0  0  0  0  0  0
    4.1130   -1.9219   -0.6297 N   0  0  0  0  0  0
    2.9367   -1.5166   -0.2584 C   0  0  0  0  0  0
    0.6798    0.2142   -1.2899 H   0  0  0  0  0  0
    1.2965    1.7318   -0.5936 H   0  0  0  0  0  0
   -0.6839    1.8505    0.8972 H   0  0  0  0  0  0
   -0.8084    2.9460   -1.3050 H   0  0  0  0  0  0
   -1.3416    1.4208   -2.0538 H   0  0  0  0  0  0
   -2.8262    2.9448    0.1352 H   0  0  0  0  0  0
   -3.2724    2.9064   -1.5869 H   0  0  0  0  0  0
   -2.9964    1.0154    1.4680 H   0  0  0  0  0  0
   -3.5747   -0.5205    0.7802 H   0  0  0  0  0  0
   -1.5260   -0.6690   -0.6103 H   0  0  0  0  0  0
   -1.1181   -0.5647    1.1200 H   0  0  0  0  0  0
   -5.0242    2.0397    0.6149 H   0  0  0  0  0  0
   -5.3884    1.9492   -1.1250 H   0  0  0  0  0  0
   -5.3669    0.1173    2.0577 H   0  0  0  0  0  0
   -6.6177   -1.9711    2.4282 H   0  0  0  0  0  0
   -7.6799   -3.1234    0.5290 H   0  0  0  0  0  0
   -7.4921   -2.1869   -1.7405 H   0  0  0  0  0  0
   -6.2453   -0.0960   -2.1103 H   0  0  0  0  0  0
    1.3861    0.6684    1.6447 H   0  0  0  0  0  0
    0.7693   -0.8492    0.9484 H   0  0  0  0  0  0
    6.1299    1.7929    1.0075 H   0  0  0  0  0  0
    8.3413    0.9871    0.3011 H   0  0  0  0  0  0
    8.5733   -1.1765   -0.8401 H   0  0  0  0  0  0
    6.6056   -2.5689   -1.2942 H   0  0  0  0  0  0
    2.0867   -2.1485   -0.4700 H   0  0  0  0  0  0
  1  2  1  0  0  0
  1 16  1  0  0  0
  1 28  1  0  0  0
  1 29  1  0  0  0
  2  3  1  0  0  0
  2  8  1  0  0  0
  2 30  1  0  0  0
  3  4  1  0  0  0
  3 31  1  0  0  0
  3 32  1  0  0  0
  4  5  1  0  0  0
  4 33  1  0  0  0
  4 34  1  0  0  0
  5  6  1  0  0  0
  5  7  1  0  0  0
  5  9  1  0  0  0
  7  8  1  0  0  0
  7 35  1  0  0  0
  7 36  1  0  0  0
  8 37  1  0  0  0
  8 38  1  0  0  0
  9 10  1  0  0  0
  9 39  1  0  0  0
  9 40  1  0  0  0
 10 11  2  0  0  0
 10 15  1  0  0  0
 11 12  1  0  0  0
 11 41  1  0  0  0
 12 13  2  0  0  0
 12 42  1  0  0  0
 13 14  1  0  0  0
 13 43  1  0  0  0
 14 15  2  0  0  0
 14 44  1  0  0  0
 15 45  1  0  0  0
 16 17  1  0  0  0
 16 46  1  0  0  0
 16 47  1  0  0  0
 17 18  1  0  0  0
 17 27  1  0  0  0
 18 19  2  0  0  0
 18 20  1  0  0  0
 20 21  2  0  0  0
 20 25  1  0  0  0
 21 22  1  0  0  0
 21 48  1  0  0  0
 22 23  2  0  0  0
 22 49  1  0  0  0
 23 24  1  0  0  0
 23 50  1  0  0  0
 24 25  2  0  0  0
 24 51  1  0  0  0
 25 26  1  0  0  0
 26 27  2  0  0  0
 27 52  1  0  0  0
M  CHG  1   5   1
M  END
>  <Activity>
5.92082

>  <set>
2

>  <Min_dist>
0.175824

>  <Avg_dist>
0.54888

$$$$
1-38
  Cerius2 12110214483D 1   1.00000                          
 
 54 57  0  0  0  0  0  0  0  0999 V2000
    0.6820    1.1685   -0.4277 C   0  0  0  0  0  0
   -0.7894    1.4798   -0.1465 C   0  0  0  0  0  0
   -1.4600    1.9843   -1.4275 C   0  0  0  0  0  0
   -2.9483    2.2180   -1.1595 C   0  0  0  0  0  0
   -3.5769    0.9599   -0.7392 N   0  3  0  0  0  0
   -3.4283    0.2576   -1.4482 H   0  0  0  0  0  0
   -2.9879    0.5075    0.5268 C   0  0  0  0  0  0
   -1.5011    0.2080    0.3238 C   0  0  0  0  0  0
   -5.0191    1.1719   -0.5568 C   0  0  0  0  0  0
   -5.6659   -0.1190   -0.1252 C   0  0  0  0  0  0
   -5.7750   -0.4218    1.2191 C   0  0  0  0  0  0
   -6.3683   -1.6059    1.6150 C   0  0  0  0  0  0
   -6.8528   -2.4871    0.6666 C   0  0  0  0  0  0
   -6.7445   -2.1840   -0.6778 C   0  0  0  0  0  0
   -6.1551   -0.9978   -1.0735 C   0  0  0  0  0  0
    1.3505    0.6646    0.8530 C   0  0  0  0  0  0
    2.7593    0.3666    0.5837 N   0  0  0  0  0  0
    3.6984    1.3174    0.7388 C   0  0  0  0  0  0
    3.3489    2.4227    1.1054 O   0  0  0  0  0  0
    5.0001    1.1031    0.5087 N   0  0  0  0  0  0
    5.5037   -0.1274    0.0858 C   0  0  0  0  0  0
    4.6388   -1.1978   -0.1142 C   0  0  0  0  0  0
    3.1661   -0.9795    0.1456 C   0  0  0  0  0  0
    5.1183   -2.4179   -0.5319 C   0  0  0  0  0  0
    6.4748   -2.5823   -0.7556 C   0  0  0  0  0  0
    7.3423   -1.5232   -0.5593 C   0  0  0  0  0  0
    6.8633   -0.2976   -0.1394 C   0  0  0  0  0  0
    0.7500    0.4014   -1.1991 H   0  0  0  0  0  0
    1.1858    2.0728   -0.7690 H   0  0  0  0  0  0
   -0.8587    2.2448    0.6269 H   0  0  0  0  0  0
   -0.9948    2.9200   -1.7377 H   0  0  0  0  0  0
   -1.3445    1.2407   -2.2160 H   0  0  0  0  0  0
   -3.0627    2.9619   -0.3711 H   0  0  0  0  0  0
   -3.4288    2.5774   -2.0695 H   0  0  0  0  0  0
   -3.1014    1.2879    1.2793 H   0  0  0  0  0  0
   -3.4976   -0.3959    0.8618 H   0  0  0  0  0  0
   -1.3864   -0.5725   -0.4284 H   0  0  0  0  0  0
   -1.0652   -0.1261    1.2653 H   0  0  0  0  0  0
   -5.1808    1.9324    0.2070 H   0  0  0  0  0  0
   -5.4596    1.5023   -1.4975 H   0  0  0  0  0  0
   -5.3965    0.2667    1.9602 H   0  0  0  0  0  0
   -6.4529   -1.8427    2.6653 H   0  0  0  0  0  0
   -7.3157   -3.4126    0.9758 H   0  0  0  0  0  0
   -7.1228   -2.8726   -1.4188 H   0  0  0  0  0  0
   -6.0705   -0.7610   -2.1238 H   0  0  0  0  0  0
    1.2824    1.4317    1.6244 H   0  0  0  0  0  0
    0.8466   -0.2396    1.1943 H   0  0  0  0  0  0
    5.6208    1.8365    0.6417 H   0  0  0  0  0  0
    2.8482   -1.6970    0.9021 H   0  0  0  0  0  0
    2.6256   -1.2041   -0.7739 H   0  0  0  0  0  0
    4.4395   -3.2440   -0.6843 H   0  0  0  0  0  0
    6.8558   -3.5383   -1.0832 H   0  0  0  0  0  0
    8.3997   -1.6553   -0.7344 H   0  0  0  0  0  0
    7.5445    0.5267    0.0123 H   0  0  0  0  0  0
  1  2  1  0  0  0
  1 16  1  0  0  0
  1 28  1  0  0  0
  1 29  1  0  0  0
  2  3  1  0  0  0
  2  8  1  0  0  0
  2 30  1  0  0  0
  3  4  1  0  0  0
  3 31  1  0  0  0
  3 32  1  0  0  0
  4  5  1  0  0  0
  4 33  1  0  0  0
  4 34  1  0  0  0
  5  6  1  0  0  0
  5  7  1  0  0  0
  5  9  1  0  0  0
  7  8  1  0  0  0
  7 35  1  0  0  0
  7 36  1  0  0  0
  8 37  1  0  0  0
  8 38  1  0  0  0
  9 10  1  0  0  0
  9 39  1  0  0  0
  9 40  1  0  0  0
 10 11  2  0  0  0
 10 15  1  0  0  0
 11 12  1  0  0  0
 11 41  1  0  0  0
 12 13  2  0  0  0
 12 42  1  0  0  0
 13 14  1  0  0  0
 13 43  1  0  0  0
 14 15  2  0  0  0
 14 44  1  0  0  0
 15 45  1  0  0  0
 16 17  1  0  0  0
 16 46  1  0  0  0
 16 47  1  0  0  0
 17 18  1  0  0  0
 17 23  1  0  0  0
 18 19  2  0  0  0
 18 20  1  0  0  0
 20 21  1  0  0  0
 20 48  1  0  0  0
 21 22  2  0  0  0
 21 27  1  0  0  0
 22 23  1  0  0  0
 22 24  1  0  0  0
 23 49  1  0  0  0
 23 50  1  0  0  0
 24 25  2  0  0  0
 24 51  1  0  0  0
 25 26  1  0  0  0
 25 52  1  0  0  0
 26 27  2  0  0  0
 26 53  1  0  0  0
 27 54  1  0  0  0
M  CHG  1   5   1
M  END
>  <Activity>
7.88606

>  <set>
2

>  <Min_dist>
0.130952

>  <Avg_dist>
0.507499

$$$$
1-39
  Cerius2 12110214483D 1   1.00000                          
 
 53 56  0  0  0  0  0  0  0  0999 V2000
   -0.2051    0.9834   -0.3923 C   0  0  0  0  0  0
   -1.6531    1.3579   -0.0697 C   0  0  0  0  0  0
   -2.2987    2.0099   -1.2958 C   0  0  0  0  0  0
   -3.7684    2.3094   -0.9929 C   0  0  0  0  0  0
   -4.4705    1.0603   -0.6745 N   0  3  0  0  0  0
   -4.3690    0.4135   -1.4423 H   0  0  0  0  0  0
   -3.9032    0.4662    0.5419 C   0  0  0  0  0  0
   -2.4387    0.0958    0.2981 C   0  0  0  0  0  0
   -5.8959    1.3427   -0.4592 C   0  0  0  0  0  0
   -6.6181    0.0610   -0.1322 C   0  0  0  0  0  0
   -6.7381   -0.3486    1.1826 C   0  0  0  0  0  0
   -7.4005   -1.5242    1.4826 C   0  0  0  0  0  0
   -7.9433   -2.2900    0.4678 C   0  0  0  0  0  0
   -7.8241   -1.8799   -0.8470 C   0  0  0  0  0  0
   -7.1655   -0.7020   -1.1466 C   0  0  0  0  0  0
    0.4384    0.3321    0.8335 C   0  0  0  0  0  0
    1.8248   -0.0265    0.5246 N   0  0  0  0  0  0
    2.8085    0.8689    0.7594 C   0  0  0  0  0  0
    2.5568    1.9647    1.2224 O   0  0  0  0  0  0
    4.1943    0.4835    0.4405 C   0  0  0  0  0  0
    5.2634    1.3504    0.6543 C   0  0  0  0  0  0
    6.5424    0.9424    0.3398 C   0  0  0  0  0  0
    6.7669   -0.3220   -0.1860 C   0  0  0  0  0  0
    5.7141   -1.1914   -0.4028 C   0  0  0  0  0  0
    4.4225   -0.7980   -0.0925 C   0  0  0  0  0  0
    3.3381   -1.6396   -0.2949 N   0  0  0  0  0  0
    2.0935   -1.2404    0.0189 C   0  0  0  0  0  0
    1.1704   -2.0079   -0.1734 O   0  0  0  0  0  0
    8.3847   -0.8164   -0.5759 Cl  0  0  0  0  0  0
   -0.1885    0.2825   -1.2270 H   0  0  0  0  0  0
    0.3512    1.8814   -0.6608 H   0  0  0  0  0  0
   -1.6712    2.0566    0.7666 H   0  0  0  0  0  0
   -1.7788    2.9388   -1.5302 H   0  0  0  0  0  0
   -2.2333    1.3309   -2.1460 H   0  0  0  0  0  0
   -3.8327    2.9886   -0.1428 H   0  0  0  0  0  0
   -4.2311    2.7739   -1.8637 H   0  0  0  0  0  0
   -3.9646    1.1847    1.3593 H   0  0  0  0  0  0
   -4.4654   -0.4300    0.8043 H   0  0  0  0  0  0
   -2.3762   -0.6229   -0.5190 H   0  0  0  0  0  0
   -2.0188   -0.3434    1.2030 H   0  0  0  0  0  0
   -6.0065    2.0434    0.3684 H   0  0  0  0  0  0
   -6.3206    1.7785   -1.3635 H   0  0  0  0  0  0
   -6.3140    0.2497    1.9755 H   0  0  0  0  0  0
   -7.4936   -1.8447    2.5097 H   0  0  0  0  0  0
   -8.4602   -3.2089    0.7021 H   0  0  0  0  0  0
   -8.2479   -2.4783   -1.6398 H   0  0  0  0  0  0
   -7.0724   -0.3816   -2.1737 H   0  0  0  0  0  0
    0.4217    1.0330    1.6681 H   0  0  0  0  0  0
   -0.1180   -0.5659    1.1019 H   0  0  0  0  0  0
    5.0917    2.3352    1.0631 H   0  0  0  0  0  0
    7.3746    1.6111    0.5034 H   0  0  0  0  0  0
    5.8978   -2.1736   -0.8128 H   0  0  0  0  0  0
    3.4800   -2.5262   -0.6618 H   0  0  0  0  0  0
  1  2  1  0  0  0
  1 16  1  0  0  0
  1 30  1  0  0  0
  1 31  1  0  0  0
  2  3  1  0  0  0
  2  8  1  0  0  0
  2 32  1  0  0  0
  3  4  1  0  0  0
  3 33  1  0  0  0
  3 34  1  0  0  0
  4  5  1  0  0  0
  4 35  1  0  0  0
  4 36  1  0  0  0
  5  6  1  0  0  0
  5  7  1  0  0  0
  5  9  1  0  0  0
  7  8  1  0  0  0
  7 37  1  0  0  0
  7 38  1  0  0  0
  8 39  1  0  0  0
  8 40  1  0  0  0
  9 10  1  0  0  0
  9 41  1  0  0  0
  9 42  1  0  0  0
 10 11  2  0  0  0
 10 15  1  0  0  0
 11 12  1  0  0  0
 11 43  1  0  0  0
 12 13  2  0  0  0
 12 44  1  0  0  0
 13 14  1  0  0  0
 13 45  1  0  0  0
 14 15  2  0  0  0
 14 46  1  0  0  0
 15 47  1  0  0  0
 16 17  1  0  0  0
 16 48  1  0  0  0
 16 49  1  0  0  0
 17 18  1  0  0  0
 17 27  1  0  0  0
 18 19  2  0  0  0
 18 20  1  0  0  0
 20 21  2  0  0  0
 20 25  1  0  0  0
 21 22  1  0  0  0
 21 50  1  0  0  0
 22 23  2  0  0  0
 22 51  1  0  0  0
 23 24  1  0  0  0
 23 29  1  0  0  0
 24 25  2  0  0  0
 24 52  1  0  0  0
 25 26  1  0  0  0
 26 27  1  0  0  0
 26 53  1  0  0  0
 27 28  2  0  0  0
M  CHG  1   5   1
M  END
>  <Activity>
8.34679

>  <set>
2

>  <Min_dist>
0.066667

>  <Avg_dist>
0.531686

$$$$
1-3E
  Cerius2 12110214483D 1   1.00000                          
 
 60 63  0  0  0  0  0  0  0  0999 V2000
    0.2097    1.1292   -0.9234 C   0  0  0  0  0  0
   -1.1915    1.5405   -0.4669 C   0  0  0  0  0  0
   -1.9978    2.0350   -1.6713 C   0  0  0  0  0  0
   -3.4219    2.3694   -1.2223 C   0  0  0  0  0  0
   -4.0576    1.1694   -0.6653 N   0  3  0  0  0  0
   -4.0439    0.4322   -1.3542 H   0  0  0  0  0  0
   -3.3312    0.7312    0.5325 C   0  0  0  0  0  0
   -1.9036    0.3337    0.1509 C   0  0  0  0  0  0
   -5.4486    1.4759   -0.3060 C   0  0  0  0  0  0
   -6.1028    0.2447    0.2660 C   0  0  0  0  0  0
   -6.0484    0.0015    1.6257 C   0  0  0  0  0  0
   -6.6484   -1.1279    2.1504 C   0  0  0  0  0  0
   -7.3031   -2.0139    1.3154 C   0  0  0  0  0  0
   -7.3582   -1.7703   -0.0442 C   0  0  0  0  0  0
   -6.7620   -0.6387   -0.5683 C   0  0  0  0  0  0
    1.0140    0.6354    0.2810 C   0  0  0  0  0  0
    2.3556    0.2416   -0.1561 N   0  0  0  0  0  0
    3.3540    1.1469   -0.1661 C   0  0  0  0  0  0
    3.1984    2.2168   -0.7213 O   0  0  0  0  0  0
    4.6406    0.8381    0.4994 C   0  0  0  0  0  0
    5.7348    1.7010    0.3837 C   0  0  0  0  0  0
    6.9160    1.3739    1.0210 C   0  0  0  0  0  0
    7.0188    0.2671    1.7295 N   0  0  0  0  0  0
    6.0123   -0.5734    1.8642 C   0  0  0  0  0  0
    4.7930   -0.3217    1.2656 C   0  0  0  0  0  0
    2.6005   -1.0738   -0.5628 C   0  0  0  0  0  0
    3.8346   -1.4182   -1.0989 C   0  0  0  0  0  0
    4.0734   -2.7182   -1.4992 C   0  0  0  0  0  0
    3.0853   -3.6766   -1.3666 C   0  0  0  0  0  0
    1.8554   -3.3369   -0.8336 C   0  0  0  0  0  0
    1.6121   -2.0400   -0.4261 C   0  0  0  0  0  0
    0.1318    0.3300   -1.6605 H   0  0  0  0  0  0
    0.7130    1.9870   -1.3693 H   0  0  0  0  0  0
   -1.1146    2.3377    0.2724 H   0  0  0  0  0  0
   -1.5268    2.9277   -2.0829 H   0  0  0  0  0  0
   -2.0298    1.2556   -2.4327 H   0  0  0  0  0  0
   -3.3887    3.1489   -0.4612 H   0  0  0  0  0  0
   -3.9986    2.7220   -2.0773 H   0  0  0  0  0  0
   -3.3000    1.5456    1.2562 H   0  0  0  0  0  0
   -3.8410   -0.1257    0.9729 H   0  0  0  0  0  0
   -1.9336   -0.4809   -0.5726 H   0  0  0  0  0  0
   -1.3654    0.0104    1.0419 H   0  0  0  0  0  0
   -5.4647    2.2740    0.4362 H   0  0  0  0  0  0
   -5.9916    1.7959   -1.1954 H   0  0  0  0  0  0
   -5.5369    0.6938    2.2781 H   0  0  0  0  0  0
   -6.6053   -1.3182    3.2126 H   0  0  0  0  0  0
   -7.7712   -2.8967    1.7253 H   0  0  0  0  0  0
   -7.8694   -2.4627   -0.6965 H   0  0  0  0  0  0
   -6.8050   -0.4483   -1.6305 H   0  0  0  0  0  0
    1.0919    1.4345    1.0181 H   0  0  0  0  0  0
    0.5107   -0.2225    0.7269 H   0  0  0  0  0  0
    5.6577    2.6093   -0.1954 H   0  0  0  0  0  0
    7.7668    2.0338    0.9373 H   0  0  0  0  0  0
    6.1414   -1.4688    2.4540 H   0  0  0  0  0  0
    3.9727   -1.0147    1.3802 H   0  0  0  0  0  0
    4.6066   -0.6701   -1.2031 H   0  0  0  0  0  0
    5.0327   -2.9866   -1.9165 H   0  0  0  0  0  0
    3.2746   -4.6926   -1.6804 H   0  0  0  0  0  0
    1.0857   -4.0877   -0.7317 H   0  0  0  0  0  0
    0.6514   -1.7754   -0.0096 H   0  0  0  0  0  0
  1  2  1  0  0  0
  1 16  1  0  0  0
  1 32  1  0  0  0
  1 33  1  0  0  0
  2  3  1  0  0  0
  2  8  1  0  0  0
  2 34  1  0  0  0
  3  4  1  0  0  0
  3 35  1  0  0  0
  3 36  1  0  0  0
  4  5  1  0  0  0
  4 37  1  0  0  0
  4 38  1  0  0  0
  5  6  1  0  0  0
  5  7  1  0  0  0
  5  9  1  0  0  0
  7  8  1  0  0  0
  7 39  1  0  0  0
  7 40  1  0  0  0
  8 41  1  0  0  0
  8 42  1  0  0  0
  9 10  1  0  0  0
  9 43  1  0  0  0
  9 44  1  0  0  0
 10 11  2  0  0  0
 10 15  1  0  0  0
 11 12  1  0  0  0
 11 45  1  0  0  0
 12 13  2  0  0  0
 12 46  1  0  0  0
 13 14  1  0  0  0
 13 47  1  0  0  0
 14 15  2  0  0  0
 14 48  1  0  0  0
 15 49  1  0  0  0
 16 17  1  0  0  0
 16 50  1  0  0  0
 16 51  1  0  0  0
 17 18  1  0  0  0
 17 26  1  0  0  0
 18 19  2  0  0  0
 18 20  1  0  0  0
 20 21  2  0  0  0
 20 25  1  0  0  0
 21 22  1  0  0  0
 21 52  1  0  0  0
 22 23  2  0  0  0
 22 53  1  0  0  0
 23 24  1  0  0  0
 24 25  2  0  0  0
 24 54  1  0  0  0
 25 55  1  0  0  0
 26 27  2  0  0  0
 26 31  1  0  0  0
 27 28  1  0  0  0
 27 56  1  0  0  0
 28 29  2  0  0  0
 28 57  1  0  0  0
 29 30  1  0  0  0
 29 58  1  0  0  0
 30 31  2  0  0  0
 30 59  1  0  0  0
 31 60  1  0  0  0
M  CHG  1   5   1
M  END
>  <Activity>
7.19382

>  <set>
2

>  <Min_dist>
0.08642

>  <Avg_dist>
0.414759

$$$$
1-3J
  Cerius2 12110214483D 1   1.00000                          
 
 58 60  0  0  0  0  0  0  0  0999 V2000
    0.7856    1.8165   -0.5244 C   0  0  0  0  0  0
   -0.7114    1.9570   -0.2413 C   0  0  0  0  0  0
   -1.4481    2.3000   -1.5393 C   0  0  0  0  0  0
   -2.9522    2.3606   -1.2649 C   0  0  0  0  0  0
   -3.4152    1.0598   -0.7668 N   0  3  0  0  0  0
   -3.1840    0.3423   -1.4375 H   0  0  0  0  0  0
   -2.7661    0.7573    0.5144 C   0  0  0  0  0  0
   -1.2548    0.6350    0.3085 C   0  0  0  0  0  0
   -4.8714    1.0998   -0.5772 C   0  0  0  0  0  0
   -5.3483   -0.2351   -0.0658 C   0  0  0  0  0  0
   -5.4101   -0.4721    1.2946 C   0  0  0  0  0  0
   -5.8475   -1.6967    1.7637 C   0  0  0  0  0  0
   -6.2235   -2.6841    0.8724 C   0  0  0  0  0  0
   -6.1625   -2.4467   -0.4881 C   0  0  0  0  0  0
   -5.7293   -1.2207   -0.9571 C   0  0  0  0  0  0
    1.5202    1.4739    0.7732 C   0  0  0  0  0  0
    2.9536    1.3394    0.5021 N   0  0  0  0  0  0
    3.7415    2.4327    0.4841 C   0  0  0  0  0  0
    4.9015    2.3387    0.1425 O   0  0  0  0  0  0
    3.1812    3.7720    0.8883 C   0  0  0  0  0  0
    3.5054    0.0742    0.2616 C   0  0  0  0  0  0
    4.8825   -0.0766    0.1683 C   0  0  0  0  0  0
    5.4257   -1.3239   -0.0683 C   0  0  0  0  0  0
    4.5958   -2.4261   -0.2132 C   0  0  0  0  0  0
    3.2199   -2.2760   -0.1205 C   0  0  0  0  0  0
    2.6757   -1.0303    0.1222 C   0  0  0  0  0  0
    5.1313   -3.6539   -0.4466 O   0  0  0  0  0  0
    4.0383   -4.5689   -0.5470 C   0  0  0  0  0  0
    0.9446    1.0213   -1.2528 H   0  0  0  0  0  0
    1.1699    2.7558   -0.9223 H   0  0  0  0  0  0
   -0.8713    2.7501    0.4891 H   0  0  0  0  0  0
   -1.1059    3.2672   -1.9073 H   0  0  0  0  0  0
   -1.2451    1.5329   -2.2866 H   0  0  0  0  0  0
   -3.1541    3.1281   -0.5177 H   0  0  0  0  0  0
   -3.4798    2.6048   -2.1869 H   0  0  0  0  0  0
   -2.9720    1.5590    1.2237 H   0  0  0  0  0  0
   -3.1562   -0.1821    0.9060 H   0  0  0  0  0  0
   -1.0477   -0.1666   -0.4005 H   0  0  0  0  0  0
   -0.7745    0.4121    1.2613 H   0  0  0  0  0  0
   -5.1225    1.8765    0.1452 H   0  0  0  0  0  0
   -5.3558    1.3185   -1.5289 H   0  0  0  0  0  0
   -5.1163    0.2993    1.9911 H   0  0  0  0  0  0
   -5.8951   -1.8821    2.8266 H   0  0  0  0  0  0
   -6.5645   -3.6410    1.2388 H   0  0  0  0  0  0
   -6.4560   -3.2183   -1.1845 H   0  0  0  0  0  0
   -5.6817   -1.0353   -2.0200 H   0  0  0  0  0  0
    1.3612    2.2691    1.5016 H   0  0  0  0  0  0
    1.1360    0.5346    1.1711 H   0  0  0  0  0  0
    2.1103    3.6784    1.0687 H   0  0  0  0  0  0
    3.6746    4.1125    1.7986 H   0  0  0  0  0  0
    3.3534    4.4939    0.0899 H   0  0  0  0  0  0
    5.5286    0.7815    0.2804 H   0  0  0  0  0  0
    6.4968   -1.4414   -0.1409 H   0  0  0  0  0  0
    2.5743   -3.1344   -0.2341 H   0  0  0  0  0  0
    1.6044   -0.9136    0.1943 H   0  0  0  0  0  0
    4.4205   -5.5723   -0.7350 H   0  0  0  0  0  0
    3.4736   -4.5640    0.3853 H   0  0  0  0  0  0
    3.3871   -4.2685   -1.3678 H   0  0  0  0  0  0
  1  2  1  0  0  0
  1 16  1  0  0  0
  1 29  1  0  0  0
  1 30  1  0  0  0
  2  3  1  0  0  0
  2  8  1  0  0  0
  2 31  1  0  0  0
  3  4  1  0  0  0
  3 32  1  0  0  0
  3 33  1  0  0  0
  4  5  1  0  0  0
  4 34  1  0  0  0
  4 35  1  0  0  0
  5  6  1  0  0  0
  5  7  1  0  0  0
  5  9  1  0  0  0
  7  8  1  0  0  0
  7 36  1  0  0  0
  7 37  1  0  0  0
  8 38  1  0  0  0
  8 39  1  0  0  0
  9 10  1  0  0  0
  9 40  1  0  0  0
  9 41  1  0  0  0
 10 11  2  0  0  0
 10 15  1  0  0  0
 11 12  1  0  0  0
 11 42  1  0  0  0
 12 13  2  0  0  0
 12 43  1  0  0  0
 13 14  1  0  0  0
 13 44  1  0  0  0
 14 15  2  0  0  0
 14 45  1  0  0  0
 15 46  1  0  0  0
 16 17  1  0  0  0
 16 47  1  0  0  0
 16 48  1  0  0  0
 17 18  1  0  0  0
 17 21  1  0  0  0
 18 19  2  0  0  0
 18 20  1  0  0  0
 20 49  1  0  0  0
 20 50  1  0  0  0
 20 51  1  0  0  0
 21 22  2  0  0  0
 21 26  1  0  0  0
 22 23  1  0  0  0
 22 52  1  0  0  0
 23 24  2  0  0  0
 23 53  1  0  0  0
 24 25  1  0  0  0
 24 27  1  0  0  0
 25 26  2  0  0  0
 25 54  1  0  0  0
 26 55  1  0  0  0
 27 28  1  0  0  0
 28 56  1  0  0  0
 28 57  1  0  0  0
 28 58  1  0  0  0
M  CHG  1   5   1
M  END
>  <Activity>
6.1549

>  <set>
2

>  <Min_dist>
0.109756

>  <Avg_dist>
0.406862

$$$$
1-3K
  Cerius2 12110214483D 1   1.00000                          
 
 54 56  0  0  0  0  0  0  0  0999 V2000
    1.1983    1.5521   -0.4896 C   0  0  0  0  0  0
   -0.2750    1.8232   -0.1783 C   0  0  0  0  0  0
   -0.9873    2.2996   -1.4476 C   0  0  0  0  0  0
   -2.4756    2.4925   -1.1487 C   0  0  0  0  0  0
   -3.0587    1.2200   -0.7069 N   0  3  0  0  0  0
   -2.9053    0.5173   -1.4145 H   0  0  0  0  0  0
   -2.4297    0.7933    0.5488 C   0  0  0  0  0  0
   -0.9397    0.5349    0.3153 C   0  0  0  0  0  0
   -4.5020    1.3920   -0.4945 C   0  0  0  0  0  0
   -5.1021    0.0862   -0.0408 C   0  0  0  0  0  0
   -5.1734   -0.2103    1.3075 C   0  0  0  0  0  0
   -5.7238   -1.4081    1.7236 C   0  0  0  0  0  0
   -6.2033   -2.3093    0.7915 C   0  0  0  0  0  0
   -6.1328   -2.0124   -0.5568 C   0  0  0  0  0  0
   -5.5863   -0.8127   -0.9727 C   0  0  0  0  0  0
    1.9084    1.0763    0.7793 C   0  0  0  0  0  0
    3.3191    0.8167    0.4813 N   0  0  0  0  0  0
    4.2099    1.8278    0.5042 C   0  0  0  0  0  0
    5.3517    1.6384    0.1417 O   0  0  0  0  0  0
    3.7872    3.1937    0.9803 C   0  0  0  0  0  0
    3.7416   -0.4811    0.1728 C   0  0  0  0  0  0
    5.0963   -0.7613    0.0522 C   0  0  0  0  0  0
    5.5117   -2.0432   -0.2520 C   0  0  0  0  0  0
    4.5807   -3.0480   -0.4366 C   0  0  0  0  0  0
    3.2282   -2.7729   -0.3172 C   0  0  0  0  0  0
    2.8073   -1.4922   -0.0076 C   0  0  0  0  0  0
    2.3204   -3.7569   -0.4982 F   0  0  0  0  0  0
    1.2716    0.7819   -1.2575 H   0  0  0  0  0  0
    1.6685    2.4679   -0.8475 H   0  0  0  0  0  0
   -0.3495    2.5913    0.5915 H   0  0  0  0  0  0
   -0.5559    3.2459   -1.7737 H   0  0  0  0  0  0
   -0.8676    1.5541   -2.2337 H   0  0  0  0  0  0
   -2.5942    3.2383   -0.3627 H   0  0  0  0  0  0
   -2.9857    2.8319   -2.0503 H   0  0  0  0  0  0
   -2.5493    1.5753    1.2986 H   0  0  0  0  0  0
   -2.9059   -0.1219    0.9005 H   0  0  0  0  0  0
   -0.8189   -0.2472   -0.4343 H   0  0  0  0  0  0
   -0.4741    0.2199    1.2492 H   0  0  0  0  0  0
   -4.6689    2.1529    0.2679 H   0  0  0  0  0  0
   -4.9720    1.7032   -1.4274 H   0  0  0  0  0  0
   -4.7989    0.4938    2.0357 H   0  0  0  0  0  0
   -5.7789   -1.6400    2.7770 H   0  0  0  0  0  0
   -6.6327   -3.2454    1.1166 H   0  0  0  0  0  0
   -6.5071   -2.7166   -1.2851 H   0  0  0  0  0  0
   -5.5312   -0.5808   -2.0261 H   0  0  0  0  0  0
    1.8351    1.8464    1.5472 H   0  0  0  0  0  0
    1.4381    0.1604    1.1372 H   0  0  0  0  0  0
    2.7141    3.1959    1.1715 H   0  0  0  0  0  0
    4.3204    3.4395    1.8987 H   0  0  0  0  0  0
    4.0214    3.9338    0.2150 H   0  0  0  0  0  0
    5.8250    0.0229    0.1957 H   0  0  0  0  0  0
    6.5655   -2.2605   -0.3461 H   0  0  0  0  0  0
    4.9081   -4.0492   -0.6747 H   0  0  0  0  0  0
    1.7530   -1.2772    0.0855 H   0  0  0  0  0  0
  1  2  1  0  0  0
  1 16  1  0  0  0
  1 28  1  0  0  0
  1 29  1  0  0  0
  2  3  1  0  0  0
  2  8  1  0  0  0
  2 30  1  0  0  0
  3  4  1  0  0  0
  3 31  1  0  0  0
  3 32  1  0  0  0
  4  5  1  0  0  0
  4 33  1  0  0  0
  4 34  1  0  0  0
  5  6  1  0  0  0
  5  7  1  0  0  0
  5  9  1  0  0  0
  7  8  1  0  0  0
  7 35  1  0  0  0
  7 36  1  0  0  0
  8 37  1  0  0  0
  8 38  1  0  0  0
  9 10  1  0  0  0
  9 39  1  0  0  0
  9 40  1  0  0  0
 10 11  2  0  0  0
 10 15  1  0  0  0
 11 12  1  0  0  0
 11 41  1  0  0  0
 12 13  2  0  0  0
 12 42  1  0  0  0
 13 14  1  0  0  0
 13 43  1  0  0  0
 14 15  2  0  0  0
 14 44  1  0  0  0
 15 45  1  0  0  0
 16 17  1  0  0  0
 16 46  1  0  0  0
 16 47  1  0  0  0
 17 18  1  0  0  0
 17 21  1  0  0  0
 18 19  2  0  0  0
 18 20  1  0  0  0
 20 48  1  0  0  0
 20 49  1  0  0  0
 20 50  1  0  0  0
 21 22  2  0  0  0
 21 26  1  0  0  0
 22 23  1  0  0  0
 22 51  1  0  0  0
 23 24  2  0  0  0
 23 52  1  0  0  0
 24 25  1  0  0  0
 24 53  1  0  0  0
 25 26  2  0  0  0
 25 27  1  0  0  0
 26 54  1  0  0  0
M  CHG  1   5   1
M  END
>  <Activity>
7.18709

>  <set>
2

>  <Min_dist>
0.094595

>  <Avg_dist>
0.428955

$$$$
1-3O
  Cerius2 12110214483D 1   1.00000                          
 
 47 48  0  0  0  0  0  0  0  0999 V2000
    2.4093    0.5599   -0.4282 C   0  0  0  0  0  0
    1.0443    0.9463    0.1448 C   0  0  0  0  0  0
    0.4305    2.0638   -0.7036 C   0  0  0  0  0  0
   -0.9673    2.3902   -0.1733 C   0  0  0  0  0  0
   -1.8150    1.1944   -0.2494 N   0  3  0  0  0  0
   -1.8422    0.8627   -1.2019 H   0  0  0  0  0  0
   -1.2713    0.1425    0.6181 C   0  0  0  0  0  0
    0.1147   -0.2704    0.1182 C   0  0  0  0  0  0
   -3.1758    1.5319    0.1891 C   0  0  0  0  0  0
   -4.0474    0.3049    0.1115 C   0  0  0  0  0  0
   -4.1535   -0.5376    1.2023 C   0  0  0  0  0  0
   -4.9530   -1.6630    1.1311 C   0  0  0  0  0  0
   -5.6466   -1.9458   -0.0307 C   0  0  0  0  0  0
   -5.5411   -1.1028   -1.1212 C   0  0  0  0  0  0
   -4.7451    0.0250   -1.0485 C   0  0  0  0  0  0
    3.0211   -0.5565    0.4203 C   0  0  0  0  0  0
    4.3281   -0.9265   -0.1283 N   0  0  0  0  0  0
    5.4411   -0.2987    0.3003 C   0  0  0  0  0  0
    5.3605    0.5725    1.1402 O   0  0  0  0  0  0
    6.7856   -0.6793   -0.2641 C   0  0  0  0  0  0
    4.4254   -1.9789   -1.1428 C   0  0  0  0  0  0
    2.2874    0.2116   -1.4538 H   0  0  0  0  0  0
    3.0678    1.4285   -0.4154 H   0  0  0  0  0  0
    1.1646    1.2923    1.1714 H   0  0  0  0  0  0
    1.0589    2.9525   -0.6445 H   0  0  0  0  0  0
    0.3590    1.7361   -1.7406 H   0  0  0  0  0  0
   -0.8946    2.7181    0.8637 H   0  0  0  0  0  0
   -1.4070    3.1857   -0.7749 H   0  0  0  0  0  0
   -1.1922    0.5183    1.6382 H   0  0  0  0  0  0
   -1.9356   -0.7216    0.6007 H   0  0  0  0  0  0
    0.0366   -0.6466   -0.9018 H   0  0  0  0  0  0
    0.5174   -1.0502    0.7647 H   0  0  0  0  0  0
   -3.1472    1.8928    1.2172 H   0  0  0  0  0  0
   -3.5837    2.3088   -0.4575 H   0  0  0  0  0  0
   -3.6116   -0.3167    2.1100 H   0  0  0  0  0  0
   -5.0354   -2.3216    1.9831 H   0  0  0  0  0  0
   -6.2706   -2.8255   -0.0866 H   0  0  0  0  0  0
   -6.0828   -1.3239   -2.0290 H   0  0  0  0  0  0
   -4.6627    0.6836   -1.9005 H   0  0  0  0  0  0
    3.1430   -0.2081    1.4460 H   0  0  0  0  0  0
    2.3626   -1.4251    0.4075 H   0  0  0  0  0  0
    7.5603   -0.0685    0.1994 H   0  0  0  0  0  0
    6.9812   -1.7317   -0.0585 H   0  0  0  0  0  0
    6.7877   -0.5130   -1.3413 H   0  0  0  0  0  0
    5.4688   -2.1134   -1.4280 H   0  0  0  0  0  0
    4.0366   -2.9125   -0.7363 H   0  0  0  0  0  0
    3.8431   -1.6938   -2.0191 H   0  0  0  0  0  0
  1  2  1  0  0  0
  1 16  1  0  0  0
  1 22  1  0  0  0
  1 23  1  0  0  0
  2  3  1  0  0  0
  2  8  1  0  0  0
  2 24  1  0  0  0
  3  4  1  0  0  0
  3 25  1  0  0  0
  3 26  1  0  0  0
  4  5  1  0  0  0
  4 27  1  0  0  0
  4 28  1  0  0  0
  5  6  1  0  0  0
  5  7  1  0  0  0
  5  9  1  0  0  0
  7  8  1  0  0  0
  7 29  1  0  0  0
  7 30  1  0  0  0
  8 31  1  0  0  0
  8 32  1  0  0  0
  9 10  1  0  0  0
  9 33  1  0  0  0
  9 34  1  0  0  0
 10 11  2  0  0  0
 10 15  1  0  0  0
 11 12  1  0  0  0
 11 35  1  0  0  0
 12 13  2  0  0  0
 12 36  1  0  0  0
 13 14  1  0  0  0
 13 37  1  0  0  0
 14 15  2  0  0  0
 14 38  1  0  0  0
 15 39  1  0  0  0
 16 17  1  0  0  0
 16 40  1  0  0  0
 16 41  1  0  0  0
 17 18  1  0  0  0
 17 21  1  0  0  0
 18 19  2  0  0  0
 18 20  1  0  0  0
 20 42  1  0  0  0
 20 43  1  0  0  0
 20 44  1  0  0  0
 21 45  1  0  0  0
 21 46  1  0  0  0
 21 47  1  0  0  0
M  CHG  1   5   1
M  END
>  <Activity>
6.18046

>  <set>
2

>  <Min_dist>
0.090909

>  <Avg_dist>
0.388508

$$$$
1-40
  Cerius2 12110214483D 1   1.00000                          
 
 51 53  0  0  0  0  0  0  0  0999 V2000
    1.8395    0.7723   -0.3772 C   0  0  0  0  0  0
    0.4326    1.1654    0.0778 C   0  0  0  0  0  0
   -0.2101    2.0749   -0.9734 C   0  0  0  0  0  0
   -1.6445    2.3995   -0.5506 C   0  0  0  0  0  0
   -2.4181    1.1572   -0.4374 N   0  3  0  0  0  0
   -2.3880    0.6621   -1.3161 H   0  0  0  0  0  0
   -1.8498    0.3111    0.6189 C   0  0  0  0  0  0
   -0.4234   -0.0939    0.2411 C   0  0  0  0  0  0
   -3.8125    1.4789   -0.1058 C   0  0  0  0  0  0
   -4.6081    0.2043    0.0107 C   0  0  0  0  0  0
   -4.7091   -0.4383    1.2305 C   0  0  0  0  0  0
   -5.4388   -1.6075    1.3374 C   0  0  0  0  0  0
   -6.0679   -2.1338    0.2247 C   0  0  0  0  0  0
   -5.9676   -1.4907   -0.9948 C   0  0  0  0  0  0
   -5.2415   -0.3192   -1.1008 C   0  0  0  0  0  0
    2.4802   -0.1362    0.6740 C   0  0  0  0  0  0
    3.8274   -0.5127    0.2383 N   0  0  0  0  0  0
    4.8432    0.2718    0.6002 C   0  0  0  0  0  0
    4.6057    1.2305    1.3040 O   0  0  0  0  0  0
    6.2658    0.0312    0.1833 C   0  0  0  0  0  0
    6.4285   -1.4101   -0.3059 C   0  0  0  0  0  0
    5.3083   -1.7108   -1.3091 C   0  0  0  0  0  0
    3.9739   -1.7242   -0.5587 C   0  0  0  0  0  0
    1.7791    0.2419   -1.3276 H   0  0  0  0  0  0
    2.4457    1.6698   -0.4999 H   0  0  0  0  0  0
    0.4916    1.6934    1.0296 H   0  0  0  0  0  0
    0.3630    2.9984   -1.0551 H   0  0  0  0  0  0
   -0.2211    1.5660   -1.9372 H   0  0  0  0  0  0
   -1.6324    2.9085    0.4131 H   0  0  0  0  0  0
   -2.1050    3.0470   -1.2968 H   0  0  0  0  0  0
   -1.8333    0.8646    1.5577 H   0  0  0  0  0  0
   -2.4619   -0.5832    0.7361 H   0  0  0  0  0  0
   -0.4387   -0.6478   -0.6975 H   0  0  0  0  0  0
   -0.0026   -0.7205    1.0275 H   0  0  0  0  0  0
   -3.8460    2.0161    0.8420 H   0  0  0  0  0  0
   -4.2384    2.1024   -0.8920 H   0  0  0  0  0  0
   -4.2176   -0.0271    2.0998 H   0  0  0  0  0  0
   -5.5171   -2.1099    2.2902 H   0  0  0  0  0  0
   -6.6374   -3.0476    0.3081 H   0  0  0  0  0  0
   -6.4589   -1.9021   -1.8642 H   0  0  0  0  0  0
   -5.1632    0.1833   -2.0536 H   0  0  0  0  0  0
    2.5407    0.3941    1.6243 H   0  0  0  0  0  0
    1.8740   -1.0337    0.7967 H   0  0  0  0  0  0
    6.5285    0.7184   -0.6210 H   0  0  0  0  0  0
    6.9261    0.2017    1.0336 H   0  0  0  0  0  0
    7.3972   -1.5254   -0.7921 H   0  0  0  0  0  0
    6.3577   -2.0947    0.5393 H   0  0  0  0  0  0
    5.2910   -0.9402   -2.0797 H   0  0  0  0  0  0
    5.4791   -2.6852   -1.7667 H   0  0  0  0  0  0
    3.9353   -2.5978    0.0921 H   0  0  0  0  0  0
    3.1566   -1.7781   -1.2779 H   0  0  0  0  0  0
  1  2  1  0  0  0
  1 16  1  0  0  0
  1 24  1  0  0  0
  1 25  1  0  0  0
  2  3  1  0  0  0
  2  8  1  0  0  0
  2 26  1  0  0  0
  3  4  1  0  0  0
  3 27  1  0  0  0
  3 28  1  0  0  0
  4  5  1  0  0  0
  4 29  1  0  0  0
  4 30  1  0  0  0
  5  6  1  0  0  0
  5  7  1  0  0  0
  5  9  1  0  0  0
  7  8  1  0  0  0
  7 31  1  0  0  0
  7 32  1  0  0  0
  8 33  1  0  0  0
  8 34  1  0  0  0
  9 10  1  0  0  0
  9 35  1  0  0  0
  9 36  1  0  0  0
 10 11  2  0  0  0
 10 15  1  0  0  0
 11 12  1  0  0  0
 11 37  1  0  0  0
 12 13  2  0  0  0
 12 38  1  0  0  0
 13 14  1  0  0  0
 13 39  1  0  0  0
 14 15  2  0  0  0
 14 40  1  0  0  0
 15 41  1  0  0  0
 16 17  1  0  0  0
 16 42  1  0  0  0
 16 43  1  0  0  0
 17 18  1  0  0  0
 17 23  1  0  0  0
 18 19  2  0  0  0
 18 20  1  0  0  0
 20 21  1  0  0  0
 20 44  1  0  0  0
 20 45  1  0  0  0
 21 22  1  0  0  0
 21 46  1  0  0  0
 21 47  1  0  0  0
 22 23  1  0  0  0
 22 48  1  0  0  0
 22 49  1  0  0  0
 23 50  1  0  0  0
 23 51  1  0  0  0
M  CHG  1   5   1
M  END
>  <Activity>
6.56864

>  <set>
2

>  <Min_dist>
0.1875

>  <Avg_dist>
0.454807

$$$$
2-23
  Cerius2 12110214483D 1   1.00000                          
 
 77 81  0  0  0  0  0  0  0  0999 V2000
   -2.9521   -1.3292   -1.1765 C   0  0  0  0  0  0
   -4.1806   -0.5061   -1.5694 C   0  0  0  0  0  0
   -5.2717   -1.4380   -2.1044 C   0  0  0  0  0  0
   -6.5247   -0.6187   -2.4206 C   0  0  0  0  0  0
   -7.0006    0.0448   -1.2008 N   0  3  0  0  0  0
   -7.1744   -0.6481   -0.4882 H   0  0  0  0  0  0
   -5.9879    0.9933   -0.7222 C   0  0  0  0  0  0
   -4.7142    0.2360   -0.3406 C   0  0  0  0  0  0
   -8.2456    0.7680   -1.4925 C   0  0  0  0  0  0
   -8.7355    1.4497   -0.2409 C   0  0  0  0  0  0
   -8.3270    2.7380    0.0495 C   0  0  0  0  0  0
   -8.7763    3.3633    1.1975 C   0  0  0  0  0  0
   -9.6345    2.7005    2.0549 C   0  0  0  0  0  0
  -10.0437    1.4125    1.7640 C   0  0  0  0  0  0
   -9.5978    0.7888    0.6138 C   0  0  0  0  0  0
   -1.8631   -0.3967   -0.6423 C   0  0  0  0  0  0
   -0.6868   -1.1848   -0.2661 N   0  0  0  0  0  0
    0.2806   -1.4265   -1.1728 C   0  0  0  0  0  0
   -0.0070   -1.8888   -2.2598 O   0  0  0  0  0  0
    1.6911   -1.1295   -0.8457 C   0  0  0  0  0  0
    2.7088   -1.5071   -1.7234 C   0  0  0  0  0  0
    4.0232   -1.2269   -1.4121 C   0  0  0  0  0  0
    4.3338   -0.5732   -0.2328 C   0  0  0  0  0  0
    3.3299   -0.1963    0.6416 C   0  0  0  0  0  0
    2.0110   -0.4652    0.3396 C   0  0  0  0  0  0
    6.0153   -0.2198    0.1574 S   0  0  0  0  0  0
    6.0035   -0.1607    1.5772 O   0  0  0  0  0  0
    6.7218   -1.2291   -0.5505 O   0  0  0  0  0  0
    6.2745    1.4183   -0.5775 C   0  0  0  0  0  0
    7.6913    1.8645   -0.3232 C   0  0  0  0  0  0
    8.6870    1.5548   -1.2308 C   0  0  0  0  0  0
    9.9866    1.9640   -0.9974 C   0  0  0  0  0  0
   10.2905    2.6832    0.1433 C   0  0  0  0  0  0
    9.2947    2.9937    1.0504 C   0  0  0  0  0  0
    7.9943    2.5882    0.8150 C   0  0  0  0  0  0
   -0.5677   -1.6863    1.0340 C   0  0  0  0  0  0
    0.4785   -2.5407    1.3572 C   0  0  0  0  0  0
    0.5935   -3.0338    2.6421 C   0  0  0  0  0  0
   -0.3315   -2.6777    3.6064 C   0  0  0  0  0  0
   -1.3746   -1.8276    3.2877 C   0  0  0  0  0  0
   -1.4921   -1.3264    2.0061 C   0  0  0  0  0  0
   -3.2275   -2.0466   -0.4035 H   0  0  0  0  0  0
   -2.5774   -1.8624   -2.0502 H   0  0  0  0  0  0
   -3.9057    0.2137   -2.3404 H   0  0  0  0  0  0
   -4.9189   -1.9284   -3.0117 H   0  0  0  0  0  0
   -5.5089   -2.1902   -1.3520 H   0  0  0  0  0  0
   -6.2864    0.1330   -3.1731 H   0  0  0  0  0  0
   -7.3035   -1.2791   -2.8019 H   0  0  0  0  0  0
   -5.7610    1.7106   -1.5110 H   0  0  0  0  0  0
   -6.3703    1.5230    0.1503 H   0  0  0  0  0  0
   -4.9399   -0.4815    0.4483 H   0  0  0  0  0  0
   -3.9629    0.9422    0.0127 H   0  0  0  0  0  0
   -8.0596    1.5150   -2.2641 H   0  0  0  0  0  0
   -9.0010    0.0644   -1.8424 H   0  0  0  0  0  0
   -7.6565    3.2558   -0.6204 H   0  0  0  0  0  0
   -8.4566    4.3696    1.4247 H   0  0  0  0  0  0
   -9.9850    3.1888    2.9522 H   0  0  0  0  0  0
  -10.7139    0.8946    2.4341 H   0  0  0  0  0  0
   -9.9175   -0.2174    0.3865 H   0  0  0  0  0  0
   -1.5877    0.3207   -1.4153 H   0  0  0  0  0  0
   -2.2378    0.1365    0.2315 H   0  0  0  0  0  0
    2.4677   -2.0177   -2.6441 H   0  0  0  0  0  0
    4.8115   -1.5187   -2.0901 H   0  0  0  0  0  0
    3.5791    0.3137    1.5604 H   0  0  0  0  0  0
    1.2283   -0.1705    1.0229 H   0  0  0  0  0  0
    6.0971    1.3668   -1.6517 H   0  0  0  0  0  0
    5.5830    2.1314   -0.1288 H   0  0  0  0  0  0
    8.4495    0.9929   -2.1220 H   0  0  0  0  0  0
   10.7646    1.7214   -1.7062 H   0  0  0  0  0  0
   11.3060    3.0023    0.3259 H   0  0  0  0  0  0
    9.5322    3.5553    1.9418 H   0  0  0  0  0  0
    7.2163    2.8308    1.5237 H   0  0  0  0  0  0
    1.2011   -2.8195    0.6045 H   0  0  0  0  0  0
    1.4066   -3.6985    2.8940 H   0  0  0  0  0  0
   -0.2393   -3.0647    4.6104 H   0  0  0  0  0  0
   -2.0956   -1.5517    4.0430 H   0  0  0  0  0  0
   -2.3069   -0.6625    1.7579 H   0  0  0  0  0  0
  1  2  1  0  0  0
  1 16  1  0  0  0
  1 42  1  0  0  0
  1 43  1  0  0  0
  2  3  1  0  0  0
  2  8  1  0  0  0
  2 44  1  0  0  0
  3  4  1  0  0  0
  3 45  1  0  0  0
  3 46  1  0  0  0
  4  5  1  0  0  0
  4 47  1  0  0  0
  4 48  1  0  0  0
  5  6  1  0  0  0
  5  7  1  0  0  0
  5  9  1  0  0  0
  7  8  1  0  0  0
  7 49  1  0  0  0
  7 50  1  0  0  0
  8 51  1  0  0  0
  8 52  1  0  0  0
  9 10  1  0  0  0
  9 53  1  0  0  0
  9 54  1  0  0  0
 10 11  2  0  0  0
 10 15  1  0  0  0
 11 12  1  0  0  0
 11 55  1  0  0  0
 12 13  2  0  0  0
 12 56  1  0  0  0
 13 14  1  0  0  0
 13 57  1  0  0  0
 14 15  2  0  0  0
 14 58  1  0  0  0
 15 59  1  0  0  0
 16 17  1  0  0  0
 16 60  1  0  0  0
 16 61  1  0  0  0
 17 18  1  0  0  0
 17 36  1  0  0  0
 18 19  2  0  0  0
 18 20  1  0  0  0
 20 21  2  0  0  0
 20 25  1  0  0  0
 21 22  1  0  0  0
 21 62  1  0  0  0
 22 23  2  0  0  0
 22 63  1  0  0  0
 23 24  1  0  0  0
 23 26  1  0  0  0
 24 25  2  0  0  0
 24 64  1  0  0  0
 25 65  1  0  0  0
 26 27  2  0  0  0
 26 28  2  0  0  0
 26 29  1  0  0  0
 29 30  1  0  0  0
 29 66  1  0  0  0
 29 67  1  0  0  0
 30 31  2  0  0  0
 30 35  1  0  0  0
 31 32  1  0  0  0
 31 68  1  0  0  0
 32 33  2  0  0  0
 32 69  1  0  0  0
 33 34  1  0  0  0
 33 70  1  0  0  0
 34 35  2  0  0  0
 34 71  1  0  0  0
 35 72  1  0  0  0
 36 37  2  0  0  0
 36 41  1  0  0  0
 37 38  1  0  0  0
 37 73  1  0  0  0
 38 39  2  0  0  0
 38 74  1  0  0  0
 39 40  1  0  0  0
 39 75  1  0  0  0
 40 41  2  0  0  0
 40 76  1  0  0  0
 41 77  1  0  0  0
M  CHG  1   5   1
M  END
>  <Activity>
9.22185

>  <set>
2

>  <Min_dist>
0.065934

>  <Avg_dist>
0.456435

$$$$
2-29
  Cerius2 12110214483D 1   1.00000                          
 
 56 58  0  0  0  0  0  0  0  0999 V2000
    1.7367   -1.1597    0.0594 C   0  0  0  0  0  0
    0.3256   -1.4078   -0.4774 C   0  0  0  0  0  0
   -0.1702   -2.7763   -0.0011 C   0  0  0  0  0  0
   -1.6104   -2.9840   -0.4745 C   0  0  0  0  0  0
   -2.4686   -1.9306    0.0808 N   0  3  0  0  0  0
   -2.3990   -1.9373    1.0873 H   0  0  0  0  0  0
   -2.0433   -0.6215   -0.4289 C   0  0  0  0  0  0
   -0.6197   -0.3228    0.0463 C   0  0  0  0  0  0
   -3.8618   -2.1774   -0.3140 C   0  0  0  0  0  0
   -4.7442   -1.0965    0.2555 C   0  0  0  0  0  0
   -4.9848    0.0538   -0.4719 C   0  0  0  0  0  0
   -5.7943    1.0454    0.0506 C   0  0  0  0  0  0
   -6.3633    0.8861    1.3000 C   0  0  0  0  0  0
   -6.1234   -0.2650    2.0272 C   0  0  0  0  0  0
   -5.3177   -1.2582    1.5031 C   0  0  0  0  0  0
   -6.0511    2.2779   -0.7279 N   0  3  0  0  0  0
   -6.7642    3.1514   -0.2677 O   0  0  0  0  0  0
   -5.5493    2.4184   -1.8288 O   0  5  0  0  0  0
    2.2305    0.2078   -0.4173 C   0  0  0  0  0  0
    3.5816    0.4454    0.0967 N   0  0  0  0  0  0
    4.6539    0.0588   -0.6225 C   0  0  0  0  0  0
    4.5017   -0.5850   -1.6423 O   0  0  0  0  0  0
    6.0152    0.4177   -0.1711 C   0  0  0  0  0  0
    7.0892   -0.4330   -0.4378 C   0  0  0  0  0  0
    8.3570   -0.0919   -0.0142 C   0  0  0  0  0  0
    8.5651    1.0903    0.6739 C   0  0  0  0  0  0
    7.5049    1.9380    0.9415 C   0  0  0  0  0  0
    6.2330    1.6115    0.5185 C   0  0  0  0  0  0
    3.7672    1.1033    1.3925 C   0  0  0  0  0  0
    1.7197   -1.1802    1.1491 H   0  0  0  0  0  0
    2.4071   -1.9365   -0.3083 H   0  0  0  0  0  0
    0.3408   -1.3847   -1.5670 H   0  0  0  0  0  0
    0.4657   -3.5583   -0.4159 H   0  0  0  0  0  0
   -0.1354   -2.8173    1.0876 H   0  0  0  0  0  0
   -1.6439   -2.9431   -1.5633 H   0  0  0  0  0  0
   -1.9664   -3.9575   -0.1373 H   0  0  0  0  0  0
   -2.0676   -0.6309   -1.5186 H   0  0  0  0  0  0
   -2.7189    0.1493   -0.0579 H   0  0  0  0  0  0
   -0.5943   -0.3129    1.1360 H   0  0  0  0  0  0
   -0.3052    0.6488   -0.3346 H   0  0  0  0  0  0
   -3.9377   -2.1730   -1.4013 H   0  0  0  0  0  0
   -4.1817   -3.1466    0.0686 H   0  0  0  0  0  0
   -4.5401    0.1783   -1.4482 H   0  0  0  0  0  0
   -6.9951    1.6610    1.7085 H   0  0  0  0  0  0
   -6.5678   -0.3893    3.0037 H   0  0  0  0  0  0
   -5.1303   -2.1574    2.0711 H   0  0  0  0  0  0
    2.2474    0.2283   -1.5069 H   0  0  0  0  0  0
    1.5600    0.9846   -0.0496 H   0  0  0  0  0  0
    6.9279   -1.3564   -0.9742 H   0  0  0  0  0  0
    9.1889   -0.7492   -0.2199 H   0  0  0  0  0  0
    9.5595    1.3523    1.0040 H   0  0  0  0  0  0
    7.6741    2.8593    1.4791 H   0  0  0  0  0  0
    5.4063    2.2743    0.7277 H   0  0  0  0  0  0
    4.6809    0.7353    1.8592 H   0  0  0  0  0  0
    3.8428    2.1807    1.2454 H   0  0  0  0  0  0
    2.9160    0.8834    2.0368 H   0  0  0  0  0  0
  1  2  1  0  0  0
  1 19  1  0  0  0
  1 30  1  0  0  0
  1 31  1  0  0  0
  2  3  1  0  0  0
  2  8  1  0  0  0
  2 32  1  0  0  0
  3  4  1  0  0  0
  3 33  1  0  0  0
  3 34  1  0  0  0
  4  5  1  0  0  0
  4 35  1  0  0  0
  4 36  1  0  0  0
  5  6  1  0  0  0
  5  7  1  0  0  0
  5  9  1  0  0  0
  7  8  1  0  0  0
  7 37  1  0  0  0
  7 38  1  0  0  0
  8 39  1  0  0  0
  8 40  1  0  0  0
  9 10  1  0  0  0
  9 41  1  0  0  0
  9 42  1  0  0  0
 10 11  2  0  0  0
 10 15  1  0  0  0
 11 12  1  0  0  0
 11 43  1  0  0  0
 12 13  2  0  0  0
 12 16  1  0  0  0
 13 14  1  0  0  0
 13 44  1  0  0  0
 14 15  2  0  0  0
 14 45  1  0  0  0
 15 46  1  0  0  0
 16 17  2  0  0  0
 16 18  1  0  0  0
 19 20  1  0  0  0
 19 47  1  0  0  0
 19 48  1  0  0  0
 20 21  1  0  0  0
 20 29  1  0  0  0
 21 22  2  0  0  0
 21 23  1  0  0  0
 23 24  2  0  0  0
 23 28  1  0  0  0
 24 25  1  0  0  0
 24 49  1  0  0  0
 25 26  2  0  0  0
 25 50  1  0  0  0
 26 27  1  0  0  0
 26 51  1  0  0  0
 27 28  2  0  0  0
 27 52  1  0  0  0
 28 53  1  0  0  0
 29 54  1  0  0  0
 29 55  1  0  0  0
 29 56  1  0  0  0
M  CHG  3   5   1  16   1  18  -1
M  END
>  <Activity>
6.4318

>  <set>
2

>  <Min_dist>
0.081395

>  <Avg_dist>
0.42661

$$$$
2-31
  Cerius2 12110214483D 1   1.00000                          
 
 57 59  0  0  0  0  0  0  0  0999 V2000
    1.4757   -0.6433    0.3516 C   0  0  0  0  0  0
    0.0223   -0.7830   -0.1055 C   0  0  0  0  0  0
   -0.6812   -1.8466    0.7424 C   0  0  0  0  0  0
   -2.1538   -1.9249    0.3338 C   0  0  0  0  0  0
   -2.7950   -0.6222    0.5493 N   0  3  0  0  0  0
   -2.6867   -0.3509    1.5151 H   0  0  0  0  0  0
   -2.1723    0.3884   -0.3141 C   0  0  0  0  0  0
   -0.7005    0.5556    0.0696 C   0  0  0  0  0  0
   -4.2249   -0.7228    0.2279 C   0  0  0  0  0  0
   -4.8947    0.6344    0.4521 C   0  0  0  0  0  0
   -6.3616    0.5312    0.1224 C   0  0  0  0  0  0
   -7.2680    0.1811    1.1056 C   0  0  0  0  0  0
   -8.6135    0.0865    0.8031 C   0  0  0  0  0  0
   -9.0526    0.3423   -0.4825 C   0  0  0  0  0  0
   -8.1463    0.6932   -1.4654 C   0  0  0  0  0  0
   -6.8013    0.7921   -1.1619 C   0  0  0  0  0  0
    2.1772    0.4195   -0.4965 C   0  0  0  0  0  0
    3.5689    0.5533   -0.0587 N   0  0  0  0  0  0
    4.5286   -0.2066   -0.6225 C   0  0  0  0  0  0
    4.2267   -1.0795   -1.4128 O   0  0  0  0  0  0
    5.9486    0.0215   -0.2799 C   0  0  0  0  0  0
    6.8487   -1.0452   -0.2757 C   0  0  0  0  0  0
    8.1725   -0.8255    0.0445 C   0  0  0  0  0  0
    8.6084    0.4488    0.3615 C   0  0  0  0  0  0
    7.7213    1.5106    0.3593 C   0  0  0  0  0  0
    6.3961    1.3055    0.0353 C   0  0  0  0  0  0
    3.9173    1.5131    0.9918 C   0  0  0  0  0  0
    1.4999   -0.3458    1.3999 H   0  0  0  0  0  0
    1.9873   -1.5985    0.2331 H   0  0  0  0  0  0
   -0.0031   -1.0778   -1.1546 H   0  0  0  0  0  0
   -0.2065   -2.8143    0.5800 H   0  0  0  0  0  0
   -0.6097   -1.5777    1.7963 H   0  0  0  0  0  0
   -2.2241   -2.1940   -0.7201 H   0  0  0  0  0  0
   -2.6576   -2.6813    0.9355 H   0  0  0  0  0  0
   -2.2423    0.0699   -1.3542 H   0  0  0  0  0  0
   -2.6899    1.3397   -0.1907 H   0  0  0  0  0  0
   -0.6294    0.8744    1.1095 H   0  0  0  0  0  0
   -0.2396    1.3051   -0.5738 H   0  0  0  0  0  0
   -4.3430   -1.0185   -0.8145 H   0  0  0  0  0  0
   -4.6905   -1.4686    0.8722 H   0  0  0  0  0  0
   -4.7766    0.9301    1.4946 H   0  0  0  0  0  0
   -4.4291    1.3802   -0.1921 H   0  0  0  0  0  0
   -6.9250   -0.0187    2.1099 H   0  0  0  0  0  0
   -9.3217   -0.1877    1.5711 H   0  0  0  0  0  0
  -10.1038    0.2676   -0.7190 H   0  0  0  0  0  0
   -8.4893    0.8927   -2.4699 H   0  0  0  0  0  0
   -6.0932    1.0663   -1.9299 H   0  0  0  0  0  0
    2.1530    0.1220   -1.5448 H   0  0  0  0  0  0
    1.6656    1.3747   -0.3780 H   0  0  0  0  0  0
    6.5096   -2.0405   -0.5223 H   0  0  0  0  0  0
    8.8701   -1.6500    0.0480 H   0  0  0  0  0  0
    9.6456    0.6154    0.6122 H   0  0  0  0  0  0
    8.0679    2.5028    0.6077 H   0  0  0  0  0  0
    5.7046    2.1351    0.0336 H   0  0  0  0  0  0
    4.7724    1.1402    1.5555 H   0  0  0  0  0  0
    4.1707    2.4715    0.5388 H   0  0  0  0  0  0
    3.0679    1.6416    1.6627 H   0  0  0  0  0  0
  1  2  1  0  0  0
  1 17  1  0  0  0
  1 28  1  0  0  0
  1 29  1  0  0  0
  2  3  1  0  0  0
  2  8  1  0  0  0
  2 30  1  0  0  0
  3  4  1  0  0  0
  3 31  1  0  0  0
  3 32  1  0  0  0
  4  5  1  0  0  0
  4 33  1  0  0  0
  4 34  1  0  0  0
  5  6  1  0  0  0
  5  7  1  0  0  0
  5  9  1  0  0  0
  7  8  1  0  0  0
  7 35  1  0  0  0
  7 36  1  0  0  0
  8 37  1  0  0  0
  8 38  1  0  0  0
  9 10  1  0  0  0
  9 39  1  0  0  0
  9 40  1  0  0  0
 10 11  1  0  0  0
 10 41  1  0  0  0
 10 42  1  0  0  0
 11 12  2  0  0  0
 11 16  1  0  0  0
 12 13  1  0  0  0
 12 43  1  0  0  0
 13 14  2  0  0  0
 13 44  1  0  0  0
 14 15  1  0  0  0
 14 45  1  0  0  0
 15 16  2  0  0  0
 15 46  1  0  0  0
 16 47  1  0  0  0
 17 18  1  0  0  0
 17 48  1  0  0  0
 17 49  1  0  0  0
 18 19  1  0  0  0
 18 27  1  0  0  0
 19 20  2  0  0  0
 19 21  1  0  0  0
 21 22  2  0  0  0
 21 26  1  0  0  0
 22 23  1  0  0  0
 22 50  1  0  0  0
 23 24  2  0  0  0
 23 51  1  0  0  0
 24 25  1  0  0  0
 24 52  1  0  0  0
 25 26  2  0  0  0
 25 53  1  0  0  0
 26 54  1  0  0  0
 27 55  1  0  0  0
 27 56  1  0  0  0
 27 57  1  0  0  0
M  CHG  1   5   1
M  END
>  <Activity>
4.88606

>  <set>
2

>  <Min_dist>
0.1

>  <Avg_dist>
0.404077

$$$$
2-32
  Cerius2 12110214483D 1   1.00000                          
BGF file created by Open Babel 1.100.1
 58 60  0  0  0  0  0  0  0  0999 V2000
    5.1741   63.7666   67.2298 C   0  0  0  0  0  0
    4.3855   65.0953   67.1679 C   0  0  0  0  0  0
    5.2770   66.2628   67.6398 C   0  0  0  0  0  0
    4.5857   67.6253   67.4818 C   0  0  0  0  0  0
    4.1925   67.8073   66.0805 N   0  3  0  0  0  0
    3.1996   66.8221   65.6392 C   0  0  0  0  0  0
    3.8229   65.4102   65.7568 C   0  0  0  0  0  0
    3.7168   69.5234   64.2657 C   0  0  0  0  0  0
    4.5119   70.0560   61.9851 C   0  0  0  0  0  0
    3.3832   70.7168   61.4777 C   0  0  0  0  0  0
    3.2215   70.8363   60.0926 C   0  0  0  0  0  0
    4.1790   70.3030   59.2182 C   0  0  0  0  0  0
    5.3088   69.6536   59.7341 C   0  0  0  0  0  0
    5.4791   69.5312   61.1180 C   0  0  0  0  0  0
    5.6679   63.6802   68.2153 H   0  0  0  0  0  0
    5.9893   63.7965   66.4837 H   0  0  0  0  0  0
    3.5310   65.0411   67.8689 H   0  0  0  0  0  0
    5.5824   66.1197   68.6906 H   0  0  0  0  0  0
    6.2068   66.2717   67.0398 H   0  0  0  0  0  0
    3.7145   67.7004   68.1590 H   0  0  0  0  0  0
    5.2829   68.4214   67.7923 H   0  0  0  0  0  0
    2.2727   66.8895   66.2384 H   0  0  0  0  0  0
    2.9028   66.9965   64.5928 H   0  0  0  0  0  0
    4.6504   65.3441   65.0247 H   0  0  0  0  0  0
    3.0777   64.6579   65.4492 H   0  0  0  0  0  0
    2.7218   69.3381   63.8119 H   0  0  0  0  0  0
    2.6334   71.1538   62.1616 H   0  0  0  0  0  0
    2.3375   71.3607   59.6795 H   0  0  0  0  0  0
    4.0472   70.4030   58.1233 H   0  0  0  0  0  0
    6.0685   69.2419   59.0411 H   0  0  0  0  0  0
    4.3640   62.4886   66.9831 C   0  0  0  0  0  0
    3.3310   62.2808   67.9859 N   0  0  0  0  0  0
    3.5065   61.3987   69.0541 C   0  0  0  0  0  0
    4.5000   60.6868   69.1648 O   0  0  0  0  0  0
    2.3360   61.2610   69.9910 C   0  0  0  0  0  0
    2.1816   60.0574   70.7052 C   0  0  0  0  0  0
    1.0937   59.8814   71.5627 C   0  0  0  0  0  0
    0.1451   60.9030   71.7211 C   0  0  0  0  0  0
    0.3027   62.1039   71.0182 C   0  0  0  0  0  0
    1.3932   62.2913   70.1618 C   0  0  0  0  0  0
    3.8980   62.5103   65.9824 H   0  0  0  0  0  0
    5.0400   61.6176   66.9795 H   0  0  0  0  0  0
    1.9897   62.5131   67.4053 C   0  0  0  0  0  0
    2.9204   59.2427   70.5798 H   0  0  0  0  0  0
    0.9794   58.9301   72.1176 H   0  0  0  0  0  0
   -0.7170   60.7611   72.4002 H   0  0  0  0  0  0
   -0.4380   62.9164   71.1493 H   0  0  0  0  0  0
    1.5043   63.2620   69.6464 H   0  0  0  0  0  0
    1.2417   61.8253   67.8173 H   0  0  0  0  0  0
    1.6688   63.5555   67.5482 H   0  0  0  0  0  0
    1.9674   62.3016   66.3226 H   0  0  0  0  0  0
    6.3696   69.0167   61.5238 H   0  0  0  0  0  0
    4.7219   69.9013   63.4442 C   0  0  0  0  0  0
    5.7441   70.0685   63.8316 H   0  0  0  0  0  0
    3.8317   69.2492   65.7240 C   0  0  0  0  0  0
    4.9332   67.6193   65.6051 H   0  0  0  0  0  0
    2.8968   69.4836   66.2512 H   0  0  0  0  0  0
    4.6278   69.8725   66.1557 H   0  0  0  0  0  0
  1  2  1  0  0  0
  1 15  1  0  0  0
  1 16  1  0  0  0
  1 31  1  0  0  0
  2  3  1  0  0  0
  2  7  1  0  0  0
  2 17  1  0  0  0
  3  4  1  0  0  0
  3 18  1  0  0  0
  3 19  1  0  0  0
  4  5  1  0  0  0
  4 20  1  0  0  0
  4 21  1  0  0  0
  5  6  1  0  0  0
  5 55  1  0  0  0
  5 56  1  0  0  0
  6  7  1  0  0  0
  6 22  1  0  0  0
  6 23  1  0  0  0
  7 24  1  0  0  0
  7 25  1  0  0  0
  8 26  1  0  0  0
  8 53  2  0  0  0
  8 55  1  0  0  0
  9 10  1  0  0  0
  9 14  2  0  0  0
  9 53  1  0  0  0
 10 11  2  0  0  0
 10 27  1  0  0  0
 11 12  1  0  0  0
 11 28  1  0  0  0
 12 13  2  0  0  0
 12 29  1  0  0  0
 13 14  1  0  0  0
 13 30  1  0  0  0
 14 52  1  0  0  0
 31 32  1  0  0  0
 31 41  1  0  0  0
 31 42  1  0  0  0
 32 33  1  0  0  0
 32 43  1  0  0  0
 33 34  2  0  0  0
 33 35  1  0  0  0
 35 36  2  0  0  0
 35 40  1  0  0  0
 36 37  1  0  0  0
 36 44  1  0  0  0
 37 38  2  0  0  0
 37 45  1  0  0  0
 38 39  1  0  0  0
 38 46  1  0  0  0
 39 40  2  0  0  0
 39 47  1  0  0  0
 40 48  1  0  0  0
 43 49  1  0  0  0
 43 50  1  0  0  0
 43 51  1  0  0  0
 53 54  1  0  0  0
 55 57  1  0  0  0
 55 58  1  0  0  0
M  CHG  1   5   1
M  END
>  <Activity>
4.26761

>  <set>
2

>  <Min_dist>
0.192308

>  <Avg_dist>
0.467498

$$$$
2-36
  Cerius2 12110214483D 1   1.00000                          
Structure written by Cerius2 SD Exporter
 68 72  0  0  0  0  0  0  0  0999 V2000
    1.0160    0.7190   -0.4076 C   0  0  0  0  0  0
   -0.3851    1.1309    0.0486 C   0  0  0  0  0  0
   -1.0868    1.8945   -1.0783 C   0  0  0  0  0  0
   -2.5146    2.2339   -0.6450 C   0  0  0  0  0  0
   -3.2501    0.9963   -0.3586 N   0  3  0  0  0  0
   -3.2358    0.4015   -1.1735 H   0  0  0  0  0  0
   -2.6244    0.2946    0.7686 C   0  0  0  0  0  0
   -1.2008   -0.1194    0.3898 C   0  0  0  0  0  0
   -4.6409    1.3230   -0.0170 C   0  0  0  0  0  0
    1.7156   -0.0436    0.7193 C   0  0  0  0  0  0
    3.0572   -0.4380    0.2824 N   0  0  0  0  0  0
    4.1038    0.3843    0.4942 C   0  0  0  0  0  0
    3.9201    1.4980    0.9454 O   0  0  0  0  0  0
    5.4753   -0.0681    0.1776 C   0  0  0  0  0  0
    6.4364    0.8512   -0.2458 C   0  0  0  0  0  0
    7.7145    0.4225   -0.5391 C   0  0  0  0  0  0
    8.0443   -0.9154   -0.4148 C   0  0  0  0  0  0
    7.0963   -1.8318    0.0045 C   0  0  0  0  0  0
    5.8162   -1.4154    0.3065 C   0  0  0  0  0  0
    3.2612   -1.7263   -0.3846 C   0  0  0  0  0  0
    0.9384    0.0786   -1.2862 H   0  0  0  0  0  0
    1.5934    1.6093   -0.6568 H   0  0  0  0  0  0
   -0.3088    1.7692    0.9289 H   0  0  0  0  0  0
   -0.5418    2.8147   -1.2887 H   0  0  0  0  0  0
   -1.1159    1.2748   -1.9746 H   0  0  0  0  0  0
   -2.4842    2.8537    0.2511 H   0  0  0  0  0  0
   -3.0169    2.7777   -1.4450 H   0  0  0  0  0  0
   -2.5917    0.9557    1.6346 H   0  0  0  0  0  0
   -3.2078   -0.5933    1.0123 H   0  0  0  0  0  0
   -1.2324   -0.7809   -0.4761 H   0  0  0  0  0  0
   -0.7374   -0.6387    1.2286 H   0  0  0  0  0  0
   -4.6574    1.9678    0.8617 H   0  0  0  0  0  0
   -5.1093    1.8390   -0.8551 H   0  0  0  0  0  0
    1.7933    0.5968    1.5978 H   0  0  0  0  0  0
    1.1383   -0.9339    0.9685 H   0  0  0  0  0  0
    6.1800    1.8957   -0.3440 H   0  0  0  0  0  0
    8.4591    1.1328   -0.8669 H   0  0  0  0  0  0
    9.0460   -1.2459   -0.6463 H   0  0  0  0  0  0
    7.3601   -2.8748    0.0995 H   0  0  0  0  0  0
    5.0772   -2.1317    0.6340 H   0  0  0  0  0  0
    4.0902   -1.6443   -1.0875 H   0  0  0  0  0  0
    3.4901   -2.4887    0.3600 H   0  0  0  0  0  0
    2.3549   -2.0044   -0.9226 H   0  0  0  0  0  0
   -5.7042    0.2057    0.2935 C   0  0  0  0  0  0
   -7.0818    0.9472    0.0881 C   0  0  0  0  0  0
   -8.2980    0.0170    0.3176 C   0  0  0  0  0  0
   -8.2716   -0.5112    1.7688 C   0  0  0  0  0  0
   -6.9468   -1.2718    2.0022 C   0  0  0  0  0  0
   -5.7410   -0.3236    1.7682 C   0  0  0  0  0  0
   -7.1501    1.8147    0.7724 H   0  0  0  0  0  0
   -9.2298    0.5861    0.1422 H   0  0  0  0  0  0
   -6.9155   -1.6437    3.0438 H   0  0  0  0  0  0
   -5.8046    0.5266    2.4736 H   0  0  0  0  0  0
   -7.1569    1.3595   -0.9362 H   0  0  0  0  0  0
   -8.3705    0.3235    2.4863 H   0  0  0  0  0  0
   -9.1348   -1.1765    1.9544 H   0  0  0  0  0  0
   -4.8346   -0.8770    2.0573 H   0  0  0  0  0  0
   -5.6906   -1.0068   -0.6842 C   0  0  0  0  0  0
   -6.8974   -1.9480   -0.4336 C   0  0  0  0  0  0
   -6.8603   -2.4685    1.0237 C   0  0  0  0  0  0
   -8.2196   -1.1763   -0.6650 C   0  0  0  0  0  0
   -5.7161   -0.6541   -1.7322 H   0  0  0  0  0  0
   -4.7556   -1.5867   -0.5818 H   0  0  0  0  0  0
   -6.8430   -2.8032   -1.1331 H   0  0  0  0  0  0
   -5.9380   -3.0497    1.2046 H   0  0  0  0  0  0
   -7.6996   -3.1666    1.2004 H   0  0  0  0  0  0
   -9.0849   -1.8492   -0.5205 H   0  0  0  0  0  0
   -8.2829   -0.8207   -1.7094 H   0  0  0  0  0  0
  1  2  1  0  0  0
  1 10  1  0  0  0
  1 21  1  0  0  0
  1 22  1  0  0  0
  2  3  1  0  0  0
  2  8  1  0  0  0
  2 23  1  0  0  0
  3  4  1  0  0  0
  3 24  1  0  0  0
  3 25  1  0  0  0
  4  5  1  0  0  0
  4 26  1  0  0  0
  4 27  1  0  0  0
  5  6  1  0  0  0
  5  7  1  0  0  0
  5  9  1  0  0  0
  7  8  1  0  0  0
  7 28  1  0  0  0
  7 29  1  0  0  0
  8 30  1  0  0  0
  8 31  1  0  0  0
  9 32  1  0  0  0
  9 33  1  0  0  0
 10 11  1  0  0  0
 10 34  1  0  0  0
 10 35  1  0  0  0
 11 12  1  0  0  0
 11 20  1  0  0  0
 12 13  2  0  0  0
 12 14  1  0  0  0
 14 15  2  0  0  0
 14 19  1  0  0  0
 15 16  1  0  0  0
 15 36  1  0  0  0
 16 17  2  0  0  0
 16 37  1  0  0  0
 17 18  1  0  0  0
 17 38  1  0  0  0
 18 19  2  0  0  0
 18 39  1  0  0  0
 19 40  1  0  0  0
 20 41  1  0  0  0
 20 42  1  0  0  0
 20 43  1  0  0  0
 44  9  1  0  0  0
 44 45  1  0  0  0
 44 49  1  0  0  0
 44 58  1  0  0  0
 45 46  1  0  0  0
 45 50  1  0  0  0
 45 54  1  0  0  0
 46 47  1  0  0  0
 46 51  1  0  0  0
 46 61  1  0  0  0
 47 48  1  0  0  0
 47 55  1  0  0  0
 47 56  1  0  0  0
 48 49  1  0  0  0
 48 52  1  0  0  0
 48 60  1  0  0  0
 49 53  1  0  0  0
 49 57  1  0  0  0
 58 59  1  0  0  0
 58 62  1  0  0  0
 58 63  1  0  0  0
 59 60  1  0  0  0
 59 61  1  0  0  0
 59 64  1  0  0  0
 60 65  1  0  0  0
 60 66  1  0  0  0
 61 67  1  0  0  0
 61 68  1  0  0  0
M  CHG  1   5   1
M  END
>  <Activity>
4.61979

>  <set>
2

>  <Min_dist>
0.083333

>  <Avg_dist>
0.403194

$$$$
2-3B
  Cerius2 12110214483D 1   1.00000                          
 
 54 56  0  0  0  0  0  0  0  0999 V2000
    0.5853   -1.6329   -0.0821 C   0  0  0  0  0  0
   -0.8361   -1.5165   -0.6363 C   0  0  0  0  0  0
   -1.6801   -2.6905   -0.1318 C   0  0  0  0  0  0
   -3.1195   -2.5256   -0.6243 C   0  0  0  0  0  0
   -3.6743   -1.2666   -0.1127 N   0  3  0  0  0  0
   -3.6186   -1.2605    0.8947 H   0  0  0  0  0  0
   -2.9135   -0.1322   -0.6502 C   0  0  0  0  0  0
   -1.4663   -0.2051   -0.1587 C   0  0  0  0  0  0
   -5.0795   -1.1493   -0.5247 C   0  0  0  0  0  0
   -5.6505    0.1429   -0.0001 C   0  0  0  0  0  0
   -5.5717    1.2933   -0.7625 C   0  0  0  0  0  0
   -6.0955    2.4786   -0.2813 C   0  0  0  0  0  0
   -6.6984    2.5135    0.9621 C   0  0  0  0  0  0
   -6.7779    1.3629    1.7242 C   0  0  0  0  0  0
   -6.2580    0.1766    1.2411 C   0  0  0  0  0  0
    1.4272   -0.4594   -0.5871 C   0  0  0  0  0  0
    2.7881   -0.5707   -0.0564 N   0  0  0  0  0  0
    3.7120    0.3590   -0.3704 C   0  0  0  0  0  0
    3.4161    1.2898   -1.0938 O   0  0  0  0  0  0
    5.0855    0.2466    0.1652 C   0  0  0  0  0  0
    6.0766    1.1345   -0.2555 C   0  0  0  0  0  0
    7.3562    1.0244    0.2486 C   0  0  0  0  0  0
    7.6579    0.0364    1.1686 C   0  0  0  0  0  0
    6.6798   -0.8473    1.5899 C   0  0  0  0  0  0
    5.3952   -0.7446    1.0981 C   0  0  0  0  0  0
    5.7499    2.2109   -1.2584 C   0  0  0  0  0  0
    0.5531   -1.6147    1.0073 H   0  0  0  0  0  0
    1.0302   -2.5699   -0.4169 H   0  0  0  0  0  0
   -0.8049   -1.5317   -1.7258 H   0  0  0  0  0  0
   -1.2694   -3.6250   -0.5142 H   0  0  0  0  0  0
   -1.6678   -2.7058    0.9580 H   0  0  0  0  0  0
   -3.1307   -2.5107   -1.7141 H   0  0  0  0  0  0
   -3.7231   -3.3599   -0.2670 H   0  0  0  0  0  0
   -2.9291   -0.1684   -1.7395 H   0  0  0  0  0  0
   -3.3651    0.8004   -0.3120 H   0  0  0  0  0  0
   -1.4495   -0.1687    0.9306 H   0  0  0  0  0  0
   -0.9027    0.6370   -0.5603 H   0  0  0  0  0  0
   -5.1410   -1.1584   -1.6129 H   0  0  0  0  0  0
   -5.6475   -1.9877   -0.1215 H   0  0  0  0  0  0
   -5.1007    1.2661   -1.7340 H   0  0  0  0  0  0
   -6.0333    3.3776   -0.8767 H   0  0  0  0  0  0
   -7.1069    3.4397    1.3384 H   0  0  0  0  0  0
   -7.2487    1.3902    2.6958 H   0  0  0  0  0  0
   -6.3202   -0.7223    1.8365 H   0  0  0  0  0  0
    1.4593   -0.4775   -1.6765 H   0  0  0  0  0  0
    0.9822    0.4777   -0.2523 H   0  0  0  0  0  0
    3.0243   -1.3136    0.5209 H   0  0  0  0  0  0
    8.1241    1.7110   -0.0760 H   0  0  0  0  0  0
    8.6613   -0.0460    1.5596 H   0  0  0  0  0  0
    6.9219   -1.6165    2.3084 H   0  0  0  0  0  0
    4.6327   -1.4347    1.4279 H   0  0  0  0  0  0
    5.3140    3.0670   -0.7435 H   0  0  0  0  0  0
    6.6617    2.5199   -1.7696 H   0  0  0  0  0  0
    5.0379    1.8242   -1.9874 H   0  0  0  0  0  0
  1  2  1  0  0  0
  1 16  1  0  0  0
  1 27  1  0  0  0
  1 28  1  0  0  0
  2  3  1  0  0  0
  2  8  1  0  0  0
  2 29  1  0  0  0
  3  4  1  0  0  0
  3 30  1  0  0  0
  3 31  1  0  0  0
  4  5  1  0  0  0
  4 32  1  0  0  0
  4 33  1  0  0  0
  5  6  1  0  0  0
  5  7  1  0  0  0
  5  9  1  0  0  0
  7  8  1  0  0  0
  7 34  1  0  0  0
  7 35  1  0  0  0
  8 36  1  0  0  0
  8 37  1  0  0  0
  9 10  1  0  0  0
  9 38  1  0  0  0
  9 39  1  0  0  0
 10 11  2  0  0  0
 10 15  1  0  0  0
 11 12  1  0  0  0
 11 40  1  0  0  0
 12 13  2  0  0  0
 12 41  1  0  0  0
 13 14  1  0  0  0
 13 42  1  0  0  0
 14 15  2  0  0  0
 14 43  1  0  0  0
 15 44  1  0  0  0
 16 17  1  0  0  0
 16 45  1  0  0  0
 16 46  1  0  0  0
 17 18  1  0  0  0
 17 47  1  0  0  0
 18 19  2  0  0  0
 18 20  1  0  0  0
 20 21  2  0  0  0
 20 25  1  0  0  0
 21 22  1  0  0  0
 21 26  1  0  0  0
 22 23  2  0  0  0
 22 48  1  0  0  0
 23 24  1  0  0  0
 23 49  1  0  0  0
 24 25  2  0  0  0
 24 50  1  0  0  0
 25 51  1  0  0  0
 26 52  1  0  0  0
 26 53  1  0  0  0
 26 54  1  0  0  0
M  CHG  1   5   1
M  END
>  <Activity>
6

>  <set>
2

>  <Min_dist>
0.106667

>  <Avg_dist>
0.406349

$$$$
2-3E
  Cerius2 12110214483D 1   1.00000                          
 
 53 55  0  0  0  0  0  0  0  0999 V2000
    0.1289    1.9136   -0.2594 C   0  0  0  0  0  0
   -1.3076    1.8699    0.2653 C   0  0  0  0  0  0
   -2.1870    2.8036   -0.5715 C   0  0  0  0  0  0
   -3.6364    2.6951   -0.0929 C   0  0  0  0  0  0
   -4.1039    1.3122   -0.2463 N   0  3  0  0  0  0
   -4.0039    1.0294   -1.2096 H   0  0  0  0  0  0
   -3.3111    0.4206    0.6087 C   0  0  0  0  0  0
   -1.8492    0.4416    0.1571 C   0  0  0  0  0  0
   -5.5180    1.2290    0.1427 C   0  0  0  0  0  0
   -5.9995   -0.1904   -0.0143 C   0  0  0  0  0  0
   -5.8962   -1.0761    1.0419 C   0  0  0  0  0  0
   -6.3378   -2.3781    0.8979 C   0  0  0  0  0  0
   -6.8832   -2.7942   -0.3023 C   0  0  0  0  0  0
   -6.9873   -1.9082   -1.3582 C   0  0  0  0  0  0
   -6.5497   -0.6050   -1.2128 C   0  0  0  0  0  0
    1.0061    0.9804    0.5775 C   0  0  0  0  0  0
    2.3817    1.0221    0.0751 N   0  0  0  0  0  0
    3.3367    0.2745    0.6628 C   0  0  0  0  0  0
    3.0568   -0.4345    1.6096 O   0  0  0  0  0  0
    4.7249    0.3166    0.1557 C   0  0  0  0  0  0
    5.3676   -0.8618   -0.2261 C   0  0  0  0  0  0
    6.6630   -0.8155   -0.6989 C   0  0  0  0  0  0
    7.3246    0.3957   -0.7949 C   0  0  0  0  0  0
    6.6931    1.5678   -0.4179 C   0  0  0  0  0  0
    5.3964    1.5360    0.0514 C   0  0  0  0  0  0
    4.6614   -2.1586   -0.1236 N   0  3  0  0  0  0
    5.2595   -3.1968   -0.3427 O   0  0  0  0  0  0
    3.4822   -2.1875    0.1798 O   0  5  0  0  0  0
    0.1454    1.5910   -1.3005 H   0  0  0  0  0  0
    0.5109    2.9320   -0.1884 H   0  0  0  0  0  0
   -1.3250    2.1896    1.3072 H   0  0  0  0  0  0
   -1.8412    3.8307   -0.4551 H   0  0  0  0  0  0
   -2.1278    2.5156   -1.6211 H   0  0  0  0  0  0
   -3.6945    2.9835    0.9567 H   0  0  0  0  0  0
   -4.2652    3.3587   -0.6864 H   0  0  0  0  0  0
   -3.3761    0.7575    1.6433 H   0  0  0  0  0  0
   -3.6997   -0.5949    0.5331 H   0  0  0  0  0  0
   -1.7830    0.1046   -0.8774 H   0  0  0  0  0  0
   -1.2619   -0.2196    0.7942 H   0  0  0  0  0  0
   -5.6276    1.5369    1.1825 H   0  0  0  0  0  0
   -6.1095    1.8859   -0.4950 H   0  0  0  0  0  0
   -5.4701   -0.7510    1.9796 H   0  0  0  0  0  0
   -6.2564   -3.0703    1.7229 H   0  0  0  0  0  0
   -7.2275   -3.8116   -0.4150 H   0  0  0  0  0  0
   -7.4131   -2.2334   -2.2960 H   0  0  0  0  0  0
   -6.6311    0.0872   -2.0378 H   0  0  0  0  0  0
    0.9896    1.3029    1.6186 H   0  0  0  0  0  0
    0.6242   -0.0381    0.5066 H   0  0  0  0  0  0
    2.6050    1.5879   -0.6805 H   0  0  0  0  0  0
    7.1617   -1.7267   -0.9944 H   0  0  0  0  0  0
    8.3387    0.4265   -1.1653 H   0  0  0  0  0  0
    7.2151    2.5101   -0.4953 H   0  0  0  0  0  0
    4.9045    2.4515    0.3452 H   0  0  0  0  0  0
  1  2  1  0  0  0
  1 16  1  0  0  0
  1 29  1  0  0  0
  1 30  1  0  0  0
  2  3  1  0  0  0
  2  8  1  0  0  0
  2 31  1  0  0  0
  3  4  1  0  0  0
  3 32  1  0  0  0
  3 33  1  0  0  0
  4  5  1  0  0  0
  4 34  1  0  0  0
  4 35  1  0  0  0
  5  6  1  0  0  0
  5  7  1  0  0  0
  5  9  1  0  0  0
  7  8  1  0  0  0
  7 36  1  0  0  0
  7 37  1  0  0  0
  8 38  1  0  0  0
  8 39  1  0  0  0
  9 10  1  0  0  0
  9 40  1  0  0  0
  9 41  1  0  0  0
 10 11  2  0  0  0
 10 15  1  0  0  0
 11 12  1  0  0  0
 11 42  1  0  0  0
 12 13  2  0  0  0
 12 43  1  0  0  0
 13 14  1  0  0  0
 13 44  1  0  0  0
 14 15  2  0  0  0
 14 45  1  0  0  0
 15 46  1  0  0  0
 16 17  1  0  0  0
 16 47  1  0  0  0
 16 48  1  0  0  0
 17 18  1  0  0  0
 17 49  1  0  0  0
 18 19  2  0  0  0
 18 20  1  0  0  0
 20 21  2  0  0  0
 20 25  1  0  0  0
 21 22  1  0  0  0
 21 26  1  0  0  0
 22 23  2  0  0  0
 22 50  1  0  0  0
 23 24  1  0  0  0
 23 51  1  0  0  0
 24 25  2  0  0  0
 24 52  1  0  0  0
 25 53  1  0  0  0
 26 27  2  0  0  0
 26 28  1  0  0  0
M  CHG  3   5   1  26   1  28  -1
M  END
>  <Activity>
6.05552

>  <set>
2

>  <Min_dist>
0.1

>  <Avg_dist>
0.451598

$$$$
2-3H
  Cerius2 12110214483D 1   1.00000                          
 
 55 57  0  0  0  0  0  0  0  0999 V2000
    0.0871   -1.5020   -0.1928 C   0  0  0  0  0  0
   -1.3705   -1.4766   -0.6573 C   0  0  0  0  0  0
   -2.1367   -2.6298   -0.0030 C   0  0  0  0  0  0
   -3.6100   -2.5513   -0.4089 C   0  0  0  0  0  0
   -4.1760   -1.2718    0.0348 N   0  3  0  0  0  0
   -4.0554   -1.1797    1.0323 H   0  0  0  0  0  0
   -3.4935   -0.1633   -0.6435 C   0  0  0  0  0  0
   -2.0158   -0.1499   -0.2466 C   0  0  0  0  0  0
   -5.6083   -1.2329   -0.2895 C   0  0  0  0  0  0
   -6.1908    0.0804    0.1655 C   0  0  0  0  0  0
   -6.2036    1.1648   -0.6917 C   0  0  0  0  0  0
   -6.7380    2.3694   -0.2743 C   0  0  0  0  0  0
   -7.2599    2.4895    1.0001 C   0  0  0  0  0  0
   -7.2480    1.4048    1.8569 C   0  0  0  0  0  0
   -6.7175    0.1990    1.4381 C   0  0  0  0  0  0
    0.8512   -0.3494   -0.8474 C   0  0  0  0  0  0
    2.2468   -0.3737   -0.4026 N   0  0  0  0  0  0
    3.1139    0.5546   -0.8529 C   0  0  0  0  0  0
    2.7379    1.4123   -1.6283 O   0  0  0  0  0  0
    4.5200    0.5301   -0.4048 C   0  0  0  0  0  0
    5.4206    1.4916   -0.8705 C   0  0  0  0  0  0
    6.7316    1.4653   -0.4501 C   0  0  0  0  0  0
    7.1595    0.4840    0.4364 C   0  0  0  0  0  0
    6.2669   -0.4746    0.9016 C   0  0  0  0  0  0
    4.9528   -0.4514    0.4908 C   0  0  0  0  0  0
    8.4524    0.4614    0.8484 O   0  0  0  0  0  0
    8.5820   -0.6467    1.7414 C   0  0  0  0  0  0
    0.1249   -1.3938    0.8911 H   0  0  0  0  0  0
    0.5433   -2.4495   -0.4795 H   0  0  0  0  0  0
   -1.4094   -1.5819   -1.7415 H   0  0  0  0  0  0
   -1.7178   -3.5798   -0.3349 H   0  0  0  0  0  0
   -2.0533   -2.5534    1.0811 H   0  0  0  0  0  0
   -3.6923   -2.6281   -1.4931 H   0  0  0  0  0  0
   -4.1584   -3.3711    0.0551 H   0  0  0  0  0  0
   -3.5783   -0.2910   -1.7227 H   0  0  0  0  0  0
   -3.9560    0.7799   -0.3527 H   0  0  0  0  0  0
   -1.9299   -0.0220    0.8325 H   0  0  0  0  0  0
   -1.5105    0.6727   -0.7526 H   0  0  0  0  0  0
   -5.7398   -1.3350   -1.3667 H   0  0  0  0  0  0
   -6.1181   -2.0518    0.2181 H   0  0  0  0  0  0
   -5.7959    1.0710   -1.6873 H   0  0  0  0  0  0
   -6.7474    3.2169   -0.9437 H   0  0  0  0  0  0
   -7.6768    3.4309    1.3264 H   0  0  0  0  0  0
   -7.6555    1.4988    2.8527 H   0  0  0  0  0  0
   -6.7082   -0.6485    2.1075 H   0  0  0  0  0  0
    0.8133   -0.4576   -1.9313 H   0  0  0  0  0  0
    0.3949    0.5982   -0.5607 H   0  0  0  0  0  0
    2.5468   -1.0580    0.2160 H   0  0  0  0  0  0
    5.0889    2.2543   -1.5596 H   0  0  0  0  0  0
    7.4283    2.2079   -0.8099 H   0  0  0  0  0  0
    6.6034   -1.2357    1.5901 H   0  0  0  0  0  0
    4.2598   -1.1963    0.8530 H   0  0  0  0  0  0
    9.6095   -0.7057    2.1004 H   0  0  0  0  0  0
    7.9085   -0.5119    2.5878 H   0  0  0  0  0  0
    8.3269   -1.5676    1.2171 H   0  0  0  0  0  0
  1  2  1  0  0  0
  1 16  1  0  0  0
  1 28  1  0  0  0
  1 29  1  0  0  0
  2  3  1  0  0  0
  2  8  1  0  0  0
  2 30  1  0  0  0
  3  4  1  0  0  0
  3 31  1  0  0  0
  3 32  1  0  0  0
  4  5  1  0  0  0
  4 33  1  0  0  0
  4 34  1  0  0  0
  5  6  1  0  0  0
  5  7  1  0  0  0
  5  9  1  0  0  0
  7  8  1  0  0  0
  7 35  1  0  0  0
  7 36  1  0  0  0
  8 37  1  0  0  0
  8 38  1  0  0  0
  9 10  1  0  0  0
  9 39  1  0  0  0
  9 40  1  0  0  0
 10 11  2  0  0  0
 10 15  1  0  0  0
 11 12  1  0  0  0
 11 41  1  0  0  0
 12 13  2  0  0  0
 12 42  1  0  0  0
 13 14  1  0  0  0
 13 43  1  0  0  0
 14 15  2  0  0  0
 14 44  1  0  0  0
 15 45  1  0  0  0
 16 17  1  0  0  0
 16 46  1  0  0  0
 16 47  1  0  0  0
 17 18  1  0  0  0
 17 48  1  0  0  0
 18 19  2  0  0  0
 18 20  1  0  0  0
 20 21  2  0  0  0
 20 25  1  0  0  0
 21 22  1  0  0  0
 21 49  1  0  0  0
 22 23  2  0  0  0
 22 50  1  0  0  0
 23 24  1  0  0  0
 23 26  1  0  0  0
 24 25  2  0  0  0
 24 51  1  0  0  0
 25 52  1  0  0  0
 26 27  1  0  0  0
 27 53  1  0  0  0
 27 54  1  0  0  0
 27 55  1  0  0  0
M  CHG  1   5   1
M  END
>  <Activity>
7.05552

>  <set>
2

>  <Min_dist>
0.105263

>  <Avg_dist>
0.390242

$$$$
2-3O
  Cerius2 12110214483D 1   1.00000                          
 
 50 52  0  0  0  0  0  0  0  0999 V2000
    0.8581   -1.5129    0.0254 C   0  0  0  0  0  0
   -0.5747   -1.5023   -0.5109 C   0  0  0  0  0  0
   -1.3763   -2.6289    0.1474 C   0  0  0  0  0  0
   -2.8276   -2.5630   -0.3332 C   0  0  0  0  0  0
   -3.4101   -1.2668    0.0342 N   0  3  0  0  0  0
   -3.3384   -1.1377    1.0323 H   0  0  0  0  0  0
   -2.6912   -0.1856   -0.6505 C   0  0  0  0  0  0
   -1.2346   -0.1600   -0.1821 C   0  0  0  0  0  0
   -4.8246   -1.2375   -0.3614 C   0  0  0  0  0  0
   -5.4240    0.0929    0.0152 C   0  0  0  0  0  0
   -5.3908    1.1446   -0.8814 C   0  0  0  0  0  0
   -5.9406    2.3649   -0.5359 C   0  0  0  0  0  0
   -6.5241    2.5334    0.7059 C   0  0  0  0  0  0
   -6.5582    1.4815    1.6020 C   0  0  0  0  0  0
   -6.0122    0.2599    1.2550 C   0  0  0  0  0  0
    1.6576   -0.3869   -0.6332 C   0  0  0  0  0  0
    3.0296   -0.3971   -0.1196 N   0  0  0  0  0  0
    3.9211    0.5122   -0.5610 C   0  0  0  0  0  0
    3.5868    1.3408   -1.3851 O   0  0  0  0  0  0
    5.3057    0.5019   -0.0427 C   0  0  0  0  0  0
    5.7020   -0.4439    0.9034 C   0  0  0  0  0  0
    6.9351   -0.4529    1.3655 N   0  0  0  0  0  0
    7.8377    0.4195    0.9596 C   0  0  0  0  0  0
    7.5239    1.3886    0.0234 C   0  0  0  0  0  0
    6.2430    1.4375   -0.4974 C   0  0  0  0  0  0
    0.8430   -1.3644    1.1051 H   0  0  0  0  0  0
    1.3245   -2.4713   -0.2030 H   0  0  0  0  0  0
   -0.5607   -1.6480   -1.5910 H   0  0  0  0  0  0
   -0.9451   -3.5913   -0.1279 H   0  0  0  0  0  0
   -1.3460   -2.5122    1.2307 H   0  0  0  0  0  0
   -2.8568   -2.6800   -1.4165 H   0  0  0  0  0  0
   -3.4011   -3.3639    0.1335 H   0  0  0  0  0  0
   -2.7233   -0.3533   -1.7270 H   0  0  0  0  0  0
   -3.1639    0.7686   -0.4180 H   0  0  0  0  0  0
   -1.2014    0.0079    0.8944 H   0  0  0  0  0  0
   -0.7021    0.6422   -0.6929 H   0  0  0  0  0  0
   -4.9034   -1.3795   -1.4392 H   0  0  0  0  0  0
   -5.3616   -2.0360    0.1505 H   0  0  0  0  0  0
   -4.9349    1.0129   -1.8515 H   0  0  0  0  0  0
   -5.9140    3.1868   -1.2361 H   0  0  0  0  0  0
   -6.9531    3.4871    0.9760 H   0  0  0  0  0  0
   -7.0137    1.6132    2.5723 H   0  0  0  0  0  0
   -6.0388   -0.5620    1.9551 H   0  0  0  0  0  0
    1.6727   -0.5355   -1.7129 H   0  0  0  0  0  0
    1.1913    0.5715   -0.4048 H   0  0  0  0  0  0
    3.2964   -1.0583    0.5380 H   0  0  0  0  0  0
    4.9912   -1.1746    1.2601 H   0  0  0  0  0  0
    8.8378    0.3766    1.3649 H   0  0  0  0  0  0
    8.2721    2.0969   -0.3005 H   0  0  0  0  0  0
    5.9708    2.1834   -1.2294 H   0  0  0  0  0  0
  1  2  1  0  0  0
  1 16  1  0  0  0
  1 26  1  0  0  0
  1 27  1  0  0  0
  2  3  1  0  0  0
  2  8  1  0  0  0
  2 28  1  0  0  0
  3  4  1  0  0  0
  3 29  1  0  0  0
  3 30  1  0  0  0
  4  5  1  0  0  0
  4 31  1  0  0  0
  4 32  1  0  0  0
  5  6  1  0  0  0
  5  7  1  0  0  0
  5  9  1  0  0  0
  7  8  1  0  0  0
  7 33  1  0  0  0
  7 34  1  0  0  0
  8 35  1  0  0  0
  8 36  1  0  0  0
  9 10  1  0  0  0
  9 37  1  0  0  0
  9 38  1  0  0  0
 10 11  2  0  0  0
 10 15  1  0  0  0
 11 12  1  0  0  0
 11 39  1  0  0  0
 12 13  2  0  0  0
 12 40  1  0  0  0
 13 14  1  0  0  0
 13 41  1  0  0  0
 14 15  2  0  0  0
 14 42  1  0  0  0
 15 43  1  0  0  0
 16 17  1  0  0  0
 16 44  1  0  0  0
 16 45  1  0  0  0
 17 18  1  0  0  0
 17 46  1  0  0  0
 18 19  2  0  0  0
 18 20  1  0  0  0
 20 21  2  0  0  0
 20 25  1  0  0  0
 21 22  1  0  0  0
 21 47  1  0  0  0
 22 23  2  0  0  0
 23 24  1  0  0  0
 23 48  1  0  0  0
 24 25  2  0  0  0
 24 49  1  0  0  0
 25 50  1  0  0  0
M  CHG  1   5   1
M  END
>  <Activity>
7.16115

>  <set>
2

>  <Min_dist>
0.090909

>  <Avg_dist>
0.40932

$$$$
2-9
  Cerius2 12110214483D 1   1.00000                          
 
 52 54  0  0  0  0  0  0  0  0999 V2000
    0.8000   -1.7213    0.1566 C   0  0  0  0  0  0
   -0.6094   -1.6281   -0.4314 C   0  0  0  0  0  0
   -1.4889   -2.7282    0.1698 C   0  0  0  0  0  0
   -2.9161   -2.5802   -0.3619 C   0  0  0  0  0  0
   -3.4487   -1.2654    0.0151 N   0  3  0  0  0  0
   -3.4084   -1.1623    1.0180 H   0  0  0  0  0  0
   -2.6529   -0.2060   -0.6165 C   0  0  0  0  0  0
   -1.2155   -0.2626   -0.0946 C   0  0  0  0  0  0
   -4.8441   -1.1576   -0.4311 C   0  0  0  0  0  0
   -5.3922    0.1920   -0.0448 C   0  0  0  0  0  0
   -5.2743    1.2605   -0.9138 C   0  0  0  0  0  0
   -5.7770    2.4984   -0.5594 C   0  0  0  0  0  0
   -6.3981    2.6677    0.6639 C   0  0  0  0  0  0
   -6.5169    1.5990    1.5326 C   0  0  0  0  0  0
   -6.0179    0.3600    1.1764 C   0  0  0  0  0  0
    1.6773   -0.6216   -0.4449 C   0  0  0  0  0  0
    3.0867   -0.7149    0.1431 C   0  0  0  0  0  0
    3.9509    0.3683   -0.4494 C   0  0  0  0  0  0
    3.4854    1.1388   -1.2618 O   0  0  0  0  0  0
    5.3597    0.4909   -0.0420 C   0  0  0  0  0  0
    6.1649    1.4948   -0.5896 C   0  0  0  0  0  0
    7.4838    1.6034   -0.2024 C   0  0  0  0  0  0
    8.0114    0.7220    0.7252 C   0  0  0  0  0  0
    7.2211   -0.2744    1.2713 C   0  0  0  0  0  0
    5.8987   -0.3922    0.8990 C   0  0  0  0  0  0
    0.7514   -1.5963    1.2384 H   0  0  0  0  0  0
    1.2276   -2.6962   -0.0776 H   0  0  0  0  0  0
   -0.5617   -1.7501   -1.5135 H   0  0  0  0  0  0
   -1.0947   -3.7044   -0.1127 H   0  0  0  0  0  0
   -1.4939   -2.6374    1.2560 H   0  0  0  0  0  0
   -2.9101   -2.6714   -1.4480 H   0  0  0  0  0  0
   -3.5449   -3.3621    0.0640 H   0  0  0  0  0  0
   -2.6524   -0.3478   -1.6972 H   0  0  0  0  0  0
   -3.0873    0.7650   -0.3785 H   0  0  0  0  0  0
   -1.2148   -0.1206    0.9861 H   0  0  0  0  0  0
   -0.6259    0.5236   -0.5661 H   0  0  0  0  0  0
   -4.8890   -1.2714   -1.5142 H   0  0  0  0  0  0
   -5.4381   -1.9399    0.0414 H   0  0  0  0  0  0
   -4.7890    1.1282   -1.8696 H   0  0  0  0  0  0
   -5.6843    3.3334   -1.2380 H   0  0  0  0  0  0
   -6.7903    3.6351    0.9412 H   0  0  0  0  0  0
   -7.0018    1.7314    2.4885 H   0  0  0  0  0  0
   -6.1107   -0.4750    1.8550 H   0  0  0  0  0  0
    1.7259   -0.7466   -1.5266 H   0  0  0  0  0  0
    1.2497    0.3532   -0.2106 H   0  0  0  0  0  0
    3.0381   -0.5899    1.2248 H   0  0  0  0  0  0
    3.5144   -1.6897   -0.0912 H   0  0  0  0  0  0
    5.7548    2.1828   -1.3140 H   0  0  0  0  0  0
    8.1069    2.3781   -0.6243 H   0  0  0  0  0  0
    9.0453    0.8121    1.0242 H   0  0  0  0  0  0
    7.6402   -0.9585    1.9943 H   0  0  0  0  0  0
    5.2833   -1.1702    1.3260 H   0  0  0  0  0  0
  1  2  1  0  0  0
  1 16  1  0  0  0
  1 26  1  0  0  0
  1 27  1  0  0  0
  2  3  1  0  0  0
  2  8  1  0  0  0
  2 28  1  0  0  0
  3  4  1  0  0  0
  3 29  1  0  0  0
  3 30  1  0  0  0
  4  5  1  0  0  0
  4 31  1  0  0  0
  4 32  1  0  0  0
  5  6  1  0  0  0
  5  7  1  0  0  0
  5  9  1  0  0  0
  7  8  1  0  0  0
  7 33  1  0  0  0
  7 34  1  0  0  0
  8 35  1  0  0  0
  8 36  1  0  0  0
  9 10  1  0  0  0
  9 37  1  0  0  0
  9 38  1  0  0  0
 10 11  2  0  0  0
 10 15  1  0  0  0
 11 12  1  0  0  0
 11 39  1  0  0  0
 12 13  2  0  0  0
 12 40  1  0  0  0
 13 14  1  0  0  0
 13 41  1  0  0  0
 14 15  2  0  0  0
 14 42  1  0  0  0
 15 43  1  0  0  0
 16 17  1  0  0  0
 16 44  1  0  0  0
 16 45  1  0  0  0
 17 18  1  0  0  0
 17 46  1  0  0  0
 17 47  1  0  0  0
 18 19  2  0  0  0
 18 20  1  0  0  0
 20 21  2  0  0  0
 20 25  1  0  0  0
 21 22  1  0  0  0
 21 48  1  0  0  0
 22 23  2  0  0  0
 22 49  1  0  0  0
 23 24  1  0  0  0
 23 50  1  0  0  0
 24 25  2  0  0  0
 24 51  1  0  0  0
 25 52  1  0  0  0
M  CHG  1   5   1
M  END
>  <Activity>
6.27572

>  <set>
2

>  <Min_dist>
0.293333

>  <Avg_dist>
0.481601

$$$$
3-12A
  Cerius2 12110214483D 1   1.00000                          
 
 56 59  0  0  0  0  0  0  0  0999 V2000
   -5.4186    1.0624   -0.0532 C   0  0  0  0  0  0
   -5.8801   -0.2048   -0.4079 C   0  0  0  0  0  0
   -4.9885   -1.2632   -0.5175 C   0  0  0  0  0  0
   -3.6448   -1.0675   -0.2763 C   0  0  0  0  0  0
   -3.1738    0.1973    0.0793 C   0  0  0  0  0  0
   -4.0756    1.2650    0.1891 C   0  0  0  0  0  0
   -1.7128    0.1504    0.2828 C   0  0  0  0  0  0
   -1.0090    1.0910    0.5990 O   0  0  0  0  0  0
   -1.2505   -1.2247    0.0390 C   0  0  0  0  0  0
    0.0005   -1.6736    0.1206 C   0  0  0  0  0  0
    1.1157   -0.7324    0.4967 C   0  0  0  0  0  0
    1.7925   -1.2265    1.7785 C   0  0  0  0  0  0
    2.9733   -0.3117    2.1105 C   0  0  0  0  0  0
    3.9395   -0.3333    1.0057 N   0  3  0  0  0  0
    4.2354   -1.2832    0.8376 H   0  0  0  0  0  0
    3.3184    0.2066   -0.2097 C   0  0  0  0  0  0
    2.1508   -0.6883   -0.6311 C   0  0  0  0  0  0
    5.1060    0.4858    1.3612 C   0  0  0  0  0  0
    6.0989    0.4646    0.2278 C   0  0  0  0  0  0
    6.0261    1.4157   -0.7727 C   0  0  0  0  0  0
    6.9368    1.3962   -1.8124 C   0  0  0  0  0  0
    7.9207    0.4259   -1.8514 C   0  0  0  0  0  0
    7.9940   -0.5247   -0.8505 C   0  0  0  0  0  0
    7.0859   -0.5026    0.1915 C   0  0  0  0  0  0
   -2.4794   -2.0255   -0.3225 C   0  0  0  0  0  0
   -7.2021   -0.4037   -0.6458 O   0  0  0  0  0  0
   -7.3583   -1.7838   -0.9816 C   0  0  0  0  0  0
   -6.2918    2.1000    0.0484 O   0  0  0  0  0  0
   -5.5274    3.2481    0.4221 C   0  0  0  0  0  0
   -5.3485   -2.2436   -0.7924 H   0  0  0  0  0  0
   -3.7189    2.2467    0.4638 H   0  0  0  0  0  0
    0.2159   -2.7122   -0.0827 H   0  0  0  0  0  0
    0.7104    0.2662    0.6602 H   0  0  0  0  0  0
    1.0754   -1.2077    2.5992 H   0  0  0  0  0  0
    2.1514   -2.2451    1.6311 H   0  0  0  0  0  0
    2.6133    0.7065    2.2579 H   0  0  0  0  0  0
    3.4573   -0.6606    3.0227 H   0  0  0  0  0  0
    2.9510    1.2137   -0.0128 H   0  0  0  0  0  0
    4.0571    0.2403   -1.0105 H   0  0  0  0  0  0
    2.5171   -1.6957   -0.8284 H   0  0  0  0  0  0
    1.6899   -0.2848   -1.5326 H   0  0  0  0  0  0
    4.7870    1.5116    1.5457 H   0  0  0  0  0  0
    5.5723    0.0830    2.2603 H   0  0  0  0  0  0
    5.2575    2.1737   -0.7423 H   0  0  0  0  0  0
    6.8796    2.1389   -2.5945 H   0  0  0  0  0  0
    8.6318    0.4103   -2.6641 H   0  0  0  0  0  0
    8.7624   -1.2829   -0.8811 H   0  0  0  0  0  0
    7.1432   -1.2452    0.9736 H   0  0  0  0  0  0
   -2.6273   -2.8290    0.3989 H   0  0  0  0  0  0
   -2.3745   -2.4383   -1.3259 H   0  0  0  0  0  0
   -8.4092   -1.9923   -1.1821 H   0  0  0  0  0  0
   -6.7671   -2.0111   -1.8687 H   0  0  0  0  0  0
   -7.0177   -2.4009   -0.1502 H   0  0  0  0  0  0
   -6.1883    4.1097    0.5162 H   0  0  0  0  0  0
   -5.0350    3.0618    1.3765 H   0  0  0  0  0  0
   -4.7758    3.4483   -0.3415 H   0  0  0  0  0  0
  1  2  2  0  0  0
  1  6  1  0  0  0
  1 28  1  0  0  0
  2  3  1  0  0  0
  2 26  1  0  0  0
  3  4  2  0  0  0
  3 30  1  0  0  0
  4  5  1  0  0  0
  4 25  1  0  0  0
  5  6  2  0  0  0
  5  7  1  0  0  0
  6 31  1  0  0  0
  7  8  2  0  0  0
  7  9  1  0  0  0
  9 10  2  0  0  0
  9 25  1  0  0  0
 10 11  1  0  0  0
 10 32  1  0  0  0
 11 12  1  0  0  0
 11 17  1  0  0  0
 11 33  1  0  0  0
 12 13  1  0  0  0
 12 34  1  0  0  0
 12 35  1  0  0  0
 13 14  1  0  0  0
 13 36  1  0  0  0
 13 37  1  0  0  0
 14 15  1  0  0  0
 14 16  1  0  0  0
 14 18  1  0  0  0
 16 17  1  0  0  0
 16 38  1  0  0  0
 16 39  1  0  0  0
 17 40  1  0  0  0
 17 41  1  0  0  0
 18 19  1  0  0  0
 18 42  1  0  0  0
 18 43  1  0  0  0
 19 20  2  0  0  0
 19 24  1  0  0  0
 20 21  1  0  0  0
 20 44  1  0  0  0
 21 22  2  0  0  0
 21 45  1  0  0  0
 22 23  1  0  0  0
 22 46  1  0  0  0
 23 24  2  0  0  0
 23 47  1  0  0  0
 24 48  1  0  0  0
 25 49  1  0  0  0
 25 50  1  0  0  0
 26 27  1  0  0  0
 27 51  1  0  0  0
 27 52  1  0  0  0
 27 53  1  0  0  0
 28 29  1  0  0  0
 29 54  1  0  0  0
 29 55  1  0  0  0
 29 56  1  0  0  0
M  CHG  1  14   1
M  END
>  <Activity>
7.88606

>  <set>
2

>  <Min_dist>
0.13253

>  <Avg_dist>
0.5106

$$$$
3-13A
  Cerius2 12110214483D 1   1.00000                          
 
 56 59  0  0  0  0  0  0  0  0999 V2000
    5.9539   -0.0557   -0.4573 C   0  0  0  0  0  0
    5.6171    1.1867    0.0799 C   0  0  0  0  0  0
    4.3257    1.4215    0.5311 C   0  0  0  0  0  0
    3.3683    0.4308    0.4519 C   0  0  0  0  0  0
    3.6954   -0.8166   -0.0842 C   0  0  0  0  0  0
    5.0041   -1.0512   -0.5404 C   0  0  0  0  0  0
    2.5284   -1.7096   -0.0690 C   0  0  0  0  0  0
    2.5034   -2.8546   -0.4685 O   0  0  0  0  0  0
    1.3663   -0.9553    0.5299 C   0  0  0  0  0  0
    1.9165    0.4372    0.8677 C   0  0  0  0  0  0
    0.2274   -0.8431   -0.4856 C   0  0  0  0  0  0
   -0.9811   -0.1769    0.1751 C   0  0  0  0  0  0
   -2.0514    0.1016   -0.8828 C   0  0  0  0  0  0
   -3.2453    0.7998   -0.2241 C   0  0  0  0  0  0
   -3.7099   -0.0203    0.9029 N   0  0  0  0  0  0
   -2.7404   -0.4217    1.9314 C   0  0  0  0  0  0
   -1.5521   -1.1062    1.2485 C   0  0  0  0  0  0
   -5.0009   -0.3969    0.9919 C   0  0  0  0  0  0
   -5.3494   -1.1717    1.8613 O   0  0  0  0  0  0
   -5.9931    0.1324    0.0322 C   0  0  0  0  0  0
   -7.0024   -0.6960   -0.4610 C   0  0  0  0  0  0
   -7.9254   -0.1957   -1.3559 C   0  0  0  0  0  0
   -7.8520    1.1240   -1.7650 C   0  0  0  0  0  0
   -6.8541    1.9505   -1.2799 C   0  0  0  0  0  0
   -5.9282    1.4643   -0.3801 C   0  0  0  0  0  0
    6.5530    2.1666    0.1619 O   0  0  0  0  0  0
    5.9123    3.3018    0.7474 C   0  0  0  0  0  0
    7.2181   -0.2830   -0.9043 O   0  0  0  0  0  0
    7.2494   -1.6270   -1.3888 C   0  0  0  0  0  0
    4.0688    2.3846    0.9468 H   0  0  0  0  0  0
    5.2659   -2.0128   -0.9564 H   0  0  0  0  0  0
    1.0187   -1.4537    1.4348 H   0  0  0  0  0  0
    1.8344    0.6225    1.9387 H   0  0  0  0  0  0
    1.3712    1.2002    0.3122 H   0  0  0  0  0  0
    0.5549   -0.2422   -1.3340 H   0  0  0  0  0  0
   -0.0505   -1.8388   -0.8313 H   0  0  0  0  0  0
   -0.6720    0.7619    0.6348 H   0  0  0  0  0  0
   -1.6369    0.7446   -1.6592 H   0  0  0  0  0  0
   -2.3789   -0.8391   -1.3254 H   0  0  0  0  0  0
   -2.9398    1.7809    0.1394 H   0  0  0  0  0  0
   -4.0499    0.9114   -0.9510 H   0  0  0  0  0  0
   -2.3937    0.4598    2.4707 H   0  0  0  0  0  0
   -3.2118   -1.1161    2.6268 H   0  0  0  0  0  0
   -1.8844   -2.0356    0.7859 H   0  0  0  0  0  0
   -0.7823   -1.3229    1.9892 H   0  0  0  0  0  0
   -7.0603   -1.7265   -0.1430 H   0  0  0  0  0  0
   -8.7068   -0.8357   -1.7384 H   0  0  0  0  0  0
   -8.5766    1.5105   -2.4663 H   0  0  0  0  0  0
   -6.8023    2.9797   -1.6032 H   0  0  0  0  0  0
   -5.1500    2.1106   -0.0019 H   0  0  0  0  0  0
    6.6286    4.1188    0.8339 H   0  0  0  0  0  0
    5.0794    3.6140    0.1174 H   0  0  0  0  0  0
    5.5401    3.0384    1.7375 H   0  0  0  0  0  0
    8.2483   -1.8564   -1.7597 H   0  0  0  0  0  0
    6.9965   -2.3112   -0.5789 H   0  0  0  0  0  0
    6.5271   -1.7386   -2.1975 H   0  0  0  0  0  0
  1  2  2  0  0  0
  1  6  1  0  0  0
  1 28  1  0  0  0
  2  3  1  0  0  0
  2 26  1  0  0  0
  3  4  2  0  0  0
  3 30  1  0  0  0
  4  5  1  0  0  0
  4 10  1  0  0  0
  5  6  2  0  0  0
  5  7  1  0  0  0
  6 31  1  0  0  0
  7  8  2  0  0  0
  7  9  1  0  0  0
  9 10  1  0  0  0
  9 11  1  0  0  0
  9 32  1  0  0  0
 10 33  1  0  0  0
 10 34  1  0  0  0
 11 12  1  0  0  0
 11 35  1  0  0  0
 11 36  1  0  0  0
 12 13  1  0  0  0
 12 17  1  0  0  0
 12 37  1  0  0  0
 13 14  1  0  0  0
 13 38  1  0  0  0
 13 39  1  0  0  0
 14 15  1  0  0  0
 14 40  1  0  0  0
 14 41  1  0  0  0
 15 16  1  0  0  0
 15 18  1  0  0  0
 16 17  1  0  0  0
 16 42  1  0  0  0
 16 43  1  0  0  0
 17 44  1  0  0  0
 17 45  1  0  0  0
 18 19  2  0  0  0
 18 20  1  0  0  0
 20 21  2  0  0  0
 20 25  1  0  0  0
 21 22  1  0  0  0
 21 46  1  0  0  0
 22 23  2  0  0  0
 22 47  1  0  0  0
 23 24  1  0  0  0
 23 48  1  0  0  0
 24 25  2  0  0  0
 24 49  1  0  0  0
 25 50  1  0  0  0
 26 27  1  0  0  0
 27 51  1  0  0  0
 27 52  1  0  0  0
 27 53  1  0  0  0
 28 29  1  0  0  0
 29 54  1  0  0  0
 29 55  1  0  0  0
 29 56  1  0  0  0
M  END
>  <Activity>
4.30103

>  <set>
2

>  <Min_dist>
0.119048

>  <Avg_dist>
0.477177

$$$$
3-13B
  Cerius2 12110214483D 1   1.00000                          
 
 45 47  0  0  0  0  0  0  0  0999 V2000
   -3.6762    0.3221   -0.1160 C   0  0  0  0  0  0
   -3.4083   -1.0412    0.0076 C   0  0  0  0  0  0
   -2.1076   -1.4772    0.2192 C   0  0  0  0  0  0
   -1.0732   -0.5682    0.3087 C   0  0  0  0  0  0
   -1.3309    0.7989    0.1863 C   0  0  0  0  0  0
   -2.6492    1.2372   -0.0280 C   0  0  0  0  0  0
   -0.0890    1.5741    0.3136 C   0  0  0  0  0  0
    0.0055    2.7817    0.2511 O   0  0  0  0  0  0
    1.0486    0.6073    0.5354 C   0  0  0  0  0  0
    0.4046   -0.7859    0.5317 C   0  0  0  0  0  0
    2.0703    0.7219   -0.5977 C   0  0  0  0  0  0
    3.2788   -0.1632   -0.2862 C   0  0  0  0  0  0
    4.2351   -0.1636   -1.4824 C   0  0  0  0  0  0
    5.4780   -0.9856   -1.1345 C   0  0  0  0  0  0
    6.1489   -0.3957    0.0301 N   0  3  0  0  0  0
    6.9964   -0.9079    0.2240 H   0  0  0  0  0  0
    6.3768    0.5674   -0.1663 H   0  0  0  0  0  0
    5.2635   -0.4572    1.1992 C   0  0  0  0  0  0
    4.0124    0.3851    0.9411 C   0  0  0  0  0  0
   -4.4201   -1.9420   -0.0788 O   0  0  0  0  0  0
   -3.8363   -3.2359    0.0851 C   0  0  0  0  0  0
   -4.9501    0.7480   -0.3289 O   0  0  0  0  0  0
   -4.9007    2.1739   -0.4099 C   0  0  0  0  0  0
   -1.9041   -2.5335    0.3147 H   0  0  0  0  0  0
   -2.8577    2.2926   -0.1238 H   0  0  0  0  0  0
    1.5260    0.8000    1.4962 H   0  0  0  0  0  0
    0.5702   -1.2776    1.4903 H   0  0  0  0  0  0
    0.8204   -1.3885   -0.2758 H   0  0  0  0  0  0
    1.6137    0.3975   -1.5328 H   0  0  0  0  0  0
    2.3937    1.7586   -0.6917 H   0  0  0  0  0  0
    2.9434   -1.1811   -0.0874 H   0  0  0  0  0  0
    3.7373   -0.6042   -2.3462 H   0  0  0  0  0  0
    4.5289    0.8603   -1.7138 H   0  0  0  0  0  0
    5.1831   -2.0092   -0.9035 H   0  0  0  0  0  0
    6.1609   -0.9881   -1.9840 H   0  0  0  0  0  0
    4.9732   -1.4921    1.3805 H   0  0  0  0  0  0
    5.7881   -0.0697    2.0725 H   0  0  0  0  0  0
    4.3015    1.4203    0.7600 H   0  0  0  0  0  0
    3.3554    0.3366    1.8096 H   0  0  0  0  0  0
   -4.6148   -3.9963    0.0229 H   0  0  0  0  0  0
   -3.1001   -3.4045   -0.7009 H   0  0  0  0  0  0
   -3.3486   -3.2939    1.0582 H   0  0  0  0  0  0
   -5.9044    2.5631   -0.5810 H   0  0  0  0  0  0
   -4.5088    2.5775    0.5237 H   0  0  0  0  0  0
   -4.2513    2.4687   -1.2342 H   0  0  0  0  0  0
  1  2  2  0  0  0
  1  6  1  0  0  0
  1 22  1  0  0  0
  2  3  1  0  0  0
  2 20  1  0  0  0
  3  4  2  0  0  0
  3 24  1  0  0  0
  4  5  1  0  0  0
  4 10  1  0  0  0
  5  6  2  0  0  0
  5  7  1  0  0  0
  6 25  1  0  0  0
  7  8  2  0  0  0
  7  9  1  0  0  0
  9 10  1  0  0  0
  9 11  1  0  0  0
  9 26  1  0  0  0
 10 27  1  0  0  0
 10 28  1  0  0  0
 11 12  1  0  0  0
 11 29  1  0  0  0
 11 30  1  0  0  0
 12 13  1  0  0  0
 12 19  1  0  0  0
 12 31  1  0  0  0
 13 14  1  0  0  0
 13 32  1  0  0  0
 13 33  1  0  0  0
 14 15  1  0  0  0
 14 34  1  0  0  0
 14 35  1  0  0  0
 15 16  1  0  0  0
 15 17  1  0  0  0
 15 18  1  0  0  0
 18 19  1  0  0  0
 18 36  1  0  0  0
 18 37  1  0  0  0
 19 38  1  0  0  0
 19 39  1  0  0  0
 20 21  1  0  0  0
 21 40  1  0  0  0
 21 41  1  0  0  0
 21 42  1  0  0  0
 22 23  1  0  0  0
 23 43  1  0  0  0
 23 44  1  0  0  0
 23 45  1  0  0  0
M  CHG  1  15   1
M  END
>  <Activity>
5.26761

>  <set>
2

>  <Min_dist>
0.157895

>  <Avg_dist>
0.581496

$$$$
3-13F
  Cerius2 12110214483D 1   1.00000                          
 
 54 57  0  0  0  0  0  0  0  0999 V2000
   -6.2199   -0.3209   -0.1279 C   0  0  0  0  0  0
   -5.8936    0.3458   -1.3013 C   0  0  0  0  0  0
   -4.5692    0.5684   -1.6279 C   0  0  0  0  0  0
   -3.5593    0.1302   -0.7922 C   0  0  0  0  0  0
   -3.8740   -0.5409    0.3897 C   0  0  0  0  0  0
   -5.2196   -0.7641    0.7173 C   0  0  0  0  0  0
   -2.6491   -0.9131    1.1174 C   0  0  0  0  0  0
   -2.6013   -1.5046    2.1748 O   0  0  0  0  0  0
   -1.4634   -0.4307    0.3175 C   0  0  0  0  0  0
   -2.0595    0.2473   -0.9237 C   0  0  0  0  0  0
   -0.6489    0.5764    1.1319 C   0  0  0  0  0  0
    0.6192    0.9489    0.3611 C   0  0  0  0  0  0
    1.3620    2.0625    1.1049 C   0  0  0  0  0  0
    2.6683    2.3747    0.3717 C   0  0  0  0  0  0
    3.5073    1.1712    0.3253 N   0  3  0  0  0  0
    3.6728    0.8414    1.2643 H   0  0  0  0  0  0
    2.8316    0.1225   -0.4481 C   0  0  0  0  0  0
    1.5315   -0.2764    0.2535 C   0  0  0  0  0  0
    4.7908    1.4952   -0.3117 C   0  0  0  0  0  0
    5.6533    0.2604   -0.3601 C   0  0  0  0  0  0
    5.5888   -0.5855   -1.4516 C   0  0  0  0  0  0
    6.3800   -1.7181   -1.4960 C   0  0  0  0  0  0
    7.2360   -2.0048   -0.4491 C   0  0  0  0  0  0
    7.3012   -1.1585    0.6420 C   0  0  0  0  0  0
    6.5132   -0.0235    0.6844 C   0  0  0  0  0  0
   -7.5235   -0.5330    0.1928 O   0  0  0  0  0  0
   -8.3055    0.0377   -0.8583 C   0  0  0  0  0  0
   -6.6765    0.6909   -1.9604 H   0  0  0  0  0  0
   -4.3219    1.0876   -2.5421 H   0  0  0  0  0  0
   -5.4743   -1.2826    1.6298 H   0  0  0  0  0  0
   -0.8380   -1.2737    0.0236 H   0  0  0  0  0  0
   -1.7221   -0.2616   -1.8266 H   0  0  0  0  0  0
   -1.7671    1.2969   -0.9536 H   0  0  0  0  0  0
   -1.2458    1.4721    1.3039 H   0  0  0  0  0  0
   -0.3752    0.1328    2.0892 H   0  0  0  0  0  0
    0.3507    1.2936   -0.6375 H   0  0  0  0  0  0
    0.7397    2.9568    1.1367 H   0  0  0  0  0  0
    1.5839    1.7363    2.1210 H   0  0  0  0  0  0
    2.4452    2.7010   -0.6441 H   0  0  0  0  0  0
    3.1996    3.1674    0.8985 H   0  0  0  0  0  0
    2.6050    0.4968   -1.4464 H   0  0  0  0  0  0
    3.4834   -0.7476   -0.5265 H   0  0  0  0  0  0
    1.7570   -0.6511    1.2520 H   0  0  0  0  0  0
    1.0304   -1.0538   -0.3231 H   0  0  0  0  0  0
    4.6130    1.8541   -1.3254 H   0  0  0  0  0  0
    5.2971    2.2697    0.2644 H   0  0  0  0  0  0
    4.9201   -0.3615   -2.2695 H   0  0  0  0  0  0
    6.3291   -2.3793   -2.3484 H   0  0  0  0  0  0
    7.8536   -2.8901   -0.4834 H   0  0  0  0  0  0
    7.9697   -1.3826    1.4601 H   0  0  0  0  0  0
    6.5641    0.6377    1.5368 H   0  0  0  0  0  0
   -9.3642   -0.1087   -0.6441 H   0  0  0  0  0  0
   -8.0935    1.1044   -0.9308 H   0  0  0  0  0  0
   -8.0553   -0.4474   -1.8018 H   0  0  0  0  0  0
  1  2  2  0  0  0
  1  6  1  0  0  0
  1 26  1  0  0  0
  2  3  1  0  0  0
  2 28  1  0  0  0
  3  4  2  0  0  0
  3 29  1  0  0  0
  4  5  1  0  0  0
  4 10  1  0  0  0
  5  6  2  0  0  0
  5  7  1  0  0  0
  6 30  1  0  0  0
  7  8  2  0  0  0
  7  9  1  0  0  0
  9 10  1  0  0  0
  9 11  1  0  0  0
  9 31  1  0  0  0
 10 32  1  0  0  0
 10 33  1  0  0  0
 11 12  1  0  0  0
 11 34  1  0  0  0
 11 35  1  0  0  0
 12 13  1  0  0  0
 12 18  1  0  0  0
 12 36  1  0  0  0
 13 14  1  0  0  0
 13 37  1  0  0  0
 13 38  1  0  0  0
 14 15  1  0  0  0
 14 39  1  0  0  0
 14 40  1  0  0  0
 15 16  1  0  0  0
 15 17  1  0  0  0
 15 19  1  0  0  0
 17 18  1  0  0  0
 17 41  1  0  0  0
 17 42  1  0  0  0
 18 43  1  0  0  0
 18 44  1  0  0  0
 19 20  1  0  0  0
 19 45  1  0  0  0
 19 46  1  0  0  0
 20 21  2  0  0  0
 20 25  1  0  0  0
 21 22  1  0  0  0
 21 47  1  0  0  0
 22 23  2  0  0  0
 22 48  1  0  0  0
 23 24  1  0  0  0
 23 49  1  0  0  0
 24 25  2  0  0  0
 24 50  1  0  0  0
 25 51  1  0  0  0
 26 27  1  0  0  0
 27 52  1  0  0  0
 27 53  1  0  0  0
 27 54  1  0  0  0
M  CHG  1  15   1
M  END
>  <Activity>
7.09152

>  <set>
2

>  <Min_dist>
0.028986

>  <Avg_dist>
0.449879

$$$$
3-13M
  Cerius2 12110214483D 1   1.00000                          
 
 62 65  0  0  0  0  0  0  0  0999 V2000
   -5.3556   -0.0056   -0.2086 C   0  0  0  0  0  0
   -5.0194    1.3429   -0.1652 C   0  0  0  0  0  0
   -3.6839    1.7293   -0.1408 C   0  0  0  0  0  0
   -2.6867    0.7929   -0.1590 C   0  0  0  0  0  0
   -3.0020   -0.5689   -0.2020 C   0  0  0  0  0  0
   -4.3558   -0.9654   -0.2269 C   0  0  0  0  0  0
   -4.6781   -2.2830   -0.2683 O   0  0  0  0  0  0
   -4.7898   -2.7236    1.0864 C   0  0  0  0  0  0
   -1.7834   -1.3830   -0.2145 C   0  0  0  0  0  0
   -1.7381   -2.5950   -0.2497 O   0  0  0  0  0  0
   -0.5945   -0.4541   -0.1759 C   0  0  0  0  0  0
   -1.1858    0.9619   -0.1398 C   0  0  0  0  0  0
    0.2393   -0.7124    1.0806 C   0  0  0  0  0  0
    1.5092    0.1397    1.0340 C   0  0  0  0  0  0
    2.2727   -0.0065    2.3535 C   0  0  0  0  0  0
    3.5800    0.7844    2.2703 C   0  0  0  0  0  0
    4.4002    0.2664    1.1687 N   0  3  0  0  0  0
    4.5652   -0.7192    1.3081 H   0  0  0  0  0  0
    3.7046    0.4687   -0.1079 C   0  0  0  0  0  0
    2.4021   -0.3343   -0.1163 C   0  0  0  0  0  0
    5.6854    0.9774    1.1408 C   0  0  0  0  0  0
    6.5286    0.4467    0.0101 C   0  0  0  0  0  0
    6.4458    1.0232   -1.2435 C   0  0  0  0  0  0
    7.2192    0.5363   -2.2807 C   0  0  0  0  0  0
    8.0758   -0.5268   -2.0640 C   0  0  0  0  0  0
    8.1593   -1.1027   -0.8101 C   0  0  0  0  0  0
    7.3891   -0.6130    0.2281 C   0  0  0  0  0  0
   -5.9974    2.2845   -0.1472 O   0  0  0  0  0  0
   -5.3461    3.5557   -0.1030 C   0  0  0  0  0  0
   -6.6633   -0.3824   -0.2272 O   0  0  0  0  0  0
   -7.0528   -0.4546   -1.6002 C   0  0  0  0  0  0
   -3.4314    2.7789   -0.1075 H   0  0  0  0  0  0
   -5.0490   -3.7822    1.1040 H   0  0  0  0  0  0
   -3.8384   -2.5740    1.5968 H   0  0  0  0  0  0
   -5.5673   -2.1508    1.5919 H   0  0  0  0  0  0
    0.0164   -0.5854   -1.0690 H   0  0  0  0  0  0
   -0.8611    1.5259   -1.0142 H   0  0  0  0  0  0
   -0.8779    1.4733    0.7722 H   0  0  0  0  0  0
   -0.3429   -0.4488    1.9636 H   0  0  0  0  0  0
    0.5109   -1.7670    1.1259 H   0  0  0  0  0  0
    1.2412    1.1853    0.8820 H   0  0  0  0  0  0
    1.6644    0.3808    3.1708 H   0  0  0  0  0  0
    2.4946   -1.0588    2.5309 H   0  0  0  0  0  0
    3.3570    1.8365    2.0931 H   0  0  0  0  0  0
    4.1260    0.6825    3.2082 H   0  0  0  0  0  0
    3.4790    1.5276   -0.2344 H   0  0  0  0  0  0
    4.3426    0.1339   -0.9258 H   0  0  0  0  0  0
    2.6266   -1.3934    0.0099 H   0  0  0  0  0  0
    1.8863   -0.1813   -1.0643 H   0  0  0  0  0  0
    5.5081    2.0427    0.9928 H   0  0  0  0  0  0
    6.2063    0.8236    2.0858 H   0  0  0  0  0  0
    5.7765    1.8537   -1.4128 H   0  0  0  0  0  0
    7.1540    0.9863   -3.2603 H   0  0  0  0  0  0
    8.6796   -0.9076   -2.8745 H   0  0  0  0  0  0
    8.8284   -1.9335   -0.6409 H   0  0  0  0  0  0
    7.4543   -1.0630    1.2077 H   0  0  0  0  0  0
   -6.0951    4.3474   -0.0871 H   0  0  0  0  0  0
   -4.7321    3.6183    0.7955 H   0  0  0  0  0  0
   -4.7142    3.6710   -0.9836 H   0  0  0  0  0  0
   -8.0987   -0.7545   -1.6659 H   0  0  0  0  0  0
   -6.9250    0.5225   -2.0661 H   0  0  0  0  0  0
   -6.4318   -1.1870   -2.1160 H   0  0  0  0  0  0
  1  2  2  0  0  0
  1  6  1  0  0  0
  1 30  1  0  0  0
  2  3  1  0  0  0
  2 28  1  0  0  0
  3  4  2  0  0  0
  3 32  1  0  0  0
  4  5  1  0  0  0
  4 12  1  0  0  0
  5  6  2  0  0  0
  5  9  1  0  0  0
  6  7  1  0  0  0
  7  8  1  0  0  0
  8 33  1  0  0  0
  8 34  1  0  0  0
  8 35  1  0  0  0
  9 10  2  0  0  0
  9 11  1  0  0  0
 11 12  1  0  0  0
 11 13  1  0  0  0
 11 36  1  0  0  0
 12 37  1  0  0  0
 12 38  1  0  0  0
 13 14  1  0  0  0
 13 39  1  0  0  0
 13 40  1  0  0  0
 14 15  1  0  0  0
 14 20  1  0  0  0
 14 41  1  0  0  0
 15 16  1  0  0  0
 15 42  1  0  0  0
 15 43  1  0  0  0
 16 17  1  0  0  0
 16 44  1  0  0  0
 16 45  1  0  0  0
 17 18  1  0  0  0
 17 19  1  0  0  0
 17 21  1  0  0  0
 19 20  1  0  0  0
 19 46  1  0  0  0
 19 47  1  0  0  0
 20 48  1  0  0  0
 20 49  1  0  0  0
 21 22  1  0  0  0
 21 50  1  0  0  0
 21 51  1  0  0  0
 22 23  2  0  0  0
 22 27  1  0  0  0
 23 24  1  0  0  0
 23 52  1  0  0  0
 24 25  2  0  0  0
 24 53  1  0  0  0
 25 26  1  0  0  0
 25 54  1  0  0  0
 26 27  2  0  0  0
 26 55  1  0  0  0
 27 56  1  0  0  0
 28 29  1  0  0  0
 29 57  1  0  0  0
 29 58  1  0  0  0
 29 59  1  0  0  0
 30 31  1  0  0  0
 31 60  1  0  0  0
 31 61  1  0  0  0
 31 62  1  0  0  0
M  CHG  1  17   1
M  END
>  <Activity>
7.88606

>  <set>
2

>  <Min_dist>
0.023256

>  <Avg_dist>
0.502232

$$$$
3-15B
  Cerius2 12110214483D 1   1.00000                          
 
 58 61  0  0  0  0  0  0  0  0999 V2000
   -5.6949   -0.2552   -0.2904 C   0  0  0  0  0  0
   -5.3668    1.1003   -0.2729 C   0  0  0  0  0  0
   -4.0358    1.4927   -0.2421 C   0  0  0  0  0  0
   -3.0302    0.5477   -0.2285 C   0  0  0  0  0  0
   -3.3481   -0.8121   -0.2458 C   0  0  0  0  0  0
   -4.6971   -1.2062   -0.2770 C   0  0  0  0  0  0
   -2.1276   -1.6301   -0.2267 C   0  0  0  0  0  0
   -2.0832   -2.8422   -0.2353 O   0  0  0  0  0  0
   -0.9386   -0.7009   -0.1946 C   0  0  0  0  0  0
   -1.5297    0.7155   -0.1958 C   0  0  0  0  0  0
   -0.1193   -0.9322    1.0767 C   0  0  0  0  0  0
    1.0935   -0.1044    1.0350 N   0  3  0  0  0  0
    0.8382    0.8582    0.8725 H   0  0  0  0  0  0
    1.8046   -0.2129    2.3158 C   0  0  0  0  0  0
    3.0678    0.6494    2.2724 C   0  0  0  0  0  0
    3.9410    0.1844    1.1866 N   0  3  0  0  0  0
    4.1963   -0.7782    1.3491 H   0  0  0  0  0  0
    3.2299    0.2929   -0.0942 C   0  0  0  0  0  0
    1.9667   -0.5694   -0.0509 C   0  0  0  0  0  0
    5.1538    1.0122    1.1449 C   0  0  0  0  0  0
    6.0497    0.5352    0.0310 C   0  0  0  0  0  0
    5.9202    1.0699   -1.2372 C   0  0  0  0  0  0
    6.7419    0.6323   -2.2590 C   0  0  0  0  0  0
    7.6934   -0.3397   -2.0126 C   0  0  0  0  0  0
    7.8235   -0.8738   -0.7442 C   0  0  0  0  0  0
    7.0047   -0.4331    0.2786 C   0  0  0  0  0  0
   -6.3499    2.0364   -0.2866 O   0  0  0  0  0  0
   -5.7060    3.3119   -0.2630 C   0  0  0  0  0  0
   -6.9994   -0.6388   -0.3150 O   0  0  0  0  0  0
   -7.0096   -2.0677   -0.3280 C   0  0  0  0  0  0
   -3.7857    2.5433   -0.2289 H   0  0  0  0  0  0
   -4.9521   -2.2556   -0.2906 H   0  0  0  0  0  0
   -0.3176   -0.8517   -1.0776 H   0  0  0  0  0  0
   -1.1945    1.2604   -1.0783 H   0  0  0  0  0  0
   -1.2318    1.2464    0.7083 H   0  0  0  0  0  0
   -0.7154   -0.6599    1.9476 H   0  0  0  0  0  0
    0.1605   -1.9836    1.1422 H   0  0  0  0  0  0
    1.1566    0.1322    3.1215 H   0  0  0  0  0  0
    2.0804   -1.2527    2.4913 H   0  0  0  0  0  0
    2.7920    1.6892    2.0969 H   0  0  0  0  0  0
    3.5954    0.5689    3.2228 H   0  0  0  0  0  0
    2.9541    1.3327   -0.2698 H   0  0  0  0  0  0
    3.8778   -0.0522   -0.9000 H   0  0  0  0  0  0
    2.2425   -1.6092    0.1247 H   0  0  0  0  0  0
    1.4390   -0.4889   -1.0012 H   0  0  0  0  0  0
    4.8781    2.0521    0.9694 H   0  0  0  0  0  0
    5.6815    0.9317    2.0953 H   0  0  0  0  0  0
    5.1768    1.8293   -1.4297 H   0  0  0  0  0  0
    6.6403    1.0495   -3.2500 H   0  0  0  0  0  0
    8.3349   -0.6822   -2.8111 H   0  0  0  0  0  0
    8.5667   -1.6334   -0.5518 H   0  0  0  0  0  0
    7.1063   -0.8503    1.2696 H   0  0  0  0  0  0
   -6.4594    4.0995   -0.2729 H   0  0  0  0  0  0
   -5.1026    3.3977    0.6407 H   0  0  0  0  0  0
   -5.0648    3.4115   -1.1388 H   0  0  0  0  0  0
   -8.0397   -2.4236   -0.3479 H   0  0  0  0  0  0
   -6.4840   -2.4268   -1.2129 H   0  0  0  0  0  0
   -6.5129   -2.4428    0.5668 H   0  0  0  0  0  0
  1  2  2  0  0  0
  1  6  1  0  0  0
  1 29  1  0  0  0
  2  3  1  0  0  0
  2 27  1  0  0  0
  3  4  2  0  0  0
  3 31  1  0  0  0
  4  5  1  0  0  0
  4 10  1  0  0  0
  5  6  2  0  0  0
  5  7  1  0  0  0
  6 32  1  0  0  0
  7  8  2  0  0  0
  7  9  1  0  0  0
  9 10  1  0  0  0
  9 11  1  0  0  0
  9 33  1  0  0  0
 10 34  1  0  0  0
 10 35  1  0  0  0
 11 12  1  0  0  0
 11 36  1  0  0  0
 11 37  1  0  0  0
 12 13  1  0  0  0
 12 14  1  0  0  0
 12 19  1  0  0  0
 14 15  1  0  0  0
 14 38  1  0  0  0
 14 39  1  0  0  0
 15 16  1  0  0  0
 15 40  1  0  0  0
 15 41  1  0  0  0
 16 17  1  0  0  0
 16 18  1  0  0  0
 16 20  1  0  0  0
 18 19  1  0  0  0
 18 42  1  0  0  0
 18 43  1  0  0  0
 19 44  1  0  0  0
 19 45  1  0  0  0
 20 21  1  0  0  0
 20 46  1  0  0  0
 20 47  1  0  0  0
 21 22  2  0  0  0
 21 26  1  0  0  0
 22 23  1  0  0  0
 22 48  1  0  0  0
 23 24  2  0  0  0
 23 49  1  0  0  0
 24 25  1  0  0  0
 24 50  1  0  0  0
 25 26  2  0  0  0
 25 51  1  0  0  0
 26 52  1  0  0  0
 27 28  1  0  0  0
 28 53  1  0  0  0
 28 54  1  0  0  0
 28 55  1  0  0  0
 29 30  1  0  0  0
 30 56  1  0  0  0
 30 57  1  0  0  0
 30 58  1  0  0  0
M  CHG  2  12   1  16   1
M  END
>  <Activity>
7.02687

>  <set>
2

>  <Min_dist>
0.151899

>  <Avg_dist>
0.551533

$$$$
3-16E
  Cerius2 12110214483D 1   1.00000                          
 
 60 63  0  0  0  0  0  0  0  0999 V2000
   -6.4315    0.3855   -0.4639 C   0  0  0  0  0  0
   -6.1002    0.9534    0.7662 C   0  0  0  0  0  0
   -4.7780    0.9751    1.1878 C   0  0  0  0  0  0
   -3.7845    0.4367    0.3958 C   0  0  0  0  0  0
   -4.1057   -0.1342   -0.8376 C   0  0  0  0  0  0
   -5.4457   -0.1546   -1.2617 C   0  0  0  0  0  0
   -2.8983   -0.6407   -1.5047 C   0  0  0  0  0  0
   -2.8595   -1.1875   -2.5867 O   0  0  0  0  0  0
   -1.7147   -0.3627   -0.6103 C   0  0  0  0  0  0
   -2.2950    0.3385    0.6255 C   0  0  0  0  0  0
   -1.0362   -1.6732   -0.2063 C   0  0  0  0  0  0
    0.2371   -1.3657    0.5842 C   0  0  0  0  0  0
    0.8392   -2.6707    1.1130 C   0  0  0  0  0  0
    2.1536   -2.3642    1.8342 C   0  0  0  0  0  0
    3.0932   -1.7335    0.8994 N   0  3  0  0  0  0
    3.2328   -2.3392    0.1046 H   0  0  0  0  0  0
    2.5540   -0.4468    0.4434 C   0  0  0  0  0  0
    1.2551   -0.6795   -0.3313 C   0  0  0  0  0  0
    4.3784   -1.5107    1.5751 C   0  0  0  0  0  0
    5.3443   -0.8632    0.6165 C   0  0  0  0  0  0
    5.4138    0.5145    0.5307 C   0  0  0  0  0  0
    6.2999    1.1085   -0.3488 C   0  0  0  0  0  0
    7.1165    0.3246   -1.1419 C   0  0  0  0  0  0
    7.0476   -1.0535   -1.0554 C   0  0  0  0  0  0
    6.1649   -1.6473   -0.1731 C   0  0  0  0  0  0
    6.3737    2.5839   -0.4414 N   0  3  0  0  0  0
    7.1543    3.1072   -1.2161 O   0  0  0  0  0  0
    5.6538    3.2747    0.2573 O   0  5  0  0  0  0
   -7.0714    1.4856    1.5513 O   0  0  0  0  0  0
   -6.4271    1.9812    2.7266 C   0  0  0  0  0  0
   -7.7281    0.3597   -0.8737 O   0  0  0  0  0  0
   -7.7442   -0.2763   -2.1533 C   0  0  0  0  0  0
   -4.5253    1.4160    2.1408 H   0  0  0  0  0  0
   -5.7033   -0.5941   -2.2140 H   0  0  0  0  0  0
   -1.0042    0.2908   -1.1164 H   0  0  0  0  0  0
   -1.8652    1.3350    0.7270 H   0  0  0  0  0  0
   -2.0921   -0.2503    1.5201 H   0  0  0  0  0  0
   -1.7160   -2.2584    0.4130 H   0  0  0  0  0  0
   -0.7803   -2.2407   -1.1011 H   0  0  0  0  0  0
   -0.0028   -0.7096    1.4209 H   0  0  0  0  0  0
    0.1423   -3.1372    1.8092 H   0  0  0  0  0  0
    1.0303   -3.3472    0.2801 H   0  0  0  0  0  0
    1.9613   -1.6878    2.6671 H   0  0  0  0  0  0
    2.5848   -3.2911    2.2121 H   0  0  0  0  0  0
    2.3532    0.1887    1.3059 H   0  0  0  0  0  0
    3.2809    0.0418   -0.2055 H   0  0  0  0  0  0
    1.4547   -1.3147   -1.1943 H   0  0  0  0  0  0
    0.8554    0.2772   -0.6675 H   0  0  0  0  0  0
    4.2283   -0.8586    2.4355 H   0  0  0  0  0  0
    4.7836   -2.4658    1.9093 H   0  0  0  0  0  0
    4.7758    1.1270    1.1504 H   0  0  0  0  0  0
    7.8082    0.7886   -1.8294 H   0  0  0  0  0  0
    7.6854   -1.6661   -1.6754 H   0  0  0  0  0  0
    6.1110   -2.7239   -0.1056 H   0  0  0  0  0  0
   -7.1712    2.4204    3.3910 H   0  0  0  0  0  0
   -5.9227    1.1611    3.2376 H   0  0  0  0  0  0
   -5.6960    2.7400    2.4476 H   0  0  0  0  0  0
   -8.7681   -0.3203   -2.5243 H   0  0  0  0  0  0
   -7.1295    0.2936   -2.8501 H   0  0  0  0  0  0
   -7.3472   -1.2873   -2.0616 H   0  0  0  0  0  0
  1  2  2  0  0  0
  1  6  1  0  0  0
  1 31  1  0  0  0
  2  3  1  0  0  0
  2 29  1  0  0  0
  3  4  2  0  0  0
  3 33  1  0  0  0
  4  5  1  0  0  0
  4 10  1  0  0  0
  5  6  2  0  0  0
  5  7  1  0  0  0
  6 34  1  0  0  0
  7  8  2  0  0  0
  7  9  1  0  0  0
  9 10  1  0  0  0
  9 11  1  0  0  0
  9 35  1  0  0  0
 10 36  1  0  0  0
 10 37  1  0  0  0
 11 12  1  0  0  0
 11 38  1  0  0  0
 11 39  1  0  0  0
 12 13  1  0  0  0
 12 18  1  0  0  0
 12 40  1  0  0  0
 13 14  1  0  0  0
 13 41  1  0  0  0
 13 42  1  0  0  0
 14 15  1  0  0  0
 14 43  1  0  0  0
 14 44  1  0  0  0
 15 16  1  0  0  0
 15 17  1  0  0  0
 15 19  1  0  0  0
 17 18  1  0  0  0
 17 45  1  0  0  0
 17 46  1  0  0  0
 18 47  1  0  0  0
 18 48  1  0  0  0
 19 20  1  0  0  0
 19 49  1  0  0  0
 19 50  1  0  0  0
 20 21  2  0  0  0
 20 25  1  0  0  0
 21 22  1  0  0  0
 21 51  1  0  0  0
 22 23  2  0  0  0
 22 26  1  0  0  0
 23 24  1  0  0  0
 23 52  1  0  0  0
 24 25  2  0  0  0
 24 53  1  0  0  0
 25 54  1  0  0  0
 26 27  2  0  0  0
 26 28  1  0  0  0
 29 30  1  0  0  0
 30 55  1  0  0  0
 30 56  1  0  0  0
 30 57  1  0  0  0
 31 32  1  0  0  0
 32 58  1  0  0  0
 32 59  1  0  0  0
 32 60  1  0  0  0
M  CHG  3  15   1  26   1  28  -1
M  END
>  <Activity>
8.39794

>  <set>
2

>  <Min_dist>
0.106383

>  <Avg_dist>
0.505762

$$$$
3-16H
  Cerius2 12110214483D 1   1.00000                          
 
 61 64  0  0  0  0  0  0  0  0999 V2000
   -4.2346    1.1332    0.4980 C   0  0  0  0  0  0
   -5.0745    0.8147   -0.7406 C   0  0  0  0  0  0
   -5.8931   -0.4249   -0.4871 C   0  0  0  0  0  0
   -7.1585   -0.3179    0.0589 C   0  0  0  0  0  0
   -7.9094   -1.4550    0.2914 C   0  0  0  0  0  0
   -7.3951   -2.6991   -0.0226 C   0  0  0  0  0  0
   -6.1300   -2.8060   -0.5695 C   0  0  0  0  0  0
   -5.3808   -1.6686   -0.8060 C   0  0  0  0  0  0
   -3.4366    2.3416    0.2510 N   0  3  0  0  0  0
   -4.0528    3.1158    0.0536 H   0  0  0  0  0  0
   -2.6341    2.6480    1.4412 C   0  0  0  0  0  0
   -1.7547    1.4457    1.7914 C   0  0  0  0  0  0
   -0.8262    1.1387    0.6129 C   0  0  0  0  0  0
    0.0003   -0.1106    0.9246 C   0  0  0  0  0  0
    0.9273   -0.4159   -0.2537 C   0  0  0  0  0  0
    1.8845    0.7296   -0.4763 C   0  0  0  0  0  0
    1.5775    1.8698   -0.7537 O   0  0  0  0  0  0
    3.2529    0.2244   -0.2986 C   0  0  0  0  0  0
    4.4827    0.8978   -0.3994 C   0  0  0  0  0  0
    5.6627    0.2171   -0.1891 C   0  0  0  0  0  0
    5.6379   -1.1419    0.1238 C   0  0  0  0  0  0
    4.4252   -1.8097    0.2241 C   0  0  0  0  0  0
    3.2389   -1.1363    0.0156 C   0  0  0  0  0  0
    1.8120   -1.6285    0.0662 C   0  0  0  0  0  0
    6.8004   -1.8120    0.3299 O   0  0  0  0  0  0
    6.4500   -3.1651    0.6271 C   0  0  0  0  0  0
    6.8514    0.8706   -0.2872 O   0  0  0  0  0  0
    6.5504    2.2285   -0.6149 C   0  0  0  0  0  0
   -1.6718    0.8939   -0.6402 C   0  0  0  0  0  0
   -2.5530    2.1160   -0.8992 C   0  0  0  0  0  0
   -4.8930    1.3006    1.3503 H   0  0  0  0  0  0
   -3.5698    0.2962    0.7113 H   0  0  0  0  0  0
   -5.7392    1.6518   -0.9539 H   0  0  0  0  0  0
   -4.4160    0.6473   -1.5929 H   0  0  0  0  0  0
   -7.5604    0.6541    0.3042 H   0  0  0  0  0  0
   -8.8978   -1.3714    0.7186 H   0  0  0  0  0  0
   -7.9814   -3.5875    0.1597 H   0  0  0  0  0  0
   -5.7280   -3.7780   -0.8144 H   0  0  0  0  0  0
   -4.3925   -1.7522   -1.2332 H   0  0  0  0  0  0
   -2.0024    3.5132    1.2401 H   0  0  0  0  0  0
   -3.2962    2.8693    2.2782 H   0  0  0  0  0  0
   -1.1583    1.6758    2.6743 H   0  0  0  0  0  0
   -2.3854    0.5798    1.9930 H   0  0  0  0  0  0
   -0.1593    1.9843    0.4445 H   0  0  0  0  0  0
    0.5964    0.0623    1.8206 H   0  0  0  0  0  0
   -0.6675   -0.9560    1.0900 H   0  0  0  0  0  0
    0.3430   -0.6003   -1.1552 H   0  0  0  0  0  0
    4.5031    1.9499   -0.6424 H   0  0  0  0  0  0
    4.4100   -2.8621    0.4662 H   0  0  0  0  0  0
    1.5818   -2.0079    1.0618 H   0  0  0  0  0  0
    1.6590   -2.4104   -0.6777 H   0  0  0  0  0  0
    7.3563   -3.7452    0.8012 H   0  0  0  0  0  0
    5.8250   -3.1910    1.5198 H   0  0  0  0  0  0
    5.9015   -3.5913   -0.2129 H   0  0  0  0  0  0
    7.4775    2.7948   -0.7044 H   0  0  0  0  0  0
    6.0108    2.2629   -1.5613 H   0  0  0  0  0  0
    5.9333    2.6638    0.1712 H   0  0  0  0  0  0
   -1.0162    0.7296   -1.4953 H   0  0  0  0  0  0
   -2.3008    0.0166   -0.4891 H   0  0  0  0  0  0
   -3.1566    1.9458   -1.7907 H   0  0  0  0  0  0
   -1.9227    2.9924   -1.0501 H   0  0  0  0  0  0
  1  2  1  0  0  0
  1  9  1  0  0  0
  1 31  1  0  0  0
  1 32  1  0  0  0
  2  3  1  0  0  0
  2 33  1  0  0  0
  2 34  1  0  0  0
  3  4  2  0  0  0
  3  8  1  0  0  0
  4  5  1  0  0  0
  4 35  1  0  0  0
  5  6  2  0  0  0
  5 36  1  0  0  0
  6  7  1  0  0  0
  6 37  1  0  0  0
  7  8  2  0  0  0
  7 38  1  0  0  0
  8 39  1  0  0  0
  9 10  1  0  0  0
  9 11  1  0  0  0
  9 30  1  0  0  0
 11 12  1  0  0  0
 11 40  1  0  0  0
 11 41  1  0  0  0
 12 13  1  0  0  0
 12 42  1  0  0  0
 12 43  1  0  0  0
 13 14  1  0  0  0
 13 29  1  0  0  0
 13 44  1  0  0  0
 14 15  1  0  0  0
 14 45  1  0  0  0
 14 46  1  0  0  0
 15 16  1  0  0  0
 15 24  1  0  0  0
 15 47  1  0  0  0
 16 17  2  0  0  0
 16 18  1  0  0  0
 18 19  2  0  0  0
 18 23  1  0  0  0
 19 20  1  0  0  0
 19 48  1  0  0  0
 20 21  2  0  0  0
 20 27  1  0  0  0
 21 22  1  0  0  0
 21 25  1  0  0  0
 22 23  2  0  0  0
 22 49  1  0  0  0
 23 24  1  0  0  0
 24 50  1  0  0  0
 24 51  1  0  0  0
 25 26  1  0  0  0
 26 52  1  0  0  0
 26 53  1  0  0  0
 26 54  1  0  0  0
 27 28  1  0  0  0
 28 55  1  0  0  0
 28 56  1  0  0  0
 28 57  1  0  0  0
 29 30  1  0  0  0
 29 58  1  0  0  0
 29 59  1  0  0  0
 30 60  1  0  0  0
 30 61  1  0  0  0
M  CHG  1   9   1
M  END
>  <Activity>
6.74473

>  <set>
2

>  <Min_dist>
0.13253

>  <Avg_dist>
0.482842

$$$$
3-17
  Cerius2 12110214483D 1   1.00000                          
 
 60 63  0  0  0  0  0  0  0  0999 V2000
   -5.5396    0.1494   -0.2186 C   0  0  0  0  0  0
   -5.1635   -1.0220    0.4316 C   0  0  0  0  0  0
   -3.8686   -1.1628    0.9006 C   0  0  0  0  0  0
   -2.9483   -0.1427    0.7252 C   0  0  0  0  0  0
   -3.3221    1.0214    0.0792 C   0  0  0  0  0  0
   -4.6164    1.1663   -0.3921 C   0  0  0  0  0  0
   -2.1452    1.9718    0.0161 C   0  0  0  0  0  0
   -0.9048    1.0979    0.2982 C   0  0  0  0  0  0
   -1.4949   -0.0534    1.1398 C   0  0  0  0  0  0
   -0.3057    0.5668   -1.0057 C   0  0  0  0  0  0
    0.9196   -0.2936   -0.6907 C   0  0  0  0  0  0
    1.5203   -0.8261   -1.9948 C   0  0  0  0  0  0
    2.7901   -1.6193   -1.6786 C   0  0  0  0  0  0
    3.7629   -0.7465   -1.0105 N   0  3  0  0  0  0
    3.9547    0.0522   -1.5964 H   0  0  0  0  0  0
    3.2216   -0.2897    0.2751 C   0  0  0  0  0  0
    1.9684    0.5547    0.0341 C   0  0  0  0  0  0
    5.0076   -1.4912   -0.7775 C   0  0  0  0  0  0
    6.0074   -0.5963   -0.0915 C   0  0  0  0  0  0
    6.0534   -0.5420    1.2890 C   0  0  0  0  0  0
    6.9705    0.2789    1.9182 C   0  0  0  0  0  0
    7.8419    1.0451    1.1670 C   0  0  0  0  0  0
    7.7965    0.9901   -0.2135 C   0  0  0  0  0  0
    6.8823    0.1660   -0.8427 C   0  0  0  0  0  0
   -2.2737    2.9870    1.0134 O   0  0  0  0  0  0
   -6.0652   -2.0250    0.6061 O   0  0  0  0  0  0
   -5.3857   -3.0757    1.2962 C   0  0  0  0  0  0
   -6.8083    0.2925   -0.6870 O   0  0  0  0  0  0
   -6.8809    1.5837   -1.2949 C   0  0  0  0  0  0
   -3.5751   -2.0713    1.4054 H   0  0  0  0  0  0
   -4.9065    2.0760   -0.8968 H   0  0  0  0  0  0
   -2.0743    2.4206   -0.9747 H   0  0  0  0  0  0
   -0.1611    1.6536    0.8694 H   0  0  0  0  0  0
   -1.4182    0.1770    2.2024 H   0  0  0  0  0  0
   -0.9799   -0.9877    0.9164 H   0  0  0  0  0  0
   -1.0487   -0.0362   -1.5277 H   0  0  0  0  0  0
   -0.0090    1.4044   -1.6369 H   0  0  0  0  0  0
    0.6245   -1.1301   -0.0572 H   0  0  0  0  0  0
    0.7986   -1.4763   -2.4893 H   0  0  0  0  0  0
    1.7669    0.0096   -2.6498 H   0  0  0  0  0  0
    2.5424   -2.4548   -1.0238 H   0  0  0  0  0  0
    3.2203   -2.0000   -2.6050 H   0  0  0  0  0  0
    2.9647   -1.1535    0.8883 H   0  0  0  0  0  0
    3.9704    0.3113    0.7912 H   0  0  0  0  0  0
    2.2243    1.4190   -0.5788 H   0  0  0  0  0  0
    1.5670    0.8915    0.9899 H   0  0  0  0  0  0
    4.8010   -2.3558   -0.1467 H   0  0  0  0  0  0
    5.4145   -1.8263   -1.7316 H   0  0  0  0  0  0
    5.3726   -1.1406    1.8760 H   0  0  0  0  0  0
    7.0060    0.3219    2.9968 H   0  0  0  0  0  0
    8.5580    1.6870    1.6586 H   0  0  0  0  0  0
    8.4771    1.5890   -0.8005 H   0  0  0  0  0  0
    6.8469    0.1230   -1.9213 H   0  0  0  0  0  0
   -3.0858    3.4730    0.8146 H   0  0  0  0  0  0
   -6.0722   -3.9065    1.4596 H   0  0  0  0  0  0
   -4.5399   -3.4155    0.6985 H   0  0  0  0  0  0
   -5.0267   -2.7067    2.2570 H   0  0  0  0  0  0
   -7.8851    1.7447   -1.6873 H   0  0  0  0  0  0
   -6.6543    2.3484   -0.5520 H   0  0  0  0  0  0
   -6.1589    1.6430   -2.1093 H   0  0  0  0  0  0
  1  2  2  0  0  0
  1  6  1  0  0  0
  1 28  1  0  0  0
  2  3  1  0  0  0
  2 26  1  0  0  0
  3  4  2  0  0  0
  3 30  1  0  0  0
  4  5  1  0  0  0
  4  9  1  0  0  0
  5  6  2  0  0  0
  5  7  1  0  0  0
  6 31  1  0  0  0
  7  8  1  0  0  0
  7 25  1  0  0  0
  7 32  1  0  0  0
  8  9  1  0  0  0
  8 10  1  0  0  0
  8 33  1  0  0  0
  9 34  1  0  0  0
  9 35  1  0  0  0
 10 11  1  0  0  0
 10 36  1  0  0  0
 10 37  1  0  0  0
 11 12  1  0  0  0
 11 17  1  0  0  0
 11 38  1  0  0  0
 12 13  1  0  0  0
 12 39  1  0  0  0
 12 40  1  0  0  0
 13 14  1  0  0  0
 13 41  1  0  0  0
 13 42  1  0  0  0
 14 15  1  0  0  0
 14 16  1  0  0  0
 14 18  1  0  0  0
 16 17  1  0  0  0
 16 43  1  0  0  0
 16 44  1  0  0  0
 17 45  1  0  0  0
 17 46  1  0  0  0
 18 19  1  0  0  0
 18 47  1  0  0  0
 18 48  1  0  0  0
 19 20  2  0  0  0
 19 24  1  0  0  0
 20 21  1  0  0  0
 20 49  1  0  0  0
 21 22  2  0  0  0
 21 50  1  0  0  0
 22 23  1  0  0  0
 22 51  1  0  0  0
 23 24  2  0  0  0
 23 52  1  0  0  0
 24 53  1  0  0  0
 25 54  1  0  0  0
 26 27  1  0  0  0
 27 55  1  0  0  0
 27 56  1  0  0  0
 27 57  1  0  0  0
 28 29  1  0  0  0
 29 58  1  0  0  0
 29 59  1  0  0  0
 29 60  1  0  0  0
M  CHG  1  14   1
M  END
>  <Activity>
6.52288

>  <set>
2

>  <Min_dist>
0.1625

>  <Avg_dist>
0.520871

$$$$
3-18
  Cerius2 12110214483D 1   1.00000                          
 
 57 60  0  0  0  0  0  0  0  0999 V2000
   -4.6743    1.3470   -0.3326 C   0  0  0  0  0  0
   -5.1535    0.4292    0.5990 C   0  0  0  0  0  0
   -4.4533   -0.7454    0.8383 C   0  0  0  0  0  0
   -3.2874   -1.0017    0.1554 C   0  0  0  0  0  0
   -2.7964   -0.0894   -0.7814 C   0  0  0  0  0  0
   -3.5028    1.0925   -1.0207 C   0  0  0  0  0  0
   -1.5445   -0.6191   -1.3528 C   0  0  0  0  0  0
   -1.2410   -1.7928   -0.8263 C   0  0  0  0  0  0
   -2.3104   -2.1523    0.1785 C   0  0  0  0  0  0
   -0.0356   -2.6294   -1.1700 C   0  0  0  0  0  0
    1.1263   -2.2526   -0.2487 C   0  0  0  0  0  0
    2.3521   -3.1019   -0.5967 C   0  0  0  0  0  0
    3.5323   -2.6652    0.2739 C   0  0  0  0  0  0
    3.8300   -1.2494    0.0265 N   0  3  0  0  0  0
    4.0164   -1.1125   -0.9556 H   0  0  0  0  0  0
    2.6847   -0.4225    0.4255 C   0  0  0  0  0  0
    1.4719   -0.7729   -0.4392 C   0  0  0  0  0  0
    5.0104   -0.8551    0.8070 C   0  0  0  0  0  0
    5.3172    0.5985    0.5541 C   0  0  0  0  0  0
    4.7501    1.5738    1.3528 C   0  0  0  0  0  0
    5.0315    2.9072    1.1207 C   0  0  0  0  0  0
    5.8805    3.2652    0.0902 C   0  0  0  0  0  0
    6.4484    2.2898   -0.7079 C   0  0  0  0  0  0
    6.1704    0.9562   -0.4731 C   0  0  0  0  0  0
   -6.3059    0.6837    1.2740 O   0  0  0  0  0  0
   -6.5295   -0.4281    2.1434 C   0  0  0  0  0  0
   -5.3642    2.4946   -0.5701 O   0  0  0  0  0  0
   -4.6319    3.2193   -1.5604 C   0  0  0  0  0  0
   -4.8239   -1.4576    1.5608 H   0  0  0  0  0  0
   -3.1341    1.8059   -1.7427 H   0  0  0  0  0  0
   -0.9535   -0.1145   -2.1027 H   0  0  0  0  0  0
   -1.8746   -2.2573    1.1720 H   0  0  0  0  0  0
   -2.8087   -3.0762   -0.1152 H   0  0  0  0  0  0
   -0.2761   -3.6844   -1.0387 H   0  0  0  0  0  0
    0.2490   -2.4479   -2.2065 H   0  0  0  0  0  0
    0.8418   -2.4310    0.7883 H   0  0  0  0  0  0
    2.1316   -4.1529   -0.4103 H   0  0  0  0  0  0
    2.6044   -2.9632   -1.6480 H   0  0  0  0  0  0
    3.2791   -2.8046    1.3249 H   0  0  0  0  0  0
    4.4067   -3.2681    0.0287 H   0  0  0  0  0  0
    2.4495   -0.6097    1.4733 H   0  0  0  0  0  0
    2.9334    0.6303    0.2924 H   0  0  0  0  0  0
    1.7059   -0.5858   -1.4873 H   0  0  0  0  0  0
    0.6222   -0.1592   -0.1402 H   0  0  0  0  0  0
    4.8110   -1.0050    1.8681 H   0  0  0  0  0  0
    5.8636   -1.4639    0.5080 H   0  0  0  0  0  0
    4.0868    1.2941    2.1579 H   0  0  0  0  0  0
    4.5878    3.6692    1.7443 H   0  0  0  0  0  0
    6.0998    4.3069   -0.0915 H   0  0  0  0  0  0
    7.1114    2.5696   -1.5132 H   0  0  0  0  0  0
    6.6141    0.1942   -1.0967 H   0  0  0  0  0  0
   -7.4477   -0.2684    2.7087 H   0  0  0  0  0  0
   -6.6206   -1.3392    1.5521 H   0  0  0  0  0  0
   -5.6907   -0.5247    2.8328 H   0  0  0  0  0  0
   -5.1493    4.1521   -1.7847 H   0  0  0  0  0  0
   -3.6326    3.4393   -1.1848 H   0  0  0  0  0  0
   -4.5553    2.6193   -2.4671 H   0  0  0  0  0  0
  1  2  2  0  0  0
  1  6  1  0  0  0
  1 27  1  0  0  0
  2  3  1  0  0  0
  2 25  1  0  0  0
  3  4  2  0  0  0
  3 29  1  0  0  0
  4  5  1  0  0  0
  4  9  1  0  0  0
  5  6  2  0  0  0
  5  7  1  0  0  0
  6 30  1  0  0  0
  7  8  2  0  0  0
  7 31  1  0  0  0
  8  9  1  0  0  0
  8 10  1  0  0  0
  9 32  1  0  0  0
  9 33  1  0  0  0
 10 11  1  0  0  0
 10 34  1  0  0  0
 10 35  1  0  0  0
 11 12  1  0  0  0
 11 17  1  0  0  0
 11 36  1  0  0  0
 12 13  1  0  0  0
 12 37  1  0  0  0
 12 38  1  0  0  0
 13 14  1  0  0  0
 13 39  1  0  0  0
 13 40  1  0  0  0
 14 15  1  0  0  0
 14 16  1  0  0  0
 14 18  1  0  0  0
 16 17  1  0  0  0
 16 41  1  0  0  0
 16 42  1  0  0  0
 17 43  1  0  0  0
 17 44  1  0  0  0
 18 19  1  0  0  0
 18 45  1  0  0  0
 18 46  1  0  0  0
 19 20  2  0  0  0
 19 24  1  0  0  0
 20 21  1  0  0  0
 20 47  1  0  0  0
 21 22  2  0  0  0
 21 48  1  0  0  0
 22 23  1  0  0  0
 22 49  1  0  0  0
 23 24  2  0  0  0
 23 50  1  0  0  0
 24 51  1  0  0  0
 25 26  1  0  0  0
 26 52  1  0  0  0
 26 53  1  0  0  0
 26 54  1  0  0  0
 27 28  1  0  0  0
 28 55  1  0  0  0
 28 56  1  0  0  0
 28 57  1  0  0  0
M  CHG  1  14   1
M  END
>  <Activity>
5.35655

>  <set>
2

>  <Min_dist>
0.277108

>  <Avg_dist>
0.547355

$$$$
