MECLONAZEPAM
  Cerius2 12110214493D 1   1.00000                          
 
 35 37  0  0  0  0  0  0  0  0999 V2000
   -3.4267    0.3393    0.2942 C   0  0  0  0  0  0
   -2.7120   -0.7584   -0.1562 C   0  0  0  0  0  0
   -1.3382   -0.7133   -0.2035 C   0  0  0  0  0  0
   -0.6483    0.4396    0.2020 C   0  0  0  0  0  0
   -1.3696    1.5420    0.6556 C   0  0  0  0  0  0
   -2.7640    1.4780    0.6959 C   0  0  0  0  0  0
   -0.7737    2.7193    1.0804 N   0  0  0  0  0  0
    0.2730    3.3009    0.4991 C   0  0  0  0  0  0
    0.6770    4.3590    0.9329 O   0  0  0  0  0  0
    0.9681    2.6798   -0.6816 C   0  0  0  0  0  0
    1.5506    1.4031   -0.2703 N   0  0  0  0  0  0
    0.8207    0.4189    0.1226 C   0  0  0  0  0  0
    1.5111   -0.8279    0.5256 C   0  0  0  0  0  0
    1.0609   -1.5525    1.6293 C   0  0  0  0  0  0
    1.7081   -2.7130    1.9998 C   0  0  0  0  0  0
    2.8025   -3.1593    1.2798 C   0  0  0  0  0  0
    3.2549   -2.4462    0.1849 C   0  0  0  0  0  0
    2.6115   -1.2859   -0.2008 C   0  0  0  0  0  0
    3.1799   -0.3916   -1.5759 Cl  0  0  0  0  0  0
   -0.0430    2.4433   -1.8053 C   0  0  0  0  0  0
   -3.4272   -1.9809   -0.5865 N   0  3  0  0  0  0
   -4.6438   -2.0213   -0.5445 O   0  0  0  0  0  0
   -2.7991   -2.9463   -0.9827 O   0  5  0  0  0  0
   -4.5057    0.3039    0.3264 H   0  0  0  0  0  0
   -0.7858   -1.5722   -0.5551 H   0  0  0  0  0  0
   -3.3285    2.3300    1.0451 H   0  0  0  0  0  0
   -1.1491    3.1534    1.8625 H   0  0  0  0  0  0
    1.7572    3.3450   -1.0321 H   0  0  0  0  0  0
    0.2075   -1.2055    2.1929 H   0  0  0  0  0  0
    1.3601   -3.2745    2.8542 H   0  0  0  0  0  0
    3.3056   -4.0683    1.5746 H   0  0  0  0  0  0
    4.1096   -2.7994   -0.3727 H   0  0  0  0  0  0
    0.4623    1.9933   -2.6599 H   0  0  0  0  0  0
   -0.8276    1.7737   -1.4531 H   0  0  0  0  0  0
   -0.4838    3.3946   -2.1035 H   0  0  0  0  0  0
  1  2  1  0  0  0
  1  6  2  0  0  0
  1 24  1  0  0  0
  2  3  2  0  0  0
  2 21  1  0  0  0
  3  4  1  0  0  0
  3 25  1  0  0  0
  4  5  2  0  0  0
  4 12  1  0  0  0
  5  6  1  0  0  0
  5  7  1  0  0  0
  6 26  1  0  0  0
  7  8  1  0  0  0
  7 27  1  0  0  0
  8  9  2  0  0  0
  8 10  1  0  0  0
 10 11  1  0  0  0
 10 20  1  0  0  0
 10 28  1  0  0  0
 11 12  2  0  0  0
 12 13  1  0  0  0
 13 14  1  0  0  0
 13 18  2  0  0  0
 14 15  2  0  0  0
 14 29  1  0  0  0
 15 16  1  0  0  0
 15 30  1  0  0  0
 16 17  2  0  0  0
 16 31  1  0  0  0
 17 18  1  0  0  0
 17 32  1  0  0  0
 18 19  1  0  0  0
 20 33  1  0  0  0
 20 34  1  0  0  0
 20 35  1  0  0  0
 21 22  2  0  0  0
 21 23  1  0  0  0
M  CHG  2  21   1  23  -1
M  END
>  <Activity>
8.92082

>  <set>
1

>  <Min_dist>
999.9

>  <Avg_dist>
999.9

$$$$
RO05-4435
  Cerius2 12110214493D 1   1.00000                          
 
 32 34  0  0  0  0  0  0  0  0999 V2000
   -3.2093    0.6032    0.3203 C   0  0  0  0  0  0
   -2.5804   -0.5481   -0.1244 C   0  0  0  0  0  0
   -1.2137   -0.5708   -0.2772 C   0  0  0  0  0  0
   -0.4447    0.5662    0.0146 C   0  0  0  0  0  0
   -1.0796    1.7226    0.4626 C   0  0  0  0  0  0
   -2.4683    1.7273    0.6105 C   0  0  0  0  0  0
   -0.4016    2.8895    0.7793 N   0  0  0  0  0  0
    0.6215    3.3914    0.0916 C   0  0  0  0  0  0
    1.1038    4.4489    0.4379 O   0  0  0  0  0  0
    1.1954    2.6809   -1.1038 C   0  0  0  0  0  0
    1.7515    1.3995   -0.6711 N   0  0  0  0  0  0
    1.0116    0.4715   -0.1736 C   0  0  0  0  0  0
    1.6754   -0.7853    0.2407 C   0  0  0  0  0  0
    1.2808   -1.4334    1.4115 C   0  0  0  0  0  0
    1.9029   -2.6038    1.7923 C   0  0  0  0  0  0
    2.9177   -3.1372    1.0167 C   0  0  0  0  0  0
    3.3153   -2.5020   -0.1449 C   0  0  0  0  0  0
    2.6959   -1.3309   -0.5420 C   0  0  0  0  0  0
    3.0842   -0.7104   -1.6775 F   0  0  0  0  0  0
   -3.3796   -1.7547   -0.4349 N   0  3  0  0  0  0
   -4.5899   -1.7351   -0.2993 O   0  0  0  0  0  0
   -2.8269   -2.7672   -0.8259 O   0  5  0  0  0  0
   -4.2830    0.6208    0.4354 H   0  0  0  0  0  0
   -0.7284   -1.4711   -0.6241 H   0  0  0  0  0  0
   -2.9662    2.6214    0.9555 H   0  0  0  0  0  0
   -0.6961    3.3787    1.5635 H   0  0  0  0  0  0
    0.4087    2.5081   -1.8382 H   0  0  0  0  0  0
    1.9834    3.2899   -1.5468 H   0  0  0  0  0  0
    0.4897   -1.0189    2.0188 H   0  0  0  0  0  0
    1.5975   -3.1056    2.6986 H   0  0  0  0  0  0
    3.4015   -4.0537    1.3207 H   0  0  0  0  0  0
    4.1077   -2.9233   -0.7456 H   0  0  0  0  0  0
  1  2  1  0  0  0
  1  6  2  0  0  0
  1 23  1  0  0  0
  2  3  2  0  0  0
  2 20  1  0  0  0
  3  4  1  0  0  0
  3 24  1  0  0  0
  4  5  2  0  0  0
  4 12  1  0  0  0
  5  6  1  0  0  0
  5  7  1  0  0  0
  6 25  1  0  0  0
  7  8  1  0  0  0
  7 26  1  0  0  0
  8  9  2  0  0  0
  8 10  1  0  0  0
 10 11  1  0  0  0
 10 27  1  0  0  0
 10 28  1  0  0  0
 11 12  2  0  0  0
 12 13  1  0  0  0
 13 14  1  0  0  0
 13 18  2  0  0  0
 14 15  2  0  0  0
 14 29  1  0  0  0
 15 16  1  0  0  0
 15 30  1  0  0  0
 16 17  2  0  0  0
 16 31  1  0  0  0
 17 18  1  0  0  0
 17 32  1  0  0  0
 18 19  1  0  0  0
 20 21  2  0  0  0
 20 22  1  0  0  0
M  CHG  2  20   1  22  -1
M  END
>  <Activity>
8.82391

>  <set>
1

>  <Min_dist>
999.9

>  <Avg_dist>
999.9

$$$$
RO07-3953
  Cerius2 12110214493D 1   1.00000                          
 
 30 32  0  0  0  0  0  0  0  0999 V2000
    3.0217   -1.4510   -0.6419 C   0  0  0  0  0  0
    1.8766   -2.0798   -0.1785 C   0  0  0  0  0  0
    0.7773   -1.3322    0.1783 C   0  0  0  0  0  0
    0.8035    0.0672    0.0766 C   0  0  0  0  0  0
    1.9555    0.6960   -0.3906 C   0  0  0  0  0  0
    3.0617   -0.0784   -0.7468 C   0  0  0  0  0  0
    2.0697    2.0710   -0.5289 N   0  0  0  0  0  0
    1.6018    2.9691    0.3349 C   0  0  0  0  0  0
    1.8058    4.1471    0.1306 O   0  0  0  0  0  0
    0.8262    2.5612    1.5576 C   0  0  0  0  0  0
   -0.4121    1.9073    1.1364 N   0  0  0  0  0  0
   -0.4065    0.8028    0.4773 C   0  0  0  0  0  0
   -1.7147    0.2288    0.0925 C   0  0  0  0  0  0
   -2.3023    0.5754   -1.1272 C   0  0  0  0  0  0
   -3.5246    0.0344   -1.4797 C   0  0  0  0  0  0
   -4.1660   -0.8472   -0.6289 C   0  0  0  0  0  0
   -3.5911   -1.1948    0.5801 C   0  0  0  0  0  0
   -2.3664   -0.6672    0.9442 C   0  0  0  0  0  0
   -1.8061   -1.0082    2.1253 F   0  0  0  0  0  0
   -1.6777    1.4372   -1.9592 F   0  0  0  0  0  0
    1.8287   -3.8102   -0.0487 Cl  0  0  0  0  0  0
    3.8855   -2.0382   -0.9170 H   0  0  0  0  0  0
   -0.1126   -1.8265    0.5391 H   0  0  0  0  0  0
    3.9579    0.4042   -1.1077 H   0  0  0  0  0  0
    2.5262    2.4045   -1.3171 H   0  0  0  0  0  0
    1.4209    1.8682    2.1528 H   0  0  0  0  0  0
    0.5891    3.4443    2.1510 H   0  0  0  0  0  0
   -3.9800    0.3013   -2.4220 H   0  0  0  0  0  0
   -5.1209   -1.2663   -0.9098 H   0  0  0  0  0  0
   -4.0983   -1.8837    1.2393 H   0  0  0  0  0  0
  1  2  1  0  0  0
  1  6  2  0  0  0
  1 22  1  0  0  0
  2  3  2  0  0  0
  2 21  1  0  0  0
  3  4  1  0  0  0
  3 23  1  0  0  0
  4  5  2  0  0  0
  4 12  1  0  0  0
  5  6  1  0  0  0
  5  7  1  0  0  0
  6 24  1  0  0  0
  7  8  1  0  0  0
  7 25  1  0  0  0
  8  9  2  0  0  0
  8 10  1  0  0  0
 10 11  1  0  0  0
 10 26  1  0  0  0
 10 27  1  0  0  0
 11 12  2  0  0  0
 12 13  1  0  0  0
 13 14  1  0  0  0
 13 18  2  0  0  0
 14 15  2  0  0  0
 14 20  1  0  0  0
 15 16  1  0  0  0
 15 28  1  0  0  0
 16 17  2  0  0  0
 16 29  1  0  0  0
 17 18  1  0  0  0
 17 30  1  0  0  0
 18 19  1  0  0  0
M  END
>  <Activity>
8.79588

>  <set>
1

>  <Min_dist>
999.9

>  <Avg_dist>
999.9

$$$$
CLONAZEPAM
  Cerius2 12110214493D 1   1.00000                          
 
 32 34  0  0  0  0  0  0  0  0999 V2000
   -3.4281    0.4885    0.1772 C   0  0  0  0  0  0
   -2.7224   -0.6406   -0.2048 C   0  0  0  0  0  0
   -1.3482   -0.6102   -0.2524 C   0  0  0  0  0  0
   -0.6488    0.5592    0.0838 C   0  0  0  0  0  0
   -1.3610    1.6932    0.4685 C   0  0  0  0  0  0
   -2.7560    1.6437    0.5103 C   0  0  0  0  0  0
   -0.7554    2.8888    0.8224 N   0  0  0  0  0  0
    0.2970    3.4252    0.2087 C   0  0  0  0  0  0
    0.7097    4.5040    0.5784 O   0  0  0  0  0  0
    0.9880    2.7277   -0.9310 C   0  0  0  0  0  0
    1.5590    1.4733   -0.4423 N   0  0  0  0  0  0
    0.8201    0.5210    0.0082 C   0  0  0  0  0  0
    1.4992   -0.7049    0.4871 C   0  0  0  0  0  0
    1.0414   -1.3576    1.6319 C   0  0  0  0  0  0
    1.6780   -2.4989    2.0731 C   0  0  0  0  0  0
    2.7693   -2.9974    1.3832 C   0  0  0  0  0  0
    3.2292   -2.3558    0.2480 C   0  0  0  0  0  0
    2.5964   -1.2155   -0.2083 C   0  0  0  0  0  0
    3.1741   -0.4110   -1.6341 Cl  0  0  0  0  0  0
   -3.4477   -1.8806   -0.5616 N   0  3  0  0  0  0
   -4.6647   -1.9080   -0.5192 O   0  0  0  0  0  0
   -2.8275   -2.8736   -0.8975 O   0  5  0  0  0  0
   -4.5074    0.4644    0.2096 H   0  0  0  0  0  0
   -0.8028   -1.4935   -0.5504 H   0  0  0  0  0  0
   -3.3134    2.5201    0.8063 H   0  0  0  0  0  0
   -1.1279    3.3727    1.5761 H   0  0  0  0  0  0
    0.2672    2.5173   -1.7212 H   0  0  0  0  0  0
    1.7833    3.3637   -1.3199 H   0  0  0  0  0  0
    0.1904   -0.9697    2.1720 H   0  0  0  0  0  0
    1.3242   -3.0047    2.9593 H   0  0  0  0  0  0
    3.2642   -3.8912    1.7334 H   0  0  0  0  0  0
    4.0815   -2.7495   -0.2858 H   0  0  0  0  0  0
  1  2  1  0  0  0
  1  6  2  0  0  0
  1 23  1  0  0  0
  2  3  2  0  0  0
  2 20  1  0  0  0
  3  4  1  0  0  0
  3 24  1  0  0  0
  4  5  2  0  0  0
  4 12  1  0  0  0
  5  6  1  0  0  0
  5  7  1  0  0  0
  6 25  1  0  0  0
  7  8  1  0  0  0
  7 26  1  0  0  0
  8  9  2  0  0  0
  8 10  1  0  0  0
 10 11  1  0  0  0
 10 27  1  0  0  0
 10 28  1  0  0  0
 11 12  2  0  0  0
 12 13  1  0  0  0
 13 14  1  0  0  0
 13 18  2  0  0  0
 14 15  2  0  0  0
 14 29  1  0  0  0
 15 16  1  0  0  0
 15 30  1  0  0  0
 16 17  2  0  0  0
 16 31  1  0  0  0
 17 18  1  0  0  0
 17 32  1  0  0  0
 18 19  1  0  0  0
 20 21  2  0  0  0
 20 22  1  0  0  0
M  CHG  2  20   1  22  -1
M  END
>  <Activity>
8.74473

>  <set>
1

>  <Min_dist>
999.9

>  <Avg_dist>
999.9

$$$$
DELORAZEPAM
  Cerius2 12110214493D 1   1.00000                          
 
 30 32  0  0  0  0  0  0  0  0999 V2000
   -3.5538   -0.5002    0.0807 C   0  0  0  0  0  0
   -2.5852   -1.4086   -0.3171 C   0  0  0  0  0  0
   -1.2595   -1.0384   -0.3334 C   0  0  0  0  0  0
   -0.8761    0.2557    0.0508 C   0  0  0  0  0  0
   -1.8520    1.1660    0.4510 C   0  0  0  0  0  0
   -3.1920    0.7734    0.4602 C   0  0  0  0  0  0
   -1.5656    2.4623    0.8516 N   0  0  0  0  0  0
   -0.6692    3.2610    0.2768 C   0  0  0  0  0  0
   -0.5414    4.3958    0.6852 O   0  0  0  0  0  0
    0.1899    2.7925   -0.8658 C   0  0  0  0  0  0
    1.0452    1.7021   -0.3991 N   0  0  0  0  0  0
    0.5577    0.5833    0.0073 C   0  0  0  0  0  0
    1.5110   -0.4524    0.4675 C   0  0  0  0  0  0
    1.2109   -1.2349    1.5827 C   0  0  0  0  0  0
    2.1026   -2.1983    2.0063 C   0  0  0  0  0  0
    3.2936   -2.3898    1.3280 C   0  0  0  0  0  0
    3.5982   -1.6182    0.2218 C   0  0  0  0  0  0
    2.7111   -0.6538   -0.2162 C   0  0  0  0  0  0
    3.0941    0.3141   -1.6056 Cl  0  0  0  0  0  0
   -3.0441   -3.0134   -0.7943 Cl  0  0  0  0  0  0
   -4.5941   -0.7902    0.0888 H   0  0  0  0  0  0
   -0.5085   -1.7497   -0.6440 H   0  0  0  0  0  0
   -3.9526    1.4756    0.7680 H   0  0  0  0  0  0
   -2.0572    2.8148    1.6099 H   0  0  0  0  0  0
   -0.4446    2.4369   -1.6777 H   0  0  0  0  0  0
    0.8094    3.6170   -1.2187 H   0  0  0  0  0  0
    0.2822   -1.0864    2.1137 H   0  0  0  0  0  0
    1.8708   -2.8044    2.8696 H   0  0  0  0  0  0
    3.9885   -3.1451    1.6645 H   0  0  0  0  0  0
    4.5293   -1.7724   -0.3032 H   0  0  0  0  0  0
  1  2  1  0  0  0
  1  6  2  0  0  0
  1 21  1  0  0  0
  2  3  2  0  0  0
  2 20  1  0  0  0
  3  4  1  0  0  0
  3 22  1  0  0  0
  4  5  2  0  0  0
  4 12  1  0  0  0
  5  6  1  0  0  0
  5  7  1  0  0  0
  6 23  1  0  0  0
  7  8  1  0  0  0
  7 24  1  0  0  0
  8  9  2  0  0  0
  8 10  1  0  0  0
 10 11  1  0  0  0
 10 25  1  0  0  0
 10 26  1  0  0  0
 11 12  2  0  0  0
 12 13  1  0  0  0
 13 14  1  0  0  0
 13 18  2  0  0  0
 14 15  2  0  0  0
 14 27  1  0  0  0
 15 16  1  0  0  0
 15 28  1  0  0  0
 16 17  2  0  0  0
 16 29  1  0  0  0
 17 18  1  0  0  0
 17 30  1  0  0  0
 18 19  1  0  0  0
M  END
>  <Activity>
8.74473

>  <set>
1

>  <Min_dist>
999.9

>  <Avg_dist>
999.9

$$$$
RO05-3590
  Cerius2 12110214493D 1   1.00000                          
 
 35 37  0  0  0  0  0  0  0  0999 V2000
   -3.7790    0.3479   -0.0081 C   0  0  0  0  0  0
   -2.9913   -0.7564   -0.2890 C   0  0  0  0  0  0
   -1.6214   -0.6632   -0.2089 C   0  0  0  0  0  0
   -1.0092    0.5454    0.1572 C   0  0  0  0  0  0
   -1.8039    1.6543    0.4405 C   0  0  0  0  0  0
   -3.1930    1.5411    0.3523 C   0  0  0  0  0  0
   -1.2878    2.8852    0.8146 N   0  0  0  0  0  0
   -0.2063    3.4542    0.2871 C   0  0  0  0  0  0
    0.1220    4.5598    0.6624 O   0  0  0  0  0  0
    0.6198    2.7614   -0.7620 C   0  0  0  0  0  0
    1.1959    1.5472   -0.1856 N   0  0  0  0  0  0
    0.4604    0.5738    0.2207 C   0  0  0  0  0  0
    1.1442   -0.6075    0.7968 C   0  0  0  0  0  0
    0.6086   -1.2520    1.9119 C   0  0  0  0  0  0
    1.2497   -2.3519    2.4435 C   0  0  0  0  0  0
    2.4219   -2.8157    1.8730 C   0  0  0  0  0  0
    2.9581   -2.1806    0.7673 C   0  0  0  0  0  0
    2.3227   -1.0832    0.2228 C   0  0  0  0  0  0
    2.9079   -0.3927   -0.9821 C   0  0  0  0  0  0
    4.0873   -1.0411   -1.3641 F   0  0  0  0  0  0
    1.9894   -0.4361   -2.0364 F   0  0  0  0  0  0
    3.1904    0.9401   -0.6643 F   0  0  0  0  0  0
   -3.6243   -2.0375   -0.6751 N   0  3  0  0  0  0
   -4.8374   -2.1205   -0.7457 O   0  0  0  0  0  0
   -2.9320   -3.0087   -0.9221 O   0  5  0  0  0  0
   -4.8544    0.2744   -0.0763 H   0  0  0  0  0  0
   -1.0120   -1.5272   -0.4292 H   0  0  0  0  0  0
   -3.8140    2.3977    0.5692 H   0  0  0  0  0  0
   -1.7513    3.3700    1.5154 H   0  0  0  0  0  0
   -0.0127    2.4985   -1.6099 H   0  0  0  0  0  0
    1.4200    3.4236   -1.0928 H   0  0  0  0  0  0
   -0.3059   -0.8904    2.3585 H   0  0  0  0  0  0
    0.8360   -2.8517    3.3069 H   0  0  0  0  0  0
    2.9203   -3.6769    2.2929 H   0  0  0  0  0  0
    3.8735   -2.5470    0.3266 H   0  0  0  0  0  0
  1  2  1  0  0  0
  1  6  2  0  0  0
  1 26  1  0  0  0
  2  3  2  0  0  0
  2 23  1  0  0  0
  3  4  1  0  0  0
  3 27  1  0  0  0
  4  5  2  0  0  0
  4 12  1  0  0  0
  5  6  1  0  0  0
  5  7  1  0  0  0
  6 28  1  0  0  0
  7  8  1  0  0  0
  7 29  1  0  0  0
  8  9  2  0  0  0
  8 10  1  0  0  0
 10 11  1  0  0  0
 10 30  1  0  0  0
 10 31  1  0  0  0
 11 12  2  0  0  0
 12 13  1  0  0  0
 13 14  1  0  0  0
 13 18  2  0  0  0
 14 15  2  0  0  0
 14 32  1  0  0  0
 15 16  1  0  0  0
 15 33  1  0  0  0
 16 17  2  0  0  0
 16 34  1  0  0  0
 17 18  1  0  0  0
 17 35  1  0  0  0
 18 19  1  0  0  0
 19 20  1  0  0  0
 19 21  1  0  0  0
 19 22  1  0  0  0
 23 24  2  0  0  0
 23 25  1  0  0  0
M  CHG  2  23   1  25  -1
M  END
>  <Activity>
8.45593

>  <set>
1

>  <Min_dist>
999.9

>  <Avg_dist>
999.9

$$$$
RO11-4878
  Cerius2 12110214493D 1   1.00000                          
 
 33 35  0  0  0  0  0  0  0  0999 V2000
    3.0688   -1.4047   -0.3651 C   0  0  0  0  0  0
    1.9498   -2.0309    0.1613 C   0  0  0  0  0  0
    0.7681   -1.3365    0.2881 C   0  0  0  0  0  0
    0.6837    0.0059   -0.1124 C   0  0  0  0  0  0
    1.8100    0.6321   -0.6419 C   0  0  0  0  0  0
    3.0006   -0.0877   -0.7621 C   0  0  0  0  0  0
    1.8179    1.9516   -1.0680 N   0  0  0  0  0  0
    1.2143    2.9612   -0.4449 C   0  0  0  0  0  0
    1.3337    4.0842   -0.8872 O   0  0  0  0  0  0
    0.3876    2.7454    0.7933 C   0  0  0  0  0  0
   -0.7570    1.8998    0.4569 N   0  0  0  0  0  0
   -0.6100    0.6870    0.0537 C   0  0  0  0  0  0
   -1.8342   -0.0807   -0.2686 C   0  0  0  0  0  0
   -1.8567   -0.9327   -1.3731 C   0  0  0  0  0  0
   -2.9998   -1.6456   -1.6681 C   0  0  0  0  0  0
   -4.1249   -1.5180   -0.8718 C   0  0  0  0  0  0
   -4.1119   -0.6759    0.2242 C   0  0  0  0  0  0
   -2.9703    0.0403    0.5353 C   0  0  0  0  0  0
   -2.9576    0.8631    1.6069 F   0  0  0  0  0  0
    1.2371    2.0562    1.8629 C   0  0  0  0  0  0
    2.0386   -3.6913    0.6602 Cl  0  0  0  0  0  0
    3.9967   -1.9491   -0.4599 H   0  0  0  0  0  0
   -0.1011   -1.8287    0.6988 H   0  0  0  0  0  0
    3.8772    0.3936   -1.1702 H   0  0  0  0  0  0
    2.3014    2.1550   -1.8840 H   0  0  0  0  0  0
    0.0342    3.7060    1.1682 H   0  0  0  0  0  0
   -0.9804   -1.0335   -1.9964 H   0  0  0  0  0  0
   -3.0174   -2.3052   -2.5231 H   0  0  0  0  0  0
   -5.0171   -2.0787   -1.1083 H   0  0  0  0  0  0
   -4.9932   -0.5802    0.8411 H   0  0  0  0  0  0
    0.6367    1.9006    2.7592 H   0  0  0  0  0  0
    1.5844    1.0939    1.4868 H   0  0  0  0  0  0
    2.0954    2.6829    2.1048 H   0  0  0  0  0  0
  1  2  1  0  0  0
  1  6  2  0  0  0
  1 22  1  0  0  0
  2  3  2  0  0  0
  2 21  1  0  0  0
  3  4  1  0  0  0
  3 23  1  0  0  0
  4  5  2  0  0  0
  4 12  1  0  0  0
  5  6  1  0  0  0
  5  7  1  0  0  0
  6 24  1  0  0  0
  7  8  1  0  0  0
  7 25  1  0  0  0
  8  9  2  0  0  0
  8 10  1  0  0  0
 10 11  1  0  0  0
 10 20  1  0  0  0
 10 26  1  0  0  0
 11 12  2  0  0  0
 12 13  1  0  0  0
 13 14  1  0  0  0
 13 18  2  0  0  0
 14 15  2  0  0  0
 14 27  1  0  0  0
 15 16  1  0  0  0
 15 28  1  0  0  0
 16 17  2  0  0  0
 16 29  1  0  0  0
 17 18  1  0  0  0
 17 30  1  0  0  0
 18 19  1  0  0  0
 20 31  1  0  0  0
 20 32  1  0  0  0
 20 33  1  0  0  0
M  END
>  <Activity>
8.45593

>  <set>
1

>  <Min_dist>
999.9

>  <Avg_dist>
999.9

$$$$
RO20-8065
  Cerius2 12110214493D 1   1.00000                          
 
 30 32  0  0  0  0  0  0  0  0999 V2000
    3.1867   -1.1181   -0.3601 C   0  0  0  0  0  0
    2.0352   -1.7700    0.0509 C   0  0  0  0  0  0
    0.8606   -1.0651    0.2002 C   0  0  0  0  0  0
    0.8189    0.3141   -0.0621 C   0  0  0  0  0  0
    1.9790    0.9651   -0.4764 C   0  0  0  0  0  0
    3.1600    0.2344   -0.6206 C   0  0  0  0  0  0
    2.0304    2.3211   -0.7625 N   0  0  0  0  0  0
    1.4188    3.2748   -0.0639 C   0  0  0  0  0  0
    1.5778    4.4342   -0.3823 O   0  0  0  0  0  0
    0.5351    2.9520    1.1100 C   0  0  0  0  0  0
   -0.6093    2.1720    0.6407 N   0  0  0  0  0  0
   -0.4674    1.0041    0.1196 C   0  0  0  0  0  0
   -1.6906    0.3022   -0.3313 C   0  0  0  0  0  0
   -1.6807   -0.4303   -1.5187 C   0  0  0  0  0  0
   -2.8230   -1.0824   -1.9334 C   0  0  0  0  0  0
   -3.9791   -1.0118   -1.1755 C   0  0  0  0  0  0
   -3.9981   -0.2883    0.0022 C   0  0  0  0  0  0
   -2.8582    0.3657    0.4330 C   0  0  0  0  0  0
   -2.8767    1.0724    1.5843 F   0  0  0  0  0  0
   -0.5784   -1.8879    0.7158 Cl  0  0  0  0  0  0
    2.0721   -3.4746    0.3771 Cl  0  0  0  0  0  0
    4.1080   -1.6704   -0.4721 H   0  0  0  0  0  0
    4.0623    0.7349   -0.9397 H   0  0  0  0  0  0
    2.5532    2.5960   -1.5319 H   0  0  0  0  0  0
    1.0973    2.3715    1.8414 H   0  0  0  0  0  0
    0.1836    3.8768    1.5675 H   0  0  0  0  0  0
   -0.7802   -0.4864   -2.1122 H   0  0  0  0  0  0
   -2.8155   -1.6495   -2.8525 H   0  0  0  0  0  0
   -4.8706   -1.5240   -1.5060 H   0  0  0  0  0  0
   -4.9035   -0.2369    0.5888 H   0  0  0  0  0  0
  1  2  1  0  0  0
  1  6  2  0  0  0
  1 22  1  0  0  0
  2  3  2  0  0  0
  2 21  1  0  0  0
  3  4  1  0  0  0
  3 20  1  0  0  0
  4  5  2  0  0  0
  4 12  1  0  0  0
  5  6  1  0  0  0
  5  7  1  0  0  0
  6 23  1  0  0  0
  7  8  1  0  0  0
  7 24  1  0  0  0
  8  9  2  0  0  0
  8 10  1  0  0  0
 10 11  1  0  0  0
 10 25  1  0  0  0
 10 26  1  0  0  0
 11 12  2  0  0  0
 12 13  1  0  0  0
 13 14  1  0  0  0
 13 18  2  0  0  0
 14 15  2  0  0  0
 14 27  1  0  0  0
 15 16  1  0  0  0
 15 28  1  0  0  0
 16 17  2  0  0  0
 16 29  1  0  0  0
 17 18  1  0  0  0
 17 30  1  0  0  0
 18 19  1  0  0  0
M  END
>  <Activity>
8.4437

>  <set>
1

>  <Min_dist>
999.9

>  <Avg_dist>
999.9

$$$$
FLUNITRAZEPAM
  Cerius2 12110214493D 1   1.00000                          
 
 35 37  0  0  0  0  0  0  0  0999 V2000
    3.1508   -0.5850   -0.1495 C   0  0  0  0  0  0
    2.1721   -1.5016    0.1979 C   0  0  0  0  0  0
    0.8644   -1.0959    0.3291 C   0  0  0  0  0  0
    0.5086    0.2443    0.1133 C   0  0  0  0  0  0
    1.4948    1.1640   -0.2369 C   0  0  0  0  0  0
    2.8173    0.7340   -0.3643 C   0  0  0  0  0  0
    1.2356    2.5050   -0.4741 N   0  0  0  0  0  0
    0.4002    3.2605    0.2351 C   0  0  0  0  0  0
    0.2927    4.4375   -0.0371 O   0  0  0  0  0  0
   -0.4144    2.6925    1.3650 C   0  0  0  0  0  0
   -1.3326    1.6885    0.8288 N   0  0  0  0  0  0
   -0.9081    0.6081    0.2731 C   0  0  0  0  0  0
   -1.9212   -0.3394   -0.2444 C   0  0  0  0  0  0
   -1.7095   -0.9995   -1.4552 C   0  0  0  0  0  0
   -2.6568   -1.8810   -1.9322 C   0  0  0  0  0  0
   -3.8170   -2.1123   -1.2136 C   0  0  0  0  0  0
   -4.0352   -1.4628   -0.0131 C   0  0  0  0  0  0
   -3.0909   -0.5810    0.4802 C   0  0  0  0  0  0
   -3.3041    0.0535    1.6538 F   0  0  0  0  0  0
    1.9364    3.1404   -1.5927 C   0  0  0  0  0  0
    2.5337   -2.9185    0.4276 N   0  3  0  0  0  0
    3.6915   -3.2781    0.3111 O   0  0  0  0  0  0
    1.6733   -3.7247    0.7330 O   0  5  0  0  0  0
    4.1779   -0.9042   -0.2476 H   0  0  0  0  0  0
    0.1052   -1.8147    0.6001 H   0  0  0  0  0  0
    3.5864    1.4428   -0.6336 H   0  0  0  0  0  0
    0.2482    2.2281    2.0953 H   0  0  0  0  0  0
   -0.9839    3.4904    1.8416 H   0  0  0  0  0  0
   -0.8054   -0.8202   -2.0181 H   0  0  0  0  0  0
   -2.4931   -2.3920   -2.8694 H   0  0  0  0  0  0
   -4.5554   -2.8033   -1.5928 H   0  0  0  0  0  0
   -4.9426   -1.6477    0.5428 H   0  0  0  0  0  0
    1.6385    4.1867   -1.6608 H   0  0  0  0  0  0
    3.0124    3.0789   -1.4294 H   0  0  0  0  0  0
    1.6799    2.6284   -2.5201 H   0  0  0  0  0  0
  1  2  1  0  0  0
  1  6  2  0  0  0
  1 24  1  0  0  0
  2  3  2  0  0  0
  2 21  1  0  0  0
  3  4  1  0  0  0
  3 25  1  0  0  0
  4  5  2  0  0  0
  4 12  1  0  0  0
  5  6  1  0  0  0
  5  7  1  0  0  0
  6 26  1  0  0  0
  7  8  1  0  0  0
  7 20  1  0  0  0
  8  9  2  0  0  0
  8 10  1  0  0  0
 10 11  1  0  0  0
 10 27  1  0  0  0
 10 28  1  0  0  0
 11 12  2  0  0  0
 12 13  1  0  0  0
 13 14  1  0  0  0
 13 18  2  0  0  0
 14 15  2  0  0  0
 14 29  1  0  0  0
 15 16  1  0  0  0
 15 30  1  0  0  0
 16 17  2  0  0  0
 16 31  1  0  0  0
 17 18  1  0  0  0
 17 32  1  0  0  0
 18 19  1  0  0  0
 20 33  1  0  0  0
 20 34  1  0  0  0
 20 35  1  0  0  0
 21 22  2  0  0  0
 21 23  1  0  0  0
M  CHG  2  21   1  23  -1
M  END
>  <Activity>
8.42022

>  <set>
1

>  <Min_dist>
999.9

>  <Avg_dist>
999.9

$$$$
RO07-4065
  Cerius2 12110214493D 1   1.00000                          
 
 33 35  0  0  0  0  0  0  0  0999 V2000
    2.0388   -2.6002   -0.5019 C   0  0  0  0  0  0
    0.7083   -2.7166   -0.1307 C   0  0  0  0  0  0
   -0.0118   -1.5944    0.2110 C   0  0  0  0  0  0
    0.5898   -0.3268    0.1867 C   0  0  0  0  0  0
    1.9268   -0.2131   -0.1878 C   0  0  0  0  0  0
    2.6422   -1.3625   -0.5300 C   0  0  0  0  0  0
    2.6011    0.9973   -0.2455 N   0  0  0  0  0  0
    2.4831    1.9828    0.6413 C   0  0  0  0  0  0
    3.1631    2.9786    0.5116 O   0  0  0  0  0  0
    1.5278    1.8939    1.8000 C   0  0  0  0  0  0
    0.1620    1.8184    1.2830 N   0  0  0  0  0  0
   -0.2388    0.8287    0.5660 C   0  0  0  0  0  0
   -1.6381    0.8537    0.0860 C   0  0  0  0  0  0
   -1.9494    1.4462   -1.1407 C   0  0  0  0  0  0
   -3.2591    1.4652   -1.5825 C   0  0  0  0  0  0
   -4.2603    0.9002   -0.8136 C   0  0  0  0  0  0
   -3.9603    0.3123    0.4018 C   0  0  0  0  0  0
   -2.6546    0.2798    0.8545 C   0  0  0  0  0  0
   -2.3634   -0.2952    2.0418 F   0  0  0  0  0  0
   -0.9729    1.9995   -1.8928 F   0  0  0  0  0  0
    3.5147    1.2080   -1.3712 C   0  0  0  0  0  0
   -0.0500   -4.2779   -0.0974 Cl  0  0  0  0  0  0
    2.6043   -3.4819   -0.7650 H   0  0  0  0  0  0
   -1.0480   -1.6901    0.4998 H   0  0  0  0  0  0
    3.6795   -1.2801   -0.8193 H   0  0  0  0  0  0
    1.7463    1.0009    2.3856 H   0  0  0  0  0  0
    1.6321    2.7788    2.4279 H   0  0  0  0  0  0
   -3.5012    1.9228   -2.5303 H   0  0  0  0  0  0
   -5.2817    0.9185   -1.1639 H   0  0  0  0  0  0
   -4.7477   -0.1265    0.9968 H   0  0  0  0  0  0
    3.9717    2.1941   -1.2886 H   0  0  0  0  0  0
    4.2927    0.4446   -1.3555 H   0  0  0  0  0  0
    2.9597    1.1419   -2.3069 H   0  0  0  0  0  0
  1  2  1  0  0  0
  1  6  2  0  0  0
  1 23  1  0  0  0
  2  3  2  0  0  0
  2 22  1  0  0  0
  3  4  1  0  0  0
  3 24  1  0  0  0
  4  5  2  0  0  0
  4 12  1  0  0  0
  5  6  1  0  0  0
  5  7  1  0  0  0
  6 25  1  0  0  0
  7  8  1  0  0  0
  7 21  1  0  0  0
  8  9  2  0  0  0
  8 10  1  0  0  0
 10 11  1  0  0  0
 10 26  1  0  0  0
 10 27  1  0  0  0
 11 12  2  0  0  0
 12 13  1  0  0  0
 13 14  1  0  0  0
 13 18  2  0  0  0
 14 15  2  0  0  0
 14 20  1  0  0  0
 15 16  1  0  0  0
 15 28  1  0  0  0
 16 17  2  0  0  0
 16 29  1  0  0  0
 17 18  1  0  0  0
 17 30  1  0  0  0
 18 19  1  0  0  0
 21 31  1  0  0  0
 21 32  1  0  0  0
 21 33  1  0  0  0
M  END
>  <Activity>
8.38722

>  <set>
1

>  <Min_dist>
999.9

>  <Avg_dist>
999.9

$$$$
RO05-6822
  Cerius2 12110214493D 1   1.00000                          
 
 33 35  0  0  0  0  0  0  0  0999 V2000
    2.4195   -2.5755    0.1476 C   0  0  0  0  0  0
    1.1042   -2.8126    0.5188 C   0  0  0  0  0  0
    0.2004   -1.7737    0.5517 C   0  0  0  0  0  0
    0.5986   -0.4718    0.2111 C   0  0  0  0  0  0
    1.9201   -0.2379   -0.1624 C   0  0  0  0  0  0
    2.8233   -1.3025   -0.1887 C   0  0  0  0  0  0
    2.4004    1.0136   -0.5197 N   0  0  0  0  0  0
    2.0825    2.1567    0.0836 C   0  0  0  0  0  0
    2.6061    3.1858   -0.2875 O   0  0  0  0  0  0
    1.0911    2.2053    1.2140 C   0  0  0  0  0  0
   -0.2162    1.7798    0.7157 N   0  0  0  0  0  0
   -0.4189    0.5896    0.2702 C   0  0  0  0  0  0
   -1.7778    0.2637   -0.2186 C   0  0  0  0  0  0
   -1.9423   -0.5208   -1.3605 C   0  0  0  0  0  0
   -3.2107   -0.8215   -1.8109 C   0  0  0  0  0  0
   -4.3208   -0.3470   -1.1336 C   0  0  0  0  0  0
   -4.1673    0.4313   -0.0017 C   0  0  0  0  0  0
   -2.9012    0.7355    0.4647 C   0  0  0  0  0  0
   -2.7514    1.4962    1.5711 F   0  0  0  0  0  0
    3.3308    1.0823   -1.6492 C   0  0  0  0  0  0
    0.7097   -4.0622    0.8475 F   0  0  0  0  0  0
    3.1290   -3.3895    0.1267 H   0  0  0  0  0  0
   -0.8227   -1.9626    0.8416 H   0  0  0  0  0  0
    3.8493   -1.1258   -0.4759 H   0  0  0  0  0  0
    1.4135    1.5357    2.0114 H   0  0  0  0  0  0
    1.0224    3.2239    1.5958 H   0  0  0  0  0  0
   -1.0779   -0.8917   -1.8911 H   0  0  0  0  0  0
   -3.3383   -1.4288   -2.6948 H   0  0  0  0  0  0
   -5.3114   -0.5856   -1.4915 H   0  0  0  0  0  0
   -5.0374    0.7991    0.5218 H   0  0  0  0  0  0
    3.6236    2.1189   -1.8162 H   0  0  0  0  0  0
    4.2159    0.4859   -1.4277 H   0  0  0  0  0  0
    2.8452    0.6933   -2.5442 H   0  0  0  0  0  0
  1  2  1  0  0  0
  1  6  2  0  0  0
  1 22  1  0  0  0
  2  3  2  0  0  0
  2 21  1  0  0  0
  3  4  1  0  0  0
  3 23  1  0  0  0
  4  5  2  0  0  0
  4 12  1  0  0  0
  5  6  1  0  0  0
  5  7  1  0  0  0
  6 24  1  0  0  0
  7  8  1  0  0  0
  7 20  1  0  0  0
  8  9  2  0  0  0
  8 10  1  0  0  0
 10 11  1  0  0  0
 10 25  1  0  0  0
 10 26  1  0  0  0
 11 12  2  0  0  0
 12 13  1  0  0  0
 13 14  1  0  0  0
 13 18  2  0  0  0
 14 15  2  0  0  0
 14 27  1  0  0  0
 15 16  1  0  0  0
 15 28  1  0  0  0
 16 17  2  0  0  0
 16 29  1  0  0  0
 17 18  1  0  0  0
 17 30  1  0  0  0
 18 19  1  0  0  0
 20 31  1  0  0  0
 20 32  1  0  0  0
 20 33  1  0  0  0
M  END
>  <Activity>
8.29243

>  <set>
1

>  <Min_dist>
999.9

>  <Avg_dist>
999.9

$$$$
RO20-7078
  Cerius2 12110214493D 1   1.00000                          
 
 33 35  0  0  0  0  0  0  0  0999 V2000
    1.9473   -2.6650   -0.3297 C   0  0  0  0  0  0
    0.6612   -2.7626    0.1781 C   0  0  0  0  0  0
   -0.1269   -1.6383    0.2775 C   0  0  0  0  0  0
    0.3605   -0.3878   -0.1324 C   0  0  0  0  0  0
    1.6532   -0.2933   -0.6432 C   0  0  0  0  0  0
    2.4388   -1.4442   -0.7356 C   0  0  0  0  0  0
    2.2155    0.8979   -1.0768 N   0  0  0  0  0  0
    2.0764    2.0752   -0.4716 C   0  0  0  0  0  0
    2.6586    3.0411   -0.9179 O   0  0  0  0  0  0
    1.2156    2.2392    0.7512 C   0  0  0  0  0  0
   -0.1715    1.9410    0.3971 N   0  0  0  0  0  0
   -0.5355    0.7714    0.0040 C   0  0  0  0  0  0
   -1.9629    0.5773   -0.3380 C   0  0  0  0  0  0
   -2.3202   -0.2032   -1.4378 C   0  0  0  0  0  0
   -3.6514   -0.3807   -1.7512 C   0  0  0  0  0  0
   -4.6339    0.2135   -0.9781 C   0  0  0  0  0  0
   -4.2892    0.9888    0.1131 C   0  0  0  0  0  0
   -2.9583    1.1702    0.4425 C   0  0  0  0  0  0
   -2.6215    1.9277    1.5093 F   0  0  0  0  0  0
    1.7688    1.1016    2.0360 Cl  0  0  0  0  0  0
    3.0264    0.8572   -2.2962 C   0  0  0  0  0  0
    0.0440   -4.3029    0.6884 Cl  0  0  0  0  0  0
    2.5664   -3.5469   -0.4029 H   0  0  0  0  0  0
   -1.1283   -1.7194    0.6736 H   0  0  0  0  0  0
    3.4423   -1.3761   -1.1290 H   0  0  0  0  0  0
    1.2876    3.2647    1.1135 H   0  0  0  0  0  0
   -1.5555   -0.6674   -2.0430 H   0  0  0  0  0  0
   -3.9282   -0.9849   -2.6025 H   0  0  0  0  0  0
   -5.6747    0.0710   -1.2289 H   0  0  0  0  0  0
   -5.0606    1.4503    0.7118 H   0  0  0  0  0  0
    3.4016    1.8566   -2.5165 H   0  0  0  0  0  0
    3.8661    0.1775   -2.1515 H   0  0  0  0  0  0
    2.4147    0.5072   -3.1277 H   0  0  0  0  0  0
  1  2  1  0  0  0
  1  6  2  0  0  0
  1 23  1  0  0  0
  2  3  2  0  0  0
  2 22  1  0  0  0
  3  4  1  0  0  0
  3 24  1  0  0  0
  4  5  2  0  0  0
  4 12  1  0  0  0
  5  6  1  0  0  0
  5  7  1  0  0  0
  6 25  1  0  0  0
  7  8  1  0  0  0
  7 21  1  0  0  0
  8  9  2  0  0  0
  8 10  1  0  0  0
 10 11  1  0  0  0
 10 20  1  0  0  0
 10 26  1  0  0  0
 11 12  2  0  0  0
 12 13  1  0  0  0
 13 14  1  0  0  0
 13 18  2  0  0  0
 14 15  2  0  0  0
 14 27  1  0  0  0
 15 16  1  0  0  0
 15 28  1  0  0  0
 16 17  2  0  0  0
 16 29  1  0  0  0
 17 18  1  0  0  0
 17 30  1  0  0  0
 18 19  1  0  0  0
 21 31  1  0  0  0
 21 32  1  0  0  0
 21 33  1  0  0  0
M  END
>  <Activity>
8.27572

>  <set>
1

>  <Min_dist>
999.9

>  <Avg_dist>
999.9

$$$$
RO05-6820
  Cerius2 12110214493D 1   1.00000                          
 
 30 32  0  0  0  0  0  0  0  0999 V2000
    2.8420   -2.2377   -0.0206 C   0  0  0  0  0  0
    1.5852   -2.5895    0.4492 C   0  0  0  0  0  0
    0.5819   -1.6473    0.5030 C   0  0  0  0  0  0
    0.8193   -0.3290    0.0845 C   0  0  0  0  0  0
    2.0824    0.0203   -0.3879 C   0  0  0  0  0  0
    3.0882   -0.9473   -0.4340 C   0  0  0  0  0  0
    2.4055    1.2960   -0.8266 N   0  0  0  0  0  0
    2.0095    2.4277   -0.2487 C   0  0  0  0  0  0
    2.3979    3.4863   -0.6954 O   0  0  0  0  0  0
    1.0932    2.4280    0.9444 C   0  0  0  0  0  0
   -0.1919    1.8493    0.5544 N   0  0  0  0  0  0
   -0.2975    0.6253    0.1713 C   0  0  0  0  0  0
   -1.6435    0.1408   -0.2097 C   0  0  0  0  0  0
   -1.7984   -0.7086   -1.3056 C   0  0  0  0  0  0
   -3.0547   -1.1571   -1.6555 C   0  0  0  0  0  0
   -4.1624   -0.7667   -0.9229 C   0  0  0  0  0  0
   -4.0186    0.0750    0.1641 C   0  0  0  0  0  0
   -2.7639    0.5274    0.5300 C   0  0  0  0  0  0
   -2.6234    1.3500    1.5924 F   0  0  0  0  0  0
    1.3451   -3.8561    0.8535 F   0  0  0  0  0  0
    3.6297   -2.9756   -0.0580 H   0  0  0  0  0  0
   -0.3952   -1.9254    0.8697 H   0  0  0  0  0  0
    4.0696   -0.6809   -0.7978 H   0  0  0  0  0  0
    2.9641    1.3690   -1.6163 H   0  0  0  0  0  0
    1.5342    1.8323    1.7436 H   0  0  0  0  0  0
    0.9432    3.4510    1.2893 H   0  0  0  0  0  0
   -0.9358   -1.0142   -1.8793 H   0  0  0  0  0  0
   -3.1748   -1.8146   -2.5038 H   0  0  0  0  0  0
   -5.1437   -1.1210   -1.2021 H   0  0  0  0  0  0
   -4.8869    0.3764    0.7312 H   0  0  0  0  0  0
  1  2  1  0  0  0
  1  6  2  0  0  0
  1 21  1  0  0  0
  2  3  2  0  0  0
  2 20  1  0  0  0
  3  4  1  0  0  0
  3 22  1  0  0  0
  4  5  2  0  0  0
  4 12  1  0  0  0
  5  6  1  0  0  0
  5  7  1  0  0  0
  6 23  1  0  0  0
  7  8  1  0  0  0
  7 24  1  0  0  0
  8  9  2  0  0  0
  8 10  1  0  0  0
 10 11  1  0  0  0
 10 25  1  0  0  0
 10 26  1  0  0  0
 11 12  2  0  0  0
 12 13  1  0  0  0
 13 14  1  0  0  0
 13 18  2  0  0  0
 14 15  2  0  0  0
 14 27  1  0  0  0
 15 16  1  0  0  0
 15 28  1  0  0  0
 16 17  2  0  0  0
 16 29  1  0  0  0
 17 18  1  0  0  0
 17 30  1  0  0  0
 18 19  1  0  0  0
M  END
>  <Activity>
8.13077

>  <set>
1

>  <Min_dist>
999.9

>  <Avg_dist>
999.9

$$$$
DIAZEPAM
  Cerius2 12110214493D 1   1.00000                          
 
 33 35  0  0  0  0  0  0  0  0999 V2000
    1.6758   -2.6338   -0.2322 C   0  0  0  0  0  0
    0.3619   -2.6260    0.2095 C   0  0  0  0  0  0
   -0.2837   -1.4302    0.4282 C   0  0  0  0  0  0
    0.3777   -0.2123    0.2073 C   0  0  0  0  0  0
    1.6979   -0.2236   -0.2377 C   0  0  0  0  0  0
    2.3374   -1.4462   -0.4530 C   0  0  0  0  0  0
    2.4273    0.9290   -0.4872 N   0  0  0  0  0  0
    2.4035    2.0277    0.2638 C   0  0  0  0  0  0
    3.1249    2.9581   -0.0276 O   0  0  0  0  0  0
    1.5049    2.1456    1.4645 C   0  0  0  0  0  0
    0.1126    2.0787    1.0223 N   0  0  0  0  0  0
   -0.3724    1.0273    0.4633 C   0  0  0  0  0  0
   -1.7931    1.0673    0.0449 C   0  0  0  0  0  0
   -2.2496    0.2206   -0.9650 C   0  0  0  0  0  0
   -3.5740    0.2621   -1.3499 C   0  0  0  0  0  0
   -4.4483    1.1417   -0.7367 C   0  0  0  0  0  0
   -4.0012    1.9843    0.2653 C   0  0  0  0  0  0
   -2.6806    1.9477    0.6633 C   0  0  0  0  0  0
    3.2920    0.9382   -1.6697 C   0  0  0  0  0  0
   -0.4697   -4.1245    0.4862 Cl  0  0  0  0  0  0
    2.1829   -3.5726   -0.3991 H   0  0  0  0  0  0
   -1.3075   -1.4291    0.7722 H   0  0  0  0  0  0
    3.3612   -1.4607   -0.7965 H   0  0  0  0  0  0
    1.7084    1.3268    2.1546 H   0  0  0  0  0  0
    1.6843    3.0983    1.9627 H   0  0  0  0  0  0
   -1.5679   -0.4659   -1.4449 H   0  0  0  0  0  0
   -3.9287   -0.3930   -2.1318 H   0  0  0  0  0  0
   -5.4839    1.1708   -1.0417 H   0  0  0  0  0  0
   -4.6884    2.6690    0.7401 H   0  0  0  0  0  0
   -2.3328    2.6057    1.4459 H   0  0  0  0  0  0
    3.8006    1.8996   -1.7406 H   0  0  0  0  0  0
    4.0312    0.1415   -1.5854 H   0  0  0  0  0  0
    2.6877    0.7801   -2.5630 H   0  0  0  0  0  0
  1  2  1  0  0  0
  1  6  2  0  0  0
  1 21  1  0  0  0
  2  3  2  0  0  0
  2 20  1  0  0  0
  3  4  1  0  0  0
  3 22  1  0  0  0
  4  5  2  0  0  0
  4 12  1  0  0  0
  5  6  1  0  0  0
  5  7  1  0  0  0
  6 23  1  0  0  0
  7  8  1  0  0  0
  7 19  1  0  0  0
  8  9  2  0  0  0
  8 10  1  0  0  0
 10 11  1  0  0  0
 10 24  1  0  0  0
 10 25  1  0  0  0
 11 12  2  0  0  0
 12 13  1  0  0  0
 13 14  1  0  0  0
 13 18  2  0  0  0
 14 15  2  0  0  0
 14 26  1  0  0  0
 15 16  1  0  0  0
 15 27  1  0  0  0
 16 17  2  0  0  0
 16 28  1  0  0  0
 17 18  1  0  0  0
 17 29  1  0  0  0
 18 30  1  0  0  0
 19 31  1  0  0  0
 19 32  1  0  0  0
 19 33  1  0  0  0
M  END
>  <Activity>
8.09151

>  <set>
1

>  <Min_dist>
999.9

>  <Avg_dist>
999.9

$$$$
RO07-1986
  Cerius2 12110214493D 1   1.00000                          
 
 38 40  0  0  0  0  0  0  0  0999 V2000
    1.2715   -3.0114    0.2342 C   0  0  0  0  0  0
   -0.1092   -2.9027    0.2920 C   0  0  0  0  0  0
   -0.6985   -1.6626    0.3909 C   0  0  0  0  0  0
    0.0879   -0.5011    0.4336 C   0  0  0  0  0  0
    1.4753   -0.6138    0.3745 C   0  0  0  0  0  0
    2.0558   -1.8801    0.2754 C   0  0  0  0  0  0
    2.3299    0.4778    0.4051 N   0  0  0  0  0  0
    2.1779    1.5478    1.1820 C   0  0  0  0  0  0
    3.0202    2.4200    1.1574 O   0  0  0  0  0  0
    0.9881    1.7037    2.0894 C   0  0  0  0  0  0
   -0.2233    1.7759    1.2735 N   0  0  0  0  0  0
   -0.6087    0.7904    0.5417 C   0  0  0  0  0  0
   -1.8453    0.9698   -0.2524 C   0  0  0  0  0  0
   -1.9227    0.4679   -1.5518 C   0  0  0  0  0  0
   -3.0775    0.6377   -2.2865 C   0  0  0  0  0  0
   -4.1595    1.3048   -1.7386 C   0  0  0  0  0  0
   -4.0917    1.8058   -0.4521 C   0  0  0  0  0  0
   -2.9421    1.6373    0.2982 C   0  0  0  0  0  0
   -2.8760    2.1267    1.5557 F   0  0  0  0  0  0
    3.4915    0.4510   -0.4873 C   0  0  0  0  0  0
    3.1171    1.0803   -1.8307 C   0  0  0  0  0  0
    4.2818    1.0535   -2.7255 N   0  0  0  0  0  0
   -1.0952   -4.3305    0.2391 Cl  0  0  0  0  0  0
    1.7331   -3.9851    0.1613 H   0  0  0  0  0  0
   -1.7746   -1.5829    0.4355 H   0  0  0  0  0  0
    3.1309   -1.9731    0.2311 H   0  0  0  0  0  0
    0.9260    0.8469    2.7603 H   0  0  0  0  0  0
    1.0909    2.6191    2.6721 H   0  0  0  0  0  0
   -1.0796   -0.0523   -1.9819 H   0  0  0  0  0  0
   -3.1376    0.2493   -3.2924 H   0  0  0  0  0  0
   -5.0609    1.4348   -2.3192 H   0  0  0  0  0  0
   -4.9391    2.3260   -0.0307 H   0  0  0  0  0  0
    4.3086    1.0147   -0.0372 H   0  0  0  0  0  0
    3.8053   -0.5810   -0.6444 H   0  0  0  0  0  0
    2.3000    0.5166   -2.2809 H   0  0  0  0  0  0
    2.8033    2.1123   -1.6737 H   0  0  0  0  0  0
    3.9899    1.4760   -3.5941 H   0  0  0  0  0  0
    4.9721    1.6685   -2.3215 H   0  0  0  0  0  0
  1  2  1  0  0  0
  1  6  2  0  0  0
  1 24  1  0  0  0
  2  3  2  0  0  0
  2 23  1  0  0  0
  3  4  1  0  0  0
  3 25  1  0  0  0
  4  5  2  0  0  0
  4 12  1  0  0  0
  5  6  1  0  0  0
  5  7  1  0  0  0
  6 26  1  0  0  0
  7  8  1  0  0  0
  7 20  1  0  0  0
  8  9  2  0  0  0
  8 10  1  0  0  0
 10 11  1  0  0  0
 10 27  1  0  0  0
 10 28  1  0  0  0
 11 12  2  0  0  0
 12 13  1  0  0  0
 13 14  1  0  0  0
 13 18  2  0  0  0
 14 15  2  0  0  0
 14 29  1  0  0  0
 15 16  1  0  0  0
 15 30  1  0  0  0
 16 17  2  0  0  0
 16 31  1  0  0  0
 17 18  1  0  0  0
 17 32  1  0  0  0
 18 19  1  0  0  0
 20 21  1  0  0  0
 20 33  1  0  0  0
 20 34  1  0  0  0
 21 22  1  0  0  0
 21 35  1  0  0  0
 21 36  1  0  0  0
 22 37  1  0  0  0
 22 38  1  0  0  0
M  END
>  <Activity>
8.08092

>  <set>
1

>  <Min_dist>
999.9

>  <Avg_dist>
999.9

$$$$
NORDAZEPAM
  Cerius2 12110214493D 1   1.00000                          
 
 30 32  0  0  0  0  0  0  0  0999 V2000
    2.9394   -1.1893   -0.3942 C   0  0  0  0  0  0
    1.8543   -1.8671    0.1393 C   0  0  0  0  0  0
    0.6740   -1.1995    0.3756 C   0  0  0  0  0  0
    0.5569    0.1675    0.0803 C   0  0  0  0  0  0
    1.6490    0.8456   -0.4569 C   0  0  0  0  0  0
    2.8389    0.1524   -0.6888 C   0  0  0  0  0  0
    1.6230    2.1929   -0.7840 N   0  0  0  0  0  0
    1.0419    3.1458   -0.0587 C   0  0  0  0  0  0
    1.1278    4.2997   -0.4220 O   0  0  0  0  0  0
    0.2810    2.8286    1.1997 C   0  0  0  0  0  0
   -0.8708    1.9946    0.8590 N   0  0  0  0  0  0
   -0.7330    0.8175    0.3603 C   0  0  0  0  0  0
   -1.9655    0.0592    0.0429 C   0  0  0  0  0  0
   -1.9362   -0.9567   -0.9122 C   0  0  0  0  0  0
   -3.0873   -1.6597   -1.2031 C   0  0  0  0  0  0
   -4.2690   -1.3583   -0.5498 C   0  0  0  0  0  0
   -4.3045   -0.3514    0.3983 C   0  0  0  0  0  0
   -3.1585    0.3545    0.7023 C   0  0  0  0  0  0
    1.9837   -3.5584    0.5088 Cl  0  0  0  0  0  0
    3.8664   -1.7130   -0.5750 H   0  0  0  0  0  0
   -0.1687   -1.7319    0.7913 H   0  0  0  0  0  0
    3.6890    0.6736   -1.1037 H   0  0  0  0  0  0
    2.0629    2.4620   -1.6056 H   0  0  0  0  0  0
    0.9287    2.2912    1.8923 H   0  0  0  0  0  0
   -0.0624    3.7542    1.6617 H   0  0  0  0  0  0
   -1.0145   -1.1923   -1.4233 H   0  0  0  0  0  0
   -3.0659   -2.4466   -1.9425 H   0  0  0  0  0  0
   -5.1675   -1.9111   -0.7811 H   0  0  0  0  0  0
   -5.2300   -0.1204    0.9047 H   0  0  0  0  0  0
   -3.1874    1.1401    1.4428 H   0  0  0  0  0  0
  1  2  1  0  0  0
  1  6  2  0  0  0
  1 20  1  0  0  0
  2  3  2  0  0  0
  2 19  1  0  0  0
  3  4  1  0  0  0
  3 21  1  0  0  0
  4  5  2  0  0  0
  4 12  1  0  0  0
  5  6  1  0  0  0
  5  7  1  0  0  0
  6 22  1  0  0  0
  7  8  1  0  0  0
  7 23  1  0  0  0
  8  9  2  0  0  0
  8 10  1  0  0  0
 10 11  1  0  0  0
 10 24  1  0  0  0
 10 25  1  0  0  0
 11 12  2  0  0  0
 12 13  1  0  0  0
 13 14  1  0  0  0
 13 18  2  0  0  0
 14 15  2  0  0  0
 14 26  1  0  0  0
 15 16  1  0  0  0
 15 27  1  0  0  0
 16 17  2  0  0  0
 16 28  1  0  0  0
 17 18  1  0  0  0
 17 29  1  0  0  0
 18 30  1  0  0  0
M  END
>  <Activity>
8.02687

>  <set>
1

>  <Min_dist>
999.9

>  <Avg_dist>
999.9

$$$$
RO05-2904
  Cerius2 12110214493D 1   1.00000                          
 
 33 35  0  0  0  0  0  0  0  0999 V2000
   -2.1358    1.8244    0.5337 C   0  0  0  0  0  0
   -2.1087    0.5449    0.0035 C   0  0  0  0  0  0
   -0.9050   -0.0589   -0.2764 C   0  0  0  0  0  0
    0.3032    0.6110   -0.0294 C   0  0  0  0  0  0
    0.2731    1.8974    0.5051 C   0  0  0  0  0  0
   -0.9585    2.4947    0.7819 C   0  0  0  0  0  0
    1.4145    2.6318    0.7864 N   0  0  0  0  0  0
    2.5007    2.6828    0.0187 C   0  0  0  0  0  0
    3.4213    3.4020    0.3448 O   0  0  0  0  0  0
    2.6164    1.8711   -1.2426 C   0  0  0  0  0  0
    2.5854    0.4508   -0.8962 N   0  0  0  0  0  0
    1.5529   -0.0939   -0.3550 C   0  0  0  0  0  0
    1.6282   -1.5388   -0.0364 C   0  0  0  0  0  0
    0.8080   -2.0814    0.9525 C   0  0  0  0  0  0
    0.8823   -3.4279    1.2444 C   0  0  0  0  0  0
    1.7682   -4.2394    0.5583 C   0  0  0  0  0  0
    2.5847   -3.7069   -0.4235 C   0  0  0  0  0  0
    2.5154   -2.3630   -0.7283 C   0  0  0  0  0  0
   -3.3986   -0.1860   -0.2663 C   0  0  0  0  0  0
   -4.4790    0.6253    0.0968 F   0  0  0  0  0  0
   -3.4840   -0.4942   -1.6282 F   0  0  0  0  0  0
   -3.4305   -1.3675    0.4821 F   0  0  0  0  0  0
   -3.0819    2.2988    0.7487 H   0  0  0  0  0  0
   -0.8895   -1.0568   -0.6892 H   0  0  0  0  0  0
   -0.9881    3.4923    1.1946 H   0  0  0  0  0  0
    1.4222    3.1494    1.6067 H   0  0  0  0  0  0
    1.7821    2.1038   -1.9043 H   0  0  0  0  0  0
    3.5567    2.1047   -1.7420 H   0  0  0  0  0  0
    0.1163   -1.4488    1.4890 H   0  0  0  0  0  0
    0.2480   -3.8492    2.0102 H   0  0  0  0  0  0
    1.8228   -5.2928    0.7902 H   0  0  0  0  0  0
    3.2748   -4.3453   -0.9552 H   0  0  0  0  0  0
    3.1533   -1.9484   -1.4949 H   0  0  0  0  0  0
  1  2  1  0  0  0
  1  6  2  0  0  0
  1 23  1  0  0  0
  2  3  2  0  0  0
  2 19  1  0  0  0
  3  4  1  0  0  0
  3 24  1  0  0  0
  4  5  2  0  0  0
  4 12  1  0  0  0
  5  6  1  0  0  0
  5  7  1  0  0  0
  6 25  1  0  0  0
  7  8  1  0  0  0
  7 26  1  0  0  0
  8  9  2  0  0  0
  8 10  1  0  0  0
 10 11  1  0  0  0
 10 27  1  0  0  0
 10 28  1  0  0  0
 11 12  2  0  0  0
 12 13  1  0  0  0
 13 14  1  0  0  0
 13 18  2  0  0  0
 14 15  2  0  0  0
 14 29  1  0  0  0
 15 16  1  0  0  0
 15 30  1  0  0  0
 16 17  2  0  0  0
 16 31  1  0  0  0
 17 18  1  0  0  0
 17 32  1  0  0  0
 18 33  1  0  0  0
 19 20  1  0  0  0
 19 21  1  0  0  0
 19 22  1  0  0  0
M  END
>  <Activity>
7.88606

>  <set>
1

>  <Min_dist>
999.9

>  <Avg_dist>
999.9

$$$$
RO05-4520
  Cerius2 12110214493D 1   1.00000                          
 
 33 35  0  0  0  0  0  0  0  0999 V2000
    2.2964   -2.9230    0.6443 C   0  0  0  0  0  0
    0.9695   -3.0290    1.0273 C   0  0  0  0  0  0
    0.1275   -1.9489    0.8991 C   0  0  0  0  0  0
    0.6007   -0.7336    0.3811 C   0  0  0  0  0  0
    1.9356   -0.6300   -0.0044 C   0  0  0  0  0  0
    2.7758   -1.7368    0.1343 C   0  0  0  0  0  0
    2.4885    0.5272   -0.5304 N   0  0  0  0  0  0
    2.2340    1.7612   -0.1012 C   0  0  0  0  0  0
    2.8179    2.6953   -0.6088 O   0  0  0  0  0  0
    1.2407    2.0276    0.9968 C   0  0  0  0  0  0
   -0.0862    1.6092    0.5466 N   0  0  0  0  0  0
   -0.3546    0.3804    0.2739 C   0  0  0  0  0  0
   -1.7273    0.0641   -0.1819 C   0  0  0  0  0  0
   -1.9302   -0.8665   -1.2014 C   0  0  0  0  0  0
   -3.2112   -1.1573   -1.6214 C   0  0  0  0  0  0
   -4.2960   -0.5285   -1.0348 C   0  0  0  0  0  0
   -4.1044    0.3948   -0.0241 C   0  0  0  0  0  0
   -2.8256    0.6918    0.4109 C   0  0  0  0  0  0
   -2.6385    1.5942    1.3988 F   0  0  0  0  0  0
    3.4269    0.3805   -1.6458 C   0  0  0  0  0  0
    2.9573   -3.7706    0.7499 H   0  0  0  0  0  0
    0.5957   -3.9603    1.4266 H   0  0  0  0  0  0
   -0.9062   -2.0370    1.1992 H   0  0  0  0  0  0
    3.8119   -1.6618   -0.1610 H   0  0  0  0  0  0
    1.5195    1.4625    1.8862 H   0  0  0  0  0  0
    1.2288    3.0927    1.2278 H   0  0  0  0  0  0
   -1.0856   -1.3579   -1.6611 H   0  0  0  0  0  0
   -3.3685   -1.8776   -2.4106 H   0  0  0  0  0  0
   -5.2966   -0.7601   -1.3687 H   0  0  0  0  0  0
   -4.9549    0.8822    0.4292 H   0  0  0  0  0  0
    3.7797    1.3642   -1.9556 H   0  0  0  0  0  0
    4.2750   -0.2267   -1.3296 H   0  0  0  0  0  0
    2.9240   -0.1051   -2.4821 H   0  0  0  0  0  0
  1  2  1  0  0  0
  1  6  2  0  0  0
  1 21  1  0  0  0
  2  3  2  0  0  0
  2 22  1  0  0  0
  3  4  1  0  0  0
  3 23  1  0  0  0
  4  5  2  0  0  0
  4 12  1  0  0  0
  5  6  1  0  0  0
  5  7  1  0  0  0
  6 24  1  0  0  0
  7  8  1  0  0  0
  7 20  1  0  0  0
  8  9  2  0  0  0
  8 10  1  0  0  0
 10 11  1  0  0  0
 10 25  1  0  0  0
 10 26  1  0  0  0
 11 12  2  0  0  0
 12 13  1  0  0  0
 13 14  1  0  0  0
 13 18  2  0  0  0
 14 15  2  0  0  0
 14 27  1  0  0  0
 15 16  1  0  0  0
 15 28  1  0  0  0
 16 17  2  0  0  0
 16 29  1  0  0  0
 17 18  1  0  0  0
 17 30  1  0  0  0
 18 19  1  0  0  0
 20 31  1  0  0  0
 20 32  1  0  0  0
 20 33  1  0  0  0
M  END
>  <Activity>
7.85387

>  <set>
1

>  <Min_dist>
999.9

>  <Avg_dist>
999.9

$$$$
RO20-8552
  Cerius2 12110214493D 1   1.00000                          
 
 33 35  0  0  0  0  0  0  0  0999 V2000
    3.1101   -1.2775   -0.3276 C   0  0  0  0  0  0
    1.9499   -1.9060    0.0971 C   0  0  0  0  0  0
    0.7891   -1.1813    0.2456 C   0  0  0  0  0  0
    0.7677    0.1945   -0.0302 C   0  0  0  0  0  0
    1.9352    0.8231   -0.4577 C   0  0  0  0  0  0
    3.1038    0.0722   -0.6017 C   0  0  0  0  0  0
    2.0060    2.1751   -0.7578 N   0  0  0  0  0  0
    1.4140    3.1453   -0.0650 C   0  0  0  0  0  0
    1.5900    4.2989   -0.3955 O   0  0  0  0  0  0
    0.5319    2.8482    1.1168 C   0  0  0  0  0  0
   -0.6274    2.0819    0.6616 N   0  0  0  0  0  0
   -0.5070    0.9067    0.1521 C   0  0  0  0  0  0
   -1.7436    0.2198   -0.2846 C   0  0  0  0  0  0
   -1.8295   -0.3197   -1.5684 C   0  0  0  0  0  0
   -2.9839   -0.9589   -1.9695 C   0  0  0  0  0  0
   -4.0575   -1.0664   -1.1023 C   0  0  0  0  0  0
   -3.9815   -0.5346    0.1712 C   0  0  0  0  0  0
   -2.8277    0.1036    0.5888 C   0  0  0  0  0  0
   -2.7534    0.6231    1.8338 F   0  0  0  0  0  0
   -0.4687   -1.8708    0.7076 C   0  0  0  0  0  0
    1.9607   -3.6076    0.4412 Cl  0  0  0  0  0  0
    4.0214   -1.8461   -0.4394 H   0  0  0  0  0  0
    4.0120    0.5550   -0.9310 H   0  0  0  0  0  0
    2.5282    2.4341   -1.5331 H   0  0  0  0  0  0
    1.0890    2.2660    1.8509 H   0  0  0  0  0  0
    0.1978    3.7829    1.5671 H   0  0  0  0  0  0
   -0.9935   -0.2366   -2.2471 H   0  0  0  0  0  0
   -3.0505   -1.3766   -2.9632 H   0  0  0  0  0  0
   -4.9588   -1.5678   -1.4225 H   0  0  0  0  0  0
   -4.8229   -0.6211    0.8428 H   0  0  0  0  0  0
   -1.0721   -2.1442   -0.1581 H   0  0  0  0  0  0
   -0.2064   -2.7694    1.2660 H   0  0  0  0  0  0
   -1.0376   -1.1976    1.3489 H   0  0  0  0  0  0
  1  2  1  0  0  0
  1  6  2  0  0  0
  1 22  1  0  0  0
  2  3  2  0  0  0
  2 21  1  0  0  0
  3  4  1  0  0  0
  3 20  1  0  0  0
  4  5  2  0  0  0
  4 12  1  0  0  0
  5  6  1  0  0  0
  5  7  1  0  0  0
  6 23  1  0  0  0
  7  8  1  0  0  0
  7 24  1  0  0  0
  8  9  2  0  0  0
  8 10  1  0  0  0
 10 11  1  0  0  0
 10 25  1  0  0  0
 10 26  1  0  0  0
 11 12  2  0  0  0
 12 13  1  0  0  0
 13 14  1  0  0  0
 13 18  2  0  0  0
 14 15  2  0  0  0
 14 27  1  0  0  0
 15 16  1  0  0  0
 15 28  1  0  0  0
 16 17  2  0  0  0
 16 29  1  0  0  0
 17 18  1  0  0  0
 17 30  1  0  0  0
 18 19  1  0  0  0
 20 31  1  0  0  0
 20 32  1  0  0  0
 20 33  1  0  0  0
M  END
>  <Activity>
7.85387

>  <set>
1

>  <Min_dist>
999.9

>  <Avg_dist>
999.9

$$$$
TEMAZEPAM
  Cerius2 12110214493D 1   1.00000                          
 
 34 36  0  0  0  0  0  0  0  0999 V2000
    1.1909   -2.8879   -0.3429 C   0  0  0  0  0  0
   -0.0856   -2.6911    0.1605 C   0  0  0  0  0  0
   -0.5543   -1.4137    0.3681 C   0  0  0  0  0  0
    0.2506   -0.3024    0.0736 C   0  0  0  0  0  0
    1.5327   -0.5037   -0.4334 C   0  0  0  0  0  0
    1.9920   -1.8067   -0.6363 C   0  0  0  0  0  0
    2.3947    0.5330   -0.7574 N   0  0  0  0  0  0
    2.5563    1.6456   -0.0448 C   0  0  0  0  0  0
    3.3787    2.4620   -0.4026 O   0  0  0  0  0  0
    1.7449    1.9169    1.1926 C   0  0  0  0  0  0
    0.3350    2.0254    0.8200 N   0  0  0  0  0  0
   -0.3138    1.0334    0.3219 C   0  0  0  0  0  0
   -1.7364    1.2522   -0.0293 C   0  0  0  0  0  0
   -2.3533    0.4466   -0.9861 C   0  0  0  0  0  0
   -3.6786    0.6549   -1.3085 C   0  0  0  0  0  0
   -4.3952    1.6609   -0.6852 C   0  0  0  0  0  0
   -3.7887    2.4636    0.2644 C   0  0  0  0  0  0
   -2.4656    2.2610    0.5998 C   0  0  0  0  0  0
    1.9135    0.8431    2.1204 O   0  0  0  0  0  0
    3.1903    0.3925   -1.9795 C   0  0  0  0  0  0
   -1.0933   -4.0559    0.5287 Cl  0  0  0  0  0  0
    1.5594   -3.8907   -0.5011 H   0  0  0  0  0  0
   -1.5496   -1.2654    0.7604 H   0  0  0  0  0  0
    2.9856   -1.9683   -1.0277 H   0  0  0  0  0  0
    2.0750    2.8505    1.6482 H   0  0  0  0  0  0
   -1.7947   -0.3386   -1.4739 H   0  0  0  0  0  0
   -4.1574    0.0317   -2.0493 H   0  0  0  0  0  0
   -5.4322    1.8204   -0.9411 H   0  0  0  0  0  0
   -4.3531    3.2476    0.7474 H   0  0  0  0  0  0
   -1.9933    2.8880    1.3415 H   0  0  0  0  0  0
    1.3778    1.0575    2.8964 H   0  0  0  0  0  0
    3.8177    1.2746   -2.1080 H   0  0  0  0  0  0
    3.8205   -0.4935   -1.9030 H   0  0  0  0  0  0
    2.5247    0.2921   -2.8368 H   0  0  0  0  0  0
  1  2  1  0  0  0
  1  6  2  0  0  0
  1 22  1  0  0  0
  2  3  2  0  0  0
  2 21  1  0  0  0
  3  4  1  0  0  0
  3 23  1  0  0  0
  4  5  2  0  0  0
  4 12  1  0  0  0
  5  6  1  0  0  0
  5  7  1  0  0  0
  6 24  1  0  0  0
  7  8  1  0  0  0
  7 20  1  0  0  0
  8  9  2  0  0  0
  8 10  1  0  0  0
 10 11  1  0  0  0
 10 19  1  0  0  0
 10 25  1  0  0  0
 11 12  2  0  0  0
 12 13  1  0  0  0
 13 14  1  0  0  0
 13 18  2  0  0  0
 14 15  2  0  0  0
 14 26  1  0  0  0
 15 16  1  0  0  0
 15 27  1  0  0  0
 16 17  2  0  0  0
 16 28  1  0  0  0
 17 18  1  0  0  0
 17 29  1  0  0  0
 18 30  1  0  0  0
 19 31  1  0  0  0
 20 32  1  0  0  0
 20 33  1  0  0  0
 20 34  1  0  0  0
M  END
>  <Activity>
7.79588

>  <set>
1

>  <Min_dist>
999.9

>  <Avg_dist>
999.9

$$$$
RO05-4865
  Cerius2 12110214493D 1   1.00000                          
 
 33 35  0  0  0  0  0  0  0  0999 V2000
    1.9042   -2.7486   -0.0541 C   0  0  0  0  0  0
    0.5953   -2.8427    0.3952 C   0  0  0  0  0  0
   -0.1614   -1.7028    0.5542 C   0  0  0  0  0  0
    0.3811   -0.4412    0.2646 C   0  0  0  0  0  0
    1.6956   -0.3509   -0.1879 C   0  0  0  0  0  0
    2.4486   -1.5167   -0.3421 C   0  0  0  0  0  0
    2.3117    0.8514   -0.5030 N   0  0  0  0  0  0
    2.1848    1.9811    0.1892 C   0  0  0  0  0  0
    2.8141    2.9589   -0.1556 O   0  0  0  0  0  0
    1.2809    2.0769    1.3879 C   0  0  0  0  0  0
   -0.0994    1.8549    0.9589 N   0  0  0  0  0  0
   -0.4832    0.7335    0.4595 C   0  0  0  0  0  0
   -1.9019    0.6160    0.0493 C   0  0  0  0  0  0
   -2.2775   -0.3227   -0.9114 C   0  0  0  0  0  0
   -3.6004   -0.4273   -1.2894 C   0  0  0  0  0  0
   -4.5533    0.3969   -0.7179 C   0  0  0  0  0  0
   -4.1869    1.3301    0.2355 C   0  0  0  0  0  0
   -2.8681    1.4399    0.6262 C   0  0  0  0  0  0
    3.1694    0.8797   -1.6903 C   0  0  0  0  0  0
    0.0626   -4.0520    0.6762 F   0  0  0  0  0  0
    2.4987   -3.6423   -0.1741 H   0  0  0  0  0  0
   -1.1802   -1.7805    0.9042 H   0  0  0  0  0  0
    3.4685   -1.4517   -0.6912 H   0  0  0  0  0  0
    1.5624    1.3189    2.1189 H   0  0  0  0  0  0
    1.3698    3.0674    1.8340 H   0  0  0  0  0  0
   -1.5344   -0.9662   -1.3587 H   0  0  0  0  0  0
   -3.8925   -1.1539   -2.0332 H   0  0  0  0  0  0
   -5.5874    0.3118   -1.0176 H   0  0  0  0  0  0
   -4.9352    1.9708    0.6780 H   0  0  0  0  0  0
   -2.5832    2.1687    1.3706 H   0  0  0  0  0  0
    3.5840    1.8800   -1.8152 H   0  0  0  0  0  0
    3.9813    0.1625   -1.5692 H   0  0  0  0  0  0
    2.5813    0.6177   -2.5698 H   0  0  0  0  0  0
  1  2  1  0  0  0
  1  6  2  0  0  0
  1 21  1  0  0  0
  2  3  2  0  0  0
  2 20  1  0  0  0
  3  4  1  0  0  0
  3 22  1  0  0  0
  4  5  2  0  0  0
  4 12  1  0  0  0
  5  6  1  0  0  0
  5  7  1  0  0  0
  6 23  1  0  0  0
  7  8  1  0  0  0
  7 19  1  0  0  0
  8  9  2  0  0  0
  8 10  1  0  0  0
 10 11  1  0  0  0
 10 24  1  0  0  0
 10 25  1  0  0  0
 11 12  2  0  0  0
 12 13  1  0  0  0
 13 14  1  0  0  0
 13 18  2  0  0  0
 14 15  2  0  0  0
 14 26  1  0  0  0
 15 16  1  0  0  0
 15 27  1  0  0  0
 16 17  2  0  0  0
 16 28  1  0  0  0
 17 18  1  0  0  0
 17 29  1  0  0  0
 18 30  1  0  0  0
 19 31  1  0  0  0
 19 32  1  0  0  0
 19 33  1  0  0  0
M  END
>  <Activity>
7.76955

>  <set>
1

>  <Min_dist>
999.9

>  <Avg_dist>
999.9

$$$$
OXAZEPAM
  Cerius2 12110214493D 1   1.00000                          
 
 31 33  0  0  0  0  0  0  0  0999 V2000
    1.8598   -2.5544   -0.5184 C   0  0  0  0  0  0
    0.6119   -2.6018    0.0834 C   0  0  0  0  0  0
   -0.0861   -1.4380    0.3133 C   0  0  0  0  0  0
    0.4550   -0.1972   -0.0574 C   0  0  0  0  0  0
    1.7089   -0.1532   -0.6631 C   0  0  0  0  0  0
    2.4032   -1.3438   -0.8873 C   0  0  0  0  0  0
    2.3184    1.0251   -1.0669 N   0  0  0  0  0  0
    2.3075    2.1665   -0.3822 C   0  0  0  0  0  0
    2.9199    3.1201   -0.8140 O   0  0  0  0  0  0
    1.5550    2.3045    0.9131 C   0  0  0  0  0  0
    0.1277    2.1202    0.6534 N   0  0  0  0  0  0
   -0.3452    1.0059    0.2201 C   0  0  0  0  0  0
   -1.8053    0.9278   -0.0185 C   0  0  0  0  0  0
   -2.3193   -0.0102   -0.9136 C   0  0  0  0  0  0
   -3.6801   -0.0784   -1.1312 C   0  0  0  0  0  0
   -4.5341    0.7814   -0.4639 C   0  0  0  0  0  0
   -4.0302    1.7143    0.4248 C   0  0  0  0  0  0
   -2.6718    1.7880    0.6555 C   0  0  0  0  0  0
    2.0055    1.3114    1.8365 O   0  0  0  0  0  0
   -0.0708   -4.1292    0.5466 Cl  0  0  0  0  0  0
    2.4087   -3.4678   -0.6942 H   0  0  0  0  0  0
   -1.0580   -1.4800    0.7823 H   0  0  0  0  0  0
    3.3762   -1.3152   -1.3551 H   0  0  0  0  0  0
    2.7899    1.0168   -1.9146 H   0  0  0  0  0  0
    1.7250    3.2971    1.3301 H   0  0  0  0  0  0
   -1.6535   -0.6815   -1.4356 H   0  0  0  0  0  0
   -4.0793   -0.8043   -1.8241 H   0  0  0  0  0  0
   -5.5985    0.7245   -0.6378 H   0  0  0  0  0  0
   -4.7019    2.3831    0.9425 H   0  0  0  0  0  0
   -2.2796    2.5164    1.3498 H   0  0  0  0  0  0
    1.4984    1.4359    2.6504 H   0  0  0  0  0  0
  1  2  1  0  0  0
  1  6  2  0  0  0
  1 21  1  0  0  0
  2  3  2  0  0  0
  2 20  1  0  0  0
  3  4  1  0  0  0
  3 22  1  0  0  0
  4  5  2  0  0  0
  4 12  1  0  0  0
  5  6  1  0  0  0
  5  7  1  0  0  0
  6 23  1  0  0  0
  7  8  1  0  0  0
  7 24  1  0  0  0
  8  9  2  0  0  0
  8 10  1  0  0  0
 10 11  1  0  0  0
 10 19  1  0  0  0
 10 25  1  0  0  0
 11 12  2  0  0  0
 12 13  1  0  0  0
 13 14  1  0  0  0
 13 18  2  0  0  0
 14 15  2  0  0  0
 14 26  1  0  0  0
 15 16  1  0  0  0
 15 27  1  0  0  0
 16 17  2  0  0  0
 16 28  1  0  0  0
 17 18  1  0  0  0
 17 29  1  0  0  0
 18 30  1  0  0  0
 19 31  1  0  0  0
M  END
>  <Activity>
7.74473

>  <set>
1

>  <Min_dist>
999.9

>  <Avg_dist>
999.9

$$$$
RO07-4419
  Cerius2 12110214493D 1   1.00000                          
 
 30 32  0  0  0  0  0  0  0  0999 V2000
    2.3457   -2.9544   -0.7167 C   0  0  0  0  0  0
    1.0526   -3.1425   -0.2572 C   0  0  0  0  0  0
    0.2934   -2.0609    0.1243 C   0  0  0  0  0  0
    0.8174   -0.7611    0.0525 C   0  0  0  0  0  0
    2.1178   -0.5745   -0.4114 C   0  0  0  0  0  0
    2.8740   -1.6847   -0.7932 C   0  0  0  0  0  0
    2.7155    0.6714   -0.5214 N   0  0  0  0  0  0
    2.6004    1.6571    0.3656 C   0  0  0  0  0  0
    3.2119    2.6887    0.1848 O   0  0  0  0  0  0
    1.7313    1.5251    1.5864 C   0  0  0  0  0  0
    0.3406    1.3670    1.1627 N   0  0  0  0  0  0
   -0.0498    0.3486    0.4793 C   0  0  0  0  0  0
   -1.4770    0.2893    0.0939 C   0  0  0  0  0  0
   -1.9026    0.8514   -1.1126 C   0  0  0  0  0  0
   -3.2378    0.7920   -1.4657 C   0  0  0  0  0  0
   -4.1515    0.1783   -0.6283 C   0  0  0  0  0  0
   -3.7381   -0.3804    0.5674 C   0  0  0  0  0  0
   -2.4054   -0.3342    0.9319 C   0  0  0  0  0  0
   -2.0034   -0.8808    2.1001 F   0  0  0  0  0  0
   -1.0115    1.4517   -1.9317 F   0  0  0  0  0  0
    2.9423   -3.8051   -1.0113 H   0  0  0  0  0  0
    0.6402   -4.1389   -0.1989 H   0  0  0  0  0  0
   -0.7143   -2.2131    0.4817 H   0  0  0  0  0  0
    3.8832   -1.5463   -1.1522 H   0  0  0  0  0  0
    3.2605    0.8378   -1.3063 H   0  0  0  0  0  0
    2.0393    0.6516    2.1611 H   0  0  0  0  0  0
    1.8262    2.4205    2.2007 H   0  0  0  0  0  0
   -3.5683    1.2263   -2.3976 H   0  0  0  0  0  0
   -5.1934    0.1353   -0.9094 H   0  0  0  0  0  0
   -4.4576   -0.8579    1.2160 H   0  0  0  0  0  0
  1  2  1  0  0  0
  1  6  2  0  0  0
  1 21  1  0  0  0
  2  3  2  0  0  0
  2 22  1  0  0  0
  3  4  1  0  0  0
  3 23  1  0  0  0
  4  5  2  0  0  0
  4 12  1  0  0  0
  5  6  1  0  0  0
  5  7  1  0  0  0
  6 24  1  0  0  0
  7  8  1  0  0  0
  7 25  1  0  0  0
  8  9  2  0  0  0
  8 10  1  0  0  0
 10 11  1  0  0  0
 10 26  1  0  0  0
 10 27  1  0  0  0
 11 12  2  0  0  0
 12 13  1  0  0  0
 13 14  1  0  0  0
 13 18  2  0  0  0
 14 15  2  0  0  0
 14 20  1  0  0  0
 15 16  1  0  0  0
 15 28  1  0  0  0
 16 17  2  0  0  0
 16 29  1  0  0  0
 17 18  1  0  0  0
 17 30  1  0  0  0
 18 19  1  0  0  0
M  END
>  <Activity>
7.72125

>  <set>
1

>  <Min_dist>
999.9

>  <Avg_dist>
999.9

$$$$
RO20-8895
  Cerius2 12110214493D 1   1.00000                          
 
 33 35  0  0  0  0  0  0  0  0999 V2000
    2.9744   -1.9670    0.2788 C   0  0  0  0  0  0
    1.7602   -2.4215    0.7666 C   0  0  0  0  0  0
    0.6530   -1.6066    0.7248 C   0  0  0  0  0  0
    0.7403   -0.3121    0.1899 C   0  0  0  0  0  0
    1.9625    0.1422   -0.3009 C   0  0  0  0  0  0
    3.0760   -0.6989   -0.2490 C   0  0  0  0  0  0
    2.1411    1.4019   -0.8512 N   0  0  0  0  0  0
    1.6029    2.5256   -0.3827 C   0  0  0  0  0  0
    1.8723    3.5786   -0.9207 O   0  0  0  0  0  0
    0.6688    2.5233    0.7965 C   0  0  0  0  0  0
   -0.5308    1.7628    0.4489 N   0  0  0  0  0  0
   -0.4832    0.5053    0.1789 C   0  0  0  0  0  0
   -1.7544   -0.1691   -0.1690 C   0  0  0  0  0  0
   -1.7852   -1.1261   -1.1837 C   0  0  0  0  0  0
   -2.9723   -1.7513   -1.5029 C   0  0  0  0  0  0
   -4.1332   -1.4318   -0.8200 C   0  0  0  0  0  0
   -4.1121   -0.4848    0.1867 C   0  0  0  0  0  0
   -2.9275    0.1458    0.5212 C   0  0  0  0  0  0
   -2.9070    1.0713    1.5052 F   0  0  0  0  0  0
    4.1877   -2.8593    0.3314 C   0  0  0  0  0  0
    1.6829   -3.4164    1.1796 H   0  0  0  0  0  0
   -0.2913   -1.9659    1.1064 H   0  0  0  0  0  0
    4.0265   -0.3515   -0.6263 H   0  0  0  0  0  0
    2.7026    1.4699   -1.6393 H   0  0  0  0  0  0
    1.1608    2.0587    1.6510 H   0  0  0  0  0  0
    0.3922    3.5479    1.0451 H   0  0  0  0  0  0
   -0.8810   -1.3767   -1.7185 H   0  0  0  0  0  0
   -2.9964   -2.4922   -2.2884 H   0  0  0  0  0  0
   -5.0598   -1.9244   -1.0752 H   0  0  0  0  0  0
   -5.0214   -0.2398    0.7155 H   0  0  0  0  0  0
    4.2465   -3.4470   -0.5847 H   0  0  0  0  0  0
    5.0846   -2.2477    0.4289 H   0  0  0  0  0  0
    4.1095   -3.5287    1.1881 H   0  0  0  0  0  0
  1  2  1  0  0  0
  1  6  2  0  0  0
  1 20  1  0  0  0
  2  3  2  0  0  0
  2 21  1  0  0  0
  3  4  1  0  0  0
  3 22  1  0  0  0
  4  5  2  0  0  0
  4 12  1  0  0  0
  5  6  1  0  0  0
  5  7  1  0  0  0
  6 23  1  0  0  0
  7  8  1  0  0  0
  7 24  1  0  0  0
  8  9  2  0  0  0
  8 10  1  0  0  0
 10 11  1  0  0  0
 10 25  1  0  0  0
 10 26  1  0  0  0
 11 12  2  0  0  0
 12 13  1  0  0  0
 13 14  1  0  0  0
 13 18  2  0  0  0
 14 15  2  0  0  0
 14 27  1  0  0  0
 15 16  1  0  0  0
 15 28  1  0  0  0
 16 17  2  0  0  0
 16 29  1  0  0  0
 17 18  1  0  0  0
 17 30  1  0  0  0
 18 19  1  0  0  0
 20 31  1  0  0  0
 20 32  1  0  0  0
 20 33  1  0  0  0
M  END
>  <Activity>
7.72125

>  <set>
1

>  <Min_dist>
999.9

>  <Avg_dist>
999.9

$$$$
RO05-4336
  Cerius2 12110214493D 1   1.00000                          
 
 30 32  0  0  0  0  0  0  0  0999 V2000
    2.5898   -2.8331    0.4361 C   0  0  0  0  0  0
    1.2952   -2.9601    0.9121 C   0  0  0  0  0  0
    0.4208   -1.9023    0.8197 C   0  0  0  0  0  0
    0.8283   -0.6887    0.2448 C   0  0  0  0  0  0
    2.1307   -0.5639   -0.2339 C   0  0  0  0  0  0
    3.0047   -1.6482   -0.1305 C   0  0  0  0  0  0
    2.6185    0.5932   -0.8210 N   0  0  0  0  0  0
    2.3647    1.8306   -0.4012 C   0  0  0  0  0  0
    2.8898    2.7658   -0.9674 O   0  0  0  0  0  0
    1.4429    2.0993    0.7569 C   0  0  0  0  0  0
    0.0986    1.6413    0.4083 N   0  0  0  0  0  0
   -0.1585    0.4009    0.1806 C   0  0  0  0  0  0
   -1.5512    0.0438   -0.1725 C   0  0  0  0  0  0
   -1.8013   -0.9138   -1.1559 C   0  0  0  0  0  0
   -3.1008   -1.2426   -1.4802 C   0  0  0  0  0  0
   -4.1574   -0.6252   -0.8334 C   0  0  0  0  0  0
   -3.9191    0.3247    0.1421 C   0  0  0  0  0  0
   -2.6209    0.6600    0.4814 C   0  0  0  0  0  0
   -2.3881    1.5884    1.4349 F   0  0  0  0  0  0
    3.2765   -3.6631    0.5136 H   0  0  0  0  0  0
    0.9720   -3.8903    1.3556 H   0  0  0  0  0  0
   -0.5875   -2.0067    1.1922 H   0  0  0  0  0  0
    4.0160   -1.5567   -0.4981 H   0  0  0  0  0  0
    3.1898    0.4934   -1.5985 H   0  0  0  0  0  0
    1.7954    1.5608    1.6366 H   0  0  0  0  0  0
    1.4214    3.1689    0.9658 H   0  0  0  0  0  0
   -0.9786   -1.3965   -1.6625 H   0  0  0  0  0  0
   -3.2946   -1.9839   -2.2414 H   0  0  0  0  0  0
   -5.1728   -0.8866   -1.0925 H   0  0  0  0  0  0
   -4.7479    0.8030    0.6427 H   0  0  0  0  0  0
  1  2  1  0  0  0
  1  6  2  0  0  0
  1 20  1  0  0  0
  2  3  2  0  0  0
  2 21  1  0  0  0
  3  4  1  0  0  0
  3 22  1  0  0  0
  4  5  2  0  0  0
  4 12  1  0  0  0
  5  6  1  0  0  0
  5  7  1  0  0  0
  6 23  1  0  0  0
  7  8  1  0  0  0
  7 24  1  0  0  0
  8  9  2  0  0  0
  8 10  1  0  0  0
 10 11  1  0  0  0
 10 25  1  0  0  0
 10 26  1  0  0  0
 11 12  2  0  0  0
 12 13  1  0  0  0
 13 14  1  0  0  0
 13 18  2  0  0  0
 14 15  2  0  0  0
 14 27  1  0  0  0
 15 16  1  0  0  0
 15 28  1  0  0  0
 16 17  2  0  0  0
 16 29  1  0  0  0
 17 18  1  0  0  0
 17 30  1  0  0  0
 18 19  1  0  0  0
M  END
>  <Activity>
7.67778

>  <set>
1

>  <Min_dist>
999.9

>  <Avg_dist>
999.9

$$$$
RO20-5747
  Cerius2 12110214493D 1   1.00000                          
 
 34 36  0  0  0  0  0  0  0  0999 V2000
    3.0179   -1.1502   -0.2954 C   0  0  0  0  0  0
    1.9547   -1.8756    0.2502 C   0  0  0  0  0  0
    0.7301   -1.2535    0.4556 C   0  0  0  0  0  0
    0.5542    0.0950    0.1193 C   0  0  0  0  0  0
    1.6203    0.8104   -0.4257 C   0  0  0  0  0  0
    2.8481    0.1726   -0.6264 C   0  0  0  0  0  0
    1.5320    2.1440   -0.7911 N   0  0  0  0  0  0
    0.8970    3.0878   -0.1005 C   0  0  0  0  0  0
    0.9315    4.2335   -0.4967 O   0  0  0  0  0  0
    0.1370    2.7708    1.1586 C   0  0  0  0  0  0
   -0.9696    1.8731    0.8295 N   0  0  0  0  0  0
   -0.7690    0.6902    0.3662 C   0  0  0  0  0  0
   -1.9597   -0.1352    0.0569 C   0  0  0  0  0  0
   -3.1753    0.1248    0.6894 C   0  0  0  0  0  0
   -4.2809   -0.6472    0.3968 C   0  0  0  0  0  0
   -4.1854   -1.6773   -0.5217 C   0  0  0  0  0  0
   -2.9824   -1.9401   -1.1523 C   0  0  0  0  0  0
   -1.8711   -1.1717   -0.8721 C   0  0  0  0  0  0
    2.1330   -3.2987    0.6066 C   0  0  0  0  0  0
    3.3032   -3.8901    0.4089 C   0  0  0  0  0  0
    3.9736   -1.6280   -0.4526 H   0  0  0  0  0  0
   -0.0920   -1.8130    0.8770 H   0  0  0  0  0  0
    3.6741    0.7269   -1.0470 H   0  0  0  0  0  0
    1.9679    2.4109   -1.6155 H   0  0  0  0  0  0
    0.8010    2.2850    1.8734 H   0  0  0  0  0  0
   -0.2557    3.6917    1.5897 H   0  0  0  0  0  0
   -3.2510    0.9284    1.4068 H   0  0  0  0  0  0
   -5.2227   -0.4471    0.8861 H   0  0  0  0  0  0
   -5.0535   -2.2790   -0.7472 H   0  0  0  0  0  0
   -2.9139   -2.7458   -1.8682 H   0  0  0  0  0  0
   -0.9325   -1.3776   -1.3652 H   0  0  0  0  0  0
    1.3101   -3.8570    1.0280 H   0  0  0  0  0  0
    3.4334   -4.9301    0.6694 H   0  0  0  0  0  0
    4.1260   -3.3317   -0.0124 H   0  0  0  0  0  0
  1  2  1  0  0  0
  1  6  2  0  0  0
  1 21  1  0  0  0
  2  3  2  0  0  0
  2 19  1  0  0  0
  3  4  1  0  0  0
  3 22  1  0  0  0
  4  5  2  0  0  0
  4 12  1  0  0  0
  5  6  1  0  0  0
  5  7  1  0  0  0
  6 23  1  0  0  0
  7  8  1  0  0  0
  7 24  1  0  0  0
  8  9  2  0  0  0
  8 10  1  0  0  0
 10 11  1  0  0  0
 10 25  1  0  0  0
 10 26  1  0  0  0
 11 12  2  0  0  0
 12 13  1  0  0  0
 13 14  1  0  0  0
 13 18  2  0  0  0
 14 15  2  0  0  0
 14 27  1  0  0  0
 15 16  1  0  0  0
 15 28  1  0  0  0
 16 17  2  0  0  0
 16 29  1  0  0  0
 17 18  1  0  0  0
 17 30  1  0  0  0
 18 31  1  0  0  0
 19 20  2  0  0  0
 19 32  1  0  0  0
 20 33  1  0  0  0
 20 34  1  0  0  0
M  END
>  <Activity>
7.61979

>  <set>
1

>  <Min_dist>
999.9

>  <Avg_dist>
999.9

$$$$
RO07-2750
  Cerius2 12110214493D 1   1.00000                          
 
 37 39  0  0  0  0  0  0  0  0999 V2000
    1.0221   -3.2040    0.0175 C   0  0  0  0  0  0
   -0.3315   -2.9573    0.1857 C   0  0  0  0  0  0
   -0.7801   -1.6673    0.3573 C   0  0  0  0  0  0
    0.1234   -0.5935    0.3634 C   0  0  0  0  0  0
    1.4831   -0.8448    0.1932 C   0  0  0  0  0  0
    1.9202   -2.1599    0.0216 C   0  0  0  0  0  0
    2.4461    0.1530    0.1804 N   0  0  0  0  0  0
    2.4650    1.2094    0.9898 C   0  0  0  0  0  0
    3.3889    1.9919    0.9182 O   0  0  0  0  0  0
    1.3700    1.4585    1.9909 C   0  0  0  0  0  0
    0.1142    1.6775    1.2743 N   0  0  0  0  0  0
   -0.4255    0.7584    0.5537 C   0  0  0  0  0  0
   -1.6935    1.0859   -0.1369 C   0  0  0  0  0  0
   -1.9207    0.6332   -1.4369 C   0  0  0  0  0  0
   -3.1040    0.9410   -2.0749 C   0  0  0  0  0  0
   -4.0665    1.6981   -1.4295 C   0  0  0  0  0  0
   -3.8498    2.1513   -0.1418 C   0  0  0  0  0  0
   -2.6704    1.8448    0.5123 C   0  0  0  0  0  0
   -2.4589    2.2875    1.7711 F   0  0  0  0  0  0
    3.5276    0.0348   -0.8007 C   0  0  0  0  0  0
    3.1197    0.7383   -2.0967 C   0  0  0  0  0  0
    2.8675    2.1194   -1.8299 O   0  0  0  0  0  0
   -1.4613   -4.2754    0.1794 Cl  0  0  0  0  0  0
    1.3735   -4.2170   -0.1125 H   0  0  0  0  0  0
   -1.8357   -1.4801    0.4878 H   0  0  0  0  0  0
    2.9734   -2.3604   -0.1089 H   0  0  0  0  0  0
    1.2704    0.5929    2.6458 H   0  0  0  0  0  0
    1.6109    2.3410    2.5834 H   0  0  0  0  0  0
   -1.1710    0.0429   -1.9428 H   0  0  0  0  0  0
   -3.2800    0.5906   -3.0812 H   0  0  0  0  0  0
   -4.9909    1.9361   -1.9347 H   0  0  0  0  0  0
   -4.6045    2.7422    0.3560 H   0  0  0  0  0  0
    4.4305    0.4990   -0.4039 H   0  0  0  0  0  0
    3.7200   -1.0186   -1.0042 H   0  0  0  0  0  0
    3.9244    0.6504   -2.8266 H   0  0  0  0  0  0
    2.2169    0.2741   -2.4935 H   0  0  0  0  0  0
    2.6142    2.5247   -2.6705 H   0  0  0  0  0  0
  1  2  1  0  0  0
  1  6  2  0  0  0
  1 24  1  0  0  0
  2  3  2  0  0  0
  2 23  1  0  0  0
  3  4  1  0  0  0
  3 25  1  0  0  0
  4  5  2  0  0  0
  4 12  1  0  0  0
  5  6  1  0  0  0
  5  7  1  0  0  0
  6 26  1  0  0  0
  7  8  1  0  0  0
  7 20  1  0  0  0
  8  9  2  0  0  0
  8 10  1  0  0  0
 10 11  1  0  0  0
 10 27  1  0  0  0
 10 28  1  0  0  0
 11 12  2  0  0  0
 12 13  1  0  0  0
 13 14  1  0  0  0
 13 18  2  0  0  0
 14 15  2  0  0  0
 14 29  1  0  0  0
 15 16  1  0  0  0
 15 30  1  0  0  0
 16 17  2  0  0  0
 16 31  1  0  0  0
 17 18  1  0  0  0
 17 32  1  0  0  0
 18 19  1  0  0  0
 20 21  1  0  0  0
 20 33  1  0  0  0
 20 34  1  0  0  0
 21 22  1  0  0  0
 21 35  1  0  0  0
 21 36  1  0  0  0
 22 37  1  0  0  0
M  END
>  <Activity>
7.61083

>  <set>
1

>  <Min_dist>
999.9

>  <Avg_dist>
999.9

$$$$
RO07-6198
  Cerius2 12110214493D 1   1.00000                          
 
 30 32  0  0  0  0  0  0  0  0999 V2000
    2.9650   -1.2316   -0.1207 C   0  0  0  0  0  0
    1.8791   -1.9736    0.3183 C   0  0  0  0  0  0
    0.6589   -1.3663    0.4995 C   0  0  0  0  0  0
    0.4991    0.0043    0.2428 C   0  0  0  0  0  0
    1.5913    0.7480   -0.1998 C   0  0  0  0  0  0
    2.8233    0.1157   -0.3768 C   0  0  0  0  0  0
    1.5250    2.1034   -0.4831 N   0  0  0  0  0  0
    0.8574    3.0041    0.2342 C   0  0  0  0  0  0
    0.9143    4.1729   -0.0845 O   0  0  0  0  0  0
    0.0337    2.6101    1.4298 C   0  0  0  0  0  0
   -1.0560    1.7406    0.9882 N   0  0  0  0  0  0
   -0.8339    0.5877    0.4603 C   0  0  0  0  0  0
   -2.0070   -0.2100    0.0401 C   0  0  0  0  0  0
   -2.5185   -0.0789   -1.2538 C   0  0  0  0  0  0
   -3.6148   -0.8277   -1.6388 C   0  0  0  0  0  0
   -4.2056   -1.7045   -0.7472 C   0  0  0  0  0  0
   -3.7052   -1.8399    0.5350 C   0  0  0  0  0  0
   -2.6057   -1.1027    0.9331 C   0  0  0  0  0  0
   -2.1180   -1.2367    2.1859 F   0  0  0  0  0  0
   -1.9433    0.7778   -2.1258 F   0  0  0  0  0  0
    4.5068   -1.9984   -0.3414 Cl  0  0  0  0  0  0
    1.9917   -3.0291    0.5177 H   0  0  0  0  0  0
   -0.1836   -1.9488    0.8419 H   0  0  0  0  0  0
    3.6736    0.6875   -0.7179 H   0  0  0  0  0  0
    2.0029    2.4203   -1.2655 H   0  0  0  0  0  0
    0.6599    2.0762    2.1446 H   0  0  0  0  0  0
   -0.3791    3.5031    1.8991 H   0  0  0  0  0  0
   -4.0113   -0.7274   -2.6384 H   0  0  0  0  0  0
   -5.0623   -2.2862   -1.0538 H   0  0  0  0  0  0
   -4.1722   -2.5265    1.2256 H   0  0  0  0  0  0
  1  2  1  0  0  0
  1  6  2  0  0  0
  1 21  1  0  0  0
  2  3  2  0  0  0
  2 22  1  0  0  0
  3  4  1  0  0  0
  3 23  1  0  0  0
  4  5  2  0  0  0
  4 12  1  0  0  0
  5  6  1  0  0  0
  5  7  1  0  0  0
  6 24  1  0  0  0
  7  8  1  0  0  0
  7 25  1  0  0  0
  8  9  2  0  0  0
  8 10  1  0  0  0
 10 11  1  0  0  0
 10 26  1  0  0  0
 10 27  1  0  0  0
 11 12  2  0  0  0
 12 13  1  0  0  0
 13 14  1  0  0  0
 13 18  2  0  0  0
 14 15  2  0  0  0
 14 20  1  0  0  0
 15 16  1  0  0  0
 15 28  1  0  0  0
 16 17  2  0  0  0
 16 29  1  0  0  0
 17 18  1  0  0  0
 17 30  1  0  0  0
 18 19  1  0  0  0
M  END
>  <Activity>
7.55284

>  <set>
1

>  <Min_dist>
999.9

>  <Avg_dist>
999.9

$$$$
DESMETHYLTETRAZEPAM
  Cerius2 12110214493D 1   1.00000                          
 
 34 36  0  0  0  0  0  0  0  0999 V2000
    2.6558   -1.7725   -0.5391 C   0  0  0  0  0  0
    1.4576   -2.2303   -0.0138 C   0  0  0  0  0  0
    0.4558   -1.3381    0.2950 C   0  0  0  0  0  0
    0.6355    0.0371    0.0817 C   0  0  0  0  0  0
    1.8402    0.4938   -0.4477 C   0  0  0  0  0  0
    2.8461   -0.4254   -0.7535 C   0  0  0  0  0  0
    2.1038    1.8323   -0.6968 N   0  0  0  0  0  0
    1.7571    2.8422    0.0978 C   0  0  0  0  0  0
    2.0870    3.9700   -0.2025 O   0  0  0  0  0  0
    0.9664    2.6215    1.3584 C   0  0  0  0  0  0
   -0.3456    2.0805    1.0057 N   0  0  0  0  0  0
   -0.4770    0.9335    0.4367 C   0  0  0  0  0  0
   -1.8445    0.4837    0.1156 C   0  0  0  0  0  0
   -2.4625   -0.2851    0.9831 C   0  0  0  0  0  0
   -3.8496   -0.8226    0.7835 C   0  0  0  0  0  0
   -4.5693   -0.0303   -0.3098 C   0  0  0  0  0  0
   -3.6510    0.0525   -1.5354 C   0  0  0  0  0  0
   -2.4513    0.9360   -1.1806 C   0  0  0  0  0  0
    1.2200   -3.9289    0.2542 Cl  0  0  0  0  0  0
    3.4431   -2.4727   -0.7765 H   0  0  0  0  0  0
   -0.4760   -1.6994    0.7043 H   0  0  0  0  0  0
    3.7828   -0.0763   -1.1624 H   0  0  0  0  0  0
    2.5779    2.0497   -1.5147 H   0  0  0  0  0  0
    1.4923    1.9146    2.0001 H   0  0  0  0  0  0
    0.8417    3.5695    1.8818 H   0  0  0  0  0  0
   -1.9421   -0.5458    1.8928 H   0  0  0  0  0  0
   -3.7922   -1.8712    0.4915 H   0  0  0  0  0  0
   -4.4071   -0.7394    1.7165 H   0  0  0  0  0  0
   -5.4957   -0.5372   -0.5799 H   0  0  0  0  0  0
   -4.7899    0.9744    0.0510 H   0  0  0  0  0  0
   -3.3079   -0.9466   -1.8040 H   0  0  0  0  0  0
   -4.1946    0.4931   -2.3712 H   0  0  0  0  0  0
   -2.7792    1.9716   -1.0908 H   0  0  0  0  0  0
   -1.7030    0.8632   -1.9698 H   0  0  0  0  0  0
  1  2  1  0  0  0
  1  6  2  0  0  0
  1 20  1  0  0  0
  2  3  2  0  0  0
  2 19  1  0  0  0
  3  4  1  0  0  0
  3 21  1  0  0  0
  4  5  2  0  0  0
  4 12  1  0  0  0
  5  6  1  0  0  0
  5  7  1  0  0  0
  6 22  1  0  0  0
  7  8  1  0  0  0
  7 23  1  0  0  0
  8  9  2  0  0  0
  8 10  1  0  0  0
 10 11  1  0  0  0
 10 24  1  0  0  0
 10 25  1  0  0  0
 11 12  2  0  0  0
 12 13  1  0  0  0
 13 14  2  0  0  0
 13 18  1  0  0  0
 14 15  1  0  0  0
 14 26  1  0  0  0
 15 16  1  0  0  0
 15 27  1  0  0  0
 15 28  1  0  0  0
 16 17  1  0  0  0
 16 29  1  0  0  0
 16 30  1  0  0  0
 17 18  1  0  0  0
 17 31  1  0  0  0
 17 32  1  0  0  0
 18 33  1  0  0  0
 18 34  1  0  0  0
M  END
>  <Activity>
7.46852

>  <set>
1

>  <Min_dist>
999.9

>  <Avg_dist>
999.9

$$$$
RO20-2533
  Cerius2 12110214493D 1   1.00000                          
 
 36 38  0  0  0  0  0  0  0  0999 V2000
    2.7716   -1.5874   -0.6541 C   0  0  0  0  0  0
    1.6329   -2.1674   -0.1196 C   0  0  0  0  0  0
    0.5484   -1.3853    0.2029 C   0  0  0  0  0  0
    0.5832    0.0023   -0.0047 C   0  0  0  0  0  0
    1.7294    0.5829   -0.5435 C   0  0  0  0  0  0
    2.8210   -0.2271   -0.8639 C   0  0  0  0  0  0
    1.8515    1.9420   -0.7878 N   0  0  0  0  0  0
    1.4113    2.9070    0.0163 C   0  0  0  0  0  0
    1.6207    4.0643   -0.2803 O   0  0  0  0  0  0
    0.6605    2.5997    1.2831 C   0  0  0  0  0  0
   -0.5926    1.9286    0.9400 N   0  0  0  0  0  0
   -0.6113    0.7774    0.3654 C   0  0  0  0  0  0
   -1.9346    0.1886    0.0537 C   0  0  0  0  0  0
   -2.0572   -0.7603   -0.9610 C   0  0  0  0  0  0
   -3.2922   -1.3054   -1.2464 C   0  0  0  0  0  0
   -4.4075   -0.9125   -0.5282 C   0  0  0  0  0  0
   -4.2923    0.0286    0.4793 C   0  0  0  0  0  0
   -3.0617    0.5767    0.7777 C   0  0  0  0  0  0
    1.5820   -3.6562    0.1081 C   0  0  0  0  0  0
    2.0941   -3.9749    1.5142 C   0  0  0  0  0  0
    3.6240   -2.2024   -0.9025 H   0  0  0  0  0  0
   -0.3371   -1.8426    0.6189 H   0  0  0  0  0  0
    3.7128    0.2177   -1.2801 H   0  0  0  0  0  0
    2.2925    2.2107   -1.6089 H   0  0  0  0  0  0
    1.2628    1.9472    1.9153 H   0  0  0  0  0  0
    0.4446    3.5271    1.8137 H   0  0  0  0  0  0
   -1.1873   -1.0675   -1.5226 H   0  0  0  0  0  0
   -3.3885   -2.0400   -2.0321 H   0  0  0  0  0  0
   -5.3721   -1.3420   -0.7551 H   0  0  0  0  0  0
   -5.1666    0.3319    1.0360 H   0  0  0  0  0  0
   -2.9729    1.3114    1.5644 H   0  0  0  0  0  0
    0.5538   -4.0041    0.0085 H   0  0  0  0  0  0
    2.2084   -4.1582   -0.6292 H   0  0  0  0  0  0
    2.0573   -5.0517    1.6789 H   0  0  0  0  0  0
    3.1223   -3.6270    1.6139 H   0  0  0  0  0  0
    1.4677   -3.4729    2.2515 H   0  0  0  0  0  0
  1  2  1  0  0  0
  1  6  2  0  0  0
  1 21  1  0  0  0
  2  3  2  0  0  0
  2 19  1  0  0  0
  3  4  1  0  0  0
  3 22  1  0  0  0
  4  5  2  0  0  0
  4 12  1  0  0  0
  5  6  1  0  0  0
  5  7  1  0  0  0
  6 23  1  0  0  0
  7  8  1  0  0  0
  7 24  1  0  0  0
  8  9  2  0  0  0
  8 10  1  0  0  0
 10 11  1  0  0  0
 10 25  1  0  0  0
 10 26  1  0  0  0
 11 12  2  0  0  0
 12 13  1  0  0  0
 13 14  1  0  0  0
 13 18  2  0  0  0
 14 15  2  0  0  0
 14 27  1  0  0  0
 15 16  1  0  0  0
 15 28  1  0  0  0
 16 17  2  0  0  0
 16 29  1  0  0  0
 17 18  1  0  0  0
 17 30  1  0  0  0
 18 31  1  0  0  0
 19 20  1  0  0  0
 19 32  1  0  0  0
 19 33  1  0  0  0
 20 34  1  0  0  0
 20 35  1  0  0  0
 20 36  1  0  0  0
M  END
>  <Activity>
7.4437

>  <set>
1

>  <Min_dist>
999.9

>  <Avg_dist>
999.9

$$$$
RO05-3061
  Cerius2 12110214493D 1   1.00000                          
 
 30 32  0  0  0  0  0  0  0  0999 V2000
    2.3271   -2.4881   -0.2125 C   0  0  0  0  0  0
    1.0661   -2.6924    0.3282 C   0  0  0  0  0  0
    0.2116   -1.6265    0.5039 C   0  0  0  0  0  0
    0.6056   -0.3297    0.1394 C   0  0  0  0  0  0
    1.8722   -0.1287   -0.4048 C   0  0  0  0  0  0
    2.7260   -1.2205   -0.5746 C   0  0  0  0  0  0
    2.3435    1.1153   -0.7979 N   0  0  0  0  0  0
    2.1501    2.2523   -0.1334 C   0  0  0  0  0  0
    2.6549    3.2733   -0.5503 O   0  0  0  0  0  0
    1.3213    2.3040    1.1210 C   0  0  0  0  0  0
   -0.0550    1.9329    0.7947 N   0  0  0  0  0  0
   -0.3569    0.7616    0.3572 C   0  0  0  0  0  0
   -1.7806    0.4914    0.0490 C   0  0  0  0  0  0
   -2.1226   -0.5145   -0.8545 C   0  0  0  0  0  0
   -3.4503   -0.7614   -1.1376 C   0  0  0  0  0  0
   -4.4413   -0.0132   -0.5275 C   0  0  0  0  0  0
   -4.1083    0.9859    0.3696 C   0  0  0  0  0  0
   -2.7843    1.2381    0.6654 C   0  0  0  0  0  0
    0.6761   -3.9366    0.6819 F   0  0  0  0  0  0
    2.9986   -3.3234   -0.3456 H   0  0  0  0  0  0
   -0.7693   -1.7900    0.9251 H   0  0  0  0  0  0
    3.7094   -1.0695   -0.9946 H   0  0  0  0  0  0
    2.8543    1.1601   -1.6213 H   0  0  0  0  0  0
    1.7240    1.6047    1.8537 H   0  0  0  0  0  0
    1.3399    3.3144    1.5295 H   0  0  0  0  0  0
   -1.3498   -1.0987   -1.3319 H   0  0  0  0  0  0
   -3.7164   -1.5401   -1.8371 H   0  0  0  0  0  0
   -5.4791   -0.2097   -0.7528 H   0  0  0  0  0  0
   -4.8863    1.5666    0.8427 H   0  0  0  0  0  0
   -2.5256    2.0183    1.3659 H   0  0  0  0  0  0
  1  2  1  0  0  0
  1  6  2  0  0  0
  1 20  1  0  0  0
  2  3  2  0  0  0
  2 19  1  0  0  0
  3  4  1  0  0  0
  3 21  1  0  0  0
  4  5  2  0  0  0
  4 12  1  0  0  0
  5  6  1  0  0  0
  5  7  1  0  0  0
  6 22  1  0  0  0
  7  8  1  0  0  0
  7 23  1  0  0  0
  8  9  2  0  0  0
  8 10  1  0  0  0
 10 11  1  0  0  0
 10 24  1  0  0  0
 10 25  1  0  0  0
 11 12  2  0  0  0
 12 13  1  0  0  0
 13 14  1  0  0  0
 13 18  2  0  0  0
 14 15  2  0  0  0
 14 26  1  0  0  0
 15 16  1  0  0  0
 15 27  1  0  0  0
 16 17  2  0  0  0
 16 28  1  0  0  0
 17 18  1  0  0  0
 17 29  1  0  0  0
 18 30  1  0  0  0
M  END
>  <Activity>
7.39794

>  <set>
1

>  <Min_dist>
999.9

>  <Avg_dist>
999.9

$$$$
RO22-6762
  Cerius2 12110214493D 1   1.00000                          
 
 33 35  0  0  0  0  0  0  0  0999 V2000
    1.0932   -2.9164   -0.3487 C   0  0  0  0  0  0
   -0.1816   -2.5343    0.0369 C   0  0  0  0  0  0
   -0.4610   -1.2055    0.2721 C   0  0  0  0  0  0
    0.5387   -0.2301    0.1236 C   0  0  0  0  0  0
    1.8188   -0.6189   -0.2659 C   0  0  0  0  0  0
    2.0831   -1.9700   -0.4983 C   0  0  0  0  0  0
    2.8651    0.2740   -0.4421 N   0  0  0  0  0  0
    3.1257    1.3135    0.3473 C   0  0  0  0  0  0
    4.1016    1.9971    0.1209 O   0  0  0  0  0  0
    2.2409    1.6629    1.5127 C   0  0  0  0  0  0
    0.9144    2.0185    1.0102 N   0  0  0  0  0  0
    0.1719    1.1685    0.3930 C   0  0  0  0  0  0
   -1.1517    1.6337   -0.0832 C   0  0  0  0  0  0
   -1.8727    2.5702    0.6572 C   0  0  0  0  0  0
   -3.1046    3.0000    0.2082 C   0  0  0  0  0  0
   -3.6248    2.5038   -0.9738 C   0  0  0  0  0  0
   -2.9145    1.5743   -1.7124 C   0  0  0  0  0  0
   -1.6790    1.1412   -1.2767 C   0  0  0  0  0  0
    3.7535    0.0557   -1.5863 C   0  0  0  0  0  0
   -2.0603   -0.7336    0.7548 Cl  0  0  0  0  0  0
   -1.4270   -3.7293    0.2232 Cl  0  0  0  0  0  0
    1.3124   -3.9586   -0.5281 H   0  0  0  0  0  0
    3.0742   -2.2766   -0.7984 H   0  0  0  0  0  0
    2.1605    0.8049    2.1801 H   0  0  0  0  0  0
    2.6656    2.5092    2.0527 H   0  0  0  0  0  0
   -1.4677    2.9580    1.5803 H   0  0  0  0  0  0
   -3.6640    3.7249    0.7809 H   0  0  0  0  0  0
   -4.5894    2.8432   -1.3212 H   0  0  0  0  0  0
   -3.3259    1.1904   -2.6342 H   0  0  0  0  0  0
   -1.1254    0.4156   -1.8542 H   0  0  0  0  0  0
    4.5239    0.8266   -1.6004 H   0  0  0  0  0  0
    4.2221   -0.9247   -1.5007 H   0  0  0  0  0  0
    3.1755    0.1027   -2.5093 H   0  0  0  0  0  0
  1  2  1  0  0  0
  1  6  2  0  0  0
  1 22  1  0  0  0
  2  3  2  0  0  0
  2 21  1  0  0  0
  3  4  1  0  0  0
  3 20  1  0  0  0
  4  5  2  0  0  0
  4 12  1  0  0  0
  5  6  1  0  0  0
  5  7  1  0  0  0
  6 23  1  0  0  0
  7  8  1  0  0  0
  7 19  1  0  0  0
  8  9  2  0  0  0
  8 10  1  0  0  0
 10 11  1  0  0  0
 10 24  1  0  0  0
 10 25  1  0  0  0
 11 12  2  0  0  0
 12 13  1  0  0  0
 13 14  1  0  0  0
 13 18  2  0  0  0
 14 15  2  0  0  0
 14 26  1  0  0  0
 15 16  1  0  0  0
 15 27  1  0  0  0
 16 17  2  0  0  0
 16 28  1  0  0  0
 17 18  1  0  0  0
 17 29  1  0  0  0
 18 30  1  0  0  0
 19 31  1  0  0  0
 19 32  1  0  0  0
 19 33  1  0  0  0
M  END
>  <Activity>
7.39794

>  <set>
1

>  <Min_dist>
999.9

>  <Avg_dist>
999.9

$$$$
RO20-5397
  Cerius2 12110214493D 1   1.00000                          
 
 32 34  0  0  0  0  0  0  0  0999 V2000
    3.0575   -0.9768   -0.3100 C   0  0  0  0  0  0
    2.0286   -1.7579    0.2358 C   0  0  0  0  0  0
    0.7716   -1.1941    0.4452 C   0  0  0  0  0  0
    0.5319    0.1432    0.1141 C   0  0  0  0  0  0
    1.5628    0.9117   -0.4313 C   0  0  0  0  0  0
    2.8221    0.3347   -0.6356 C   0  0  0  0  0  0
    1.4101    2.2364   -0.7915 N   0  0  0  0  0  0
    0.7326    3.1474   -0.0976 C   0  0  0  0  0  0
    0.7125    4.2943   -0.4912 O   0  0  0  0  0  0
   -0.0095    2.7925    1.1619 C   0  0  0  0  0  0
   -1.0733    1.8445    0.8325 N   0  0  0  0  0  0
   -0.8178    0.6739    0.3655 C   0  0  0  0  0  0
   -1.9686   -0.2064    0.0566 C   0  0  0  0  0  0
   -3.1936   -0.0067    0.6928 C   0  0  0  0  0  0
   -4.2619   -0.8296    0.4005 C   0  0  0  0  0  0
   -4.1196   -1.8515   -0.5212 C   0  0  0  0  0  0
   -2.9069   -2.0549   -1.1552 C   0  0  0  0  0  0
   -1.8330   -1.2347   -0.8759 C   0  0  0  0  0  0
    2.2746   -3.1635    0.5844 C   0  0  0  0  0  0
    3.3698   -3.6513    0.4004 O   0  0  0  0  0  0
    4.0355   -1.4061   -0.4696 H   0  0  0  0  0  0
   -0.0223   -1.7936    0.8655 H   0  0  0  0  0  0
    3.6190    0.9304   -1.0557 H   0  0  0  0  0  0
    1.8308    2.5257   -1.6163 H   0  0  0  0  0  0
    0.6779    2.3367    1.8746 H   0  0  0  0  0  0
   -0.4442    3.6930    1.5957 H   0  0  0  0  0  0
   -3.3056    0.7903    1.4131 H   0  0  0  0  0  0
   -5.2109   -0.6760    0.8925 H   0  0  0  0  0  0
   -4.9585   -2.4932   -0.7464 H   0  0  0  0  0  0
   -2.8017   -2.8547   -1.8733 H   0  0  0  0  0  0
   -0.8869   -1.3942   -1.3718 H   0  0  0  0  0  0
    1.4803   -3.7626    1.0045 H   0  0  0  0  0  0
  1  2  1  0  0  0
  1  6  2  0  0  0
  1 21  1  0  0  0
  2  3  2  0  0  0
  2 19  1  0  0  0
  3  4  1  0  0  0
  3 22  1  0  0  0
  4  5  2  0  0  0
  4 12  1  0  0  0
  5  6  1  0  0  0
  5  7  1  0  0  0
  6 23  1  0  0  0
  7  8  1  0  0  0
  7 24  1  0  0  0
  8  9  2  0  0  0
  8 10  1  0  0  0
 10 11  1  0  0  0
 10 25  1  0  0  0
 10 26  1  0  0  0
 11 12  2  0  0  0
 12 13  1  0  0  0
 13 14  1  0  0  0
 13 18  2  0  0  0
 14 15  2  0  0  0
 14 27  1  0  0  0
 15 16  1  0  0  0
 15 28  1  0  0  0
 16 17  2  0  0  0
 16 29  1  0  0  0
 17 18  1  0  0  0
 17 30  1  0  0  0
 18 31  1  0  0  0
 19 20  2  0  0  0
 19 32  1  0  0  0
M  END
>  <Activity>
7.36653

>  <set>
1

>  <Min_dist>
999.9

>  <Avg_dist>
999.9

$$$$
RO06-7263
  Cerius2 12110214493D 1   1.00000                          
 
 33 35  0  0  0  0  0  0  0  0999 V2000
    0.8722   -2.9363   -0.1443 C   0  0  0  0  0  0
   -0.4404   -2.6909    0.2276 C   0  0  0  0  0  0
   -0.8732   -1.3974    0.4123 C   0  0  0  0  0  0
    0.0050   -0.3186    0.2268 C   0  0  0  0  0  0
    1.3234   -0.5686   -0.1482 C   0  0  0  0  0  0
    1.7453   -1.8874   -0.3298 C   0  0  0  0  0  0
    2.2582    0.4337   -0.3587 N   0  0  0  0  0  0
    2.3916    1.5259    0.3903 C   0  0  0  0  0  0
    3.2812    2.3105    0.1374 O   0  0  0  0  0  0
    1.4673    1.8126    1.5421 C   0  0  0  0  0  0
    0.1102    1.9903    1.0272 N   0  0  0  0  0  0
   -0.5247    1.0369    0.4433 C   0  0  0  0  0  0
   -1.8919    1.3250   -0.0493 C   0  0  0  0  0  0
   -2.4390    0.5638   -1.0820 C   0  0  0  0  0  0
   -3.7130    0.8366   -1.5361 C   0  0  0  0  0  0
   -4.4473    1.8631   -0.9695 C   0  0  0  0  0  0
   -3.9099    2.6220    0.0549 C   0  0  0  0  0  0
   -2.6393    2.3548    0.5218 C   0  0  0  0  0  0
    1.4932    0.6397    2.5242 C   0  0  0  0  0  0
    3.3235    0.2520   -1.6839 Cl  0  0  0  0  0  0
   -1.5387   -4.0151    0.4598 Cl  0  0  0  0  0  0
    1.2120   -3.9518   -0.2846 H   0  0  0  0  0  0
   -1.8969   -1.2112    0.7020 H   0  0  0  0  0  0
    2.7665   -2.0868   -0.6190 H   0  0  0  0  0  0
    1.7874    2.7228    2.0492 H   0  0  0  0  0  0
   -1.8664   -0.2374   -1.5255 H   0  0  0  0  0  0
   -4.1377    0.2479   -2.3357 H   0  0  0  0  0  0
   -5.4440    2.0732   -1.3285 H   0  0  0  0  0  0
   -4.4878    3.4223    0.4930 H   0  0  0  0  0  0
   -2.2209    2.9476    1.3217 H   0  0  0  0  0  0
    0.8231    0.8491    3.3580 H   0  0  0  0  0  0
    1.1676   -0.2675    2.0153 H   0  0  0  0  0  0
    2.5075    0.5020    2.8990 H   0  0  0  0  0  0
  1  2  1  0  0  0
  1  6  2  0  0  0
  1 22  1  0  0  0
  2  3  2  0  0  0
  2 21  1  0  0  0
  3  4  1  0  0  0
  3 23  1  0  0  0
  4  5  2  0  0  0
  4 12  1  0  0  0
  5  6  1  0  0  0
  5  7  1  0  0  0
  6 24  1  0  0  0
  7  8  1  0  0  0
  7 20  1  0  0  0
  8  9  2  0  0  0
  8 10  1  0  0  0
 10 11  1  0  0  0
 10 19  1  0  0  0
 10 25  1  0  0  0
 11 12  2  0  0  0
 12 13  1  0  0  0
 13 14  1  0  0  0
 13 18  2  0  0  0
 14 15  2  0  0  0
 14 26  1  0  0  0
 15 16  1  0  0  0
 15 27  1  0  0  0
 16 17  2  0  0  0
 16 28  1  0  0  0
 17 18  1  0  0  0
 17 29  1  0  0  0
 18 30  1  0  0  0
 19 31  1  0  0  0
 19 32  1  0  0  0
 19 33  1  0  0  0
M  END
>  <Activity>
7.3098

>  <set>
1

>  <Min_dist>
999.9

>  <Avg_dist>
999.9

$$$$
RO20-1815
  Cerius2 12110214493D 1   1.00000                          
 
 35 37  0  0  0  0  0  0  0  0999 V2000
    2.3998   -2.6416    0.1827 C   0  0  0  0  0  0
    1.0780   -2.8614    0.5563 C   0  0  0  0  0  0
    0.1848   -1.8075    0.5783 C   0  0  0  0  0  0
    0.6006   -0.5148    0.2254 C   0  0  0  0  0  0
    1.9253   -0.3013   -0.1493 C   0  0  0  0  0  0
    2.8164   -1.3764   -0.1648 C   0  0  0  0  0  0
    2.4215    0.9419   -0.5183 N   0  0  0  0  0  0
    2.1176    2.0944    0.0739 C   0  0  0  0  0  0
    2.6542    3.1135   -0.3064 O   0  0  0  0  0  0
    1.1254    2.1662    1.2025 C   0  0  0  0  0  0
   -0.1864    1.7520    0.7063 N   0  0  0  0  0  0
   -0.4034    0.5601    0.2731 C   0  0  0  0  0  0
   -1.7654    0.2468   -0.2154 C   0  0  0  0  0  0
   -1.9377   -0.5474   -1.3494 C   0  0  0  0  0  0
   -3.2090   -0.8358   -1.7998 C   0  0  0  0  0  0
   -4.3141   -0.3393   -1.1304 C   0  0  0  0  0  0
   -4.1529    0.4488   -0.0063 C   0  0  0  0  0  0
   -2.8840    0.7404    0.4603 C   0  0  0  0  0  0
   -2.7266    1.5107    1.5590 F   0  0  0  0  0  0
    3.3532    0.9886   -1.6480 C   0  0  0  0  0  0
    0.6538   -4.1472    0.9087 N   0  0  0  0  0  0
    3.1007   -3.4632    0.1695 H   0  0  0  0  0  0
   -0.8409   -1.9802    0.8690 H   0  0  0  0  0  0
    3.8443   -1.2135   -0.4535 H   0  0  0  0  0  0
    1.4385    1.5004    2.0067 H   0  0  0  0  0  0
    1.0687    3.1892    1.5743 H   0  0  0  0  0  0
   -1.0771   -0.9355   -1.8739 H   0  0  0  0  0  0
   -3.3426   -1.4507   -2.6776 H   0  0  0  0  0  0
   -5.3070   -0.5684   -1.4882 H   0  0  0  0  0  0
   -5.0193    0.8334    0.5113 H   0  0  0  0  0  0
    3.6588    2.0199   -1.8245 H   0  0  0  0  0  0
    4.2308    0.3835   -1.4205 H   0  0  0  0  0  0
    2.8631    0.5972   -2.5395 H   0  0  0  0  0  0
    1.2816   -4.8865    0.8926 H   0  0  0  0  0  0
   -0.2681   -4.2994    1.1691 H   0  0  0  0  0  0
  1  2  1  0  0  0
  1  6  2  0  0  0
  1 22  1  0  0  0
  2  3  2  0  0  0
  2 21  1  0  0  0
  3  4  1  0  0  0
  3 23  1  0  0  0
  4  5  2  0  0  0
  4 12  1  0  0  0
  5  6  1  0  0  0
  5  7  1  0  0  0
  6 24  1  0  0  0
  7  8  1  0  0  0
  7 20  1  0  0  0
  8  9  2  0  0  0
  8 10  1  0  0  0
 10 11  1  0  0  0
 10 25  1  0  0  0
 10 26  1  0  0  0
 11 12  2  0  0  0
 12 13  1  0  0  0
 13 14  1  0  0  0
 13 18  2  0  0  0
 14 15  2  0  0  0
 14 27  1  0  0  0
 15 16  1  0  0  0
 15 28  1  0  0  0
 16 17  2  0  0  0
 16 29  1  0  0  0
 17 18  1  0  0  0
 17 30  1  0  0  0
 18 19  1  0  0  0
 20 31  1  0  0  0
 20 32  1  0  0  0
 20 33  1  0  0  0
 21 34  1  0  0  0
 21 35  1  0  0  0
M  END
>  <Activity>
7.18709

>  <set>
1

>  <Min_dist>
999.9

>  <Avg_dist>
999.9

$$$$
RO13-0593
  Cerius2 12110214493D 1   1.00000                          
 
 33 35  0  0  0  0  0  0  0  0999 V2000
    2.1489   -2.4384    0.7829 C   0  0  0  0  0  0
    0.8421   -2.7275    1.1398 C   0  0  0  0  0  0
   -0.1432   -1.7832    0.9695 C   0  0  0  0  0  0
    0.1619   -0.5221    0.4341 C   0  0  0  0  0  0
    1.4762   -0.2336    0.0744 C   0  0  0  0  0  0
    2.4647   -1.2047    0.2559 C   0  0  0  0  0  0
    4.1062   -0.8537   -0.1869 Cl  0  0  0  0  0  0
    1.8687    0.9817   -0.4661 N   0  0  0  0  0  0
    1.4281    2.1737   -0.0703 C   0  0  0  0  0  0
    1.8828    3.1727   -0.5864 O   0  0  0  0  0  0
    0.3811    2.3141    1.0008 C   0  0  0  0  0  0
   -0.8603    1.6989    0.5329 N   0  0  0  0  0  0
   -0.9416    0.4394    0.2820 C   0  0  0  0  0  0
   -2.2430   -0.0813   -0.1946 C   0  0  0  0  0  0
   -2.2853   -1.0504   -1.1973 C   0  0  0  0  0  0
   -3.5005   -1.5316   -1.6372 C   0  0  0  0  0  0
   -4.6783   -1.0560   -1.0869 C   0  0  0  0  0  0
   -4.6460   -0.0959   -0.0930 C   0  0  0  0  0  0
   -3.4341    0.3914    0.3617 C   0  0  0  0  0  0
   -3.4027    1.3295    1.3334 F   0  0  0  0  0  0
    2.8451    0.9512   -1.5578 C   0  0  0  0  0  0
    2.9223   -3.1794    0.9218 H   0  0  0  0  0  0
    0.5967   -3.6952    1.5518 H   0  0  0  0  0  0
   -1.1603   -2.0140    1.2499 H   0  0  0  0  0  0
    0.7176    1.8127    1.9082 H   0  0  0  0  0  0
    0.2096    3.3705    1.2074 H   0  0  0  0  0  0
   -1.3678   -1.4229   -1.6286 H   0  0  0  0  0  0
   -3.5335   -2.2816   -2.4137 H   0  0  0  0  0  0
   -5.6268   -1.4366   -1.4360 H   0  0  0  0  0  0
   -5.5684    0.2713    0.3320 H   0  0  0  0  0  0
    2.7952   -0.0133   -2.0631 H   0  0  0  0  0  0
    2.6201    1.7460   -2.2689 H   0  0  0  0  0  0
    3.8467    1.0981   -1.1536 H   0  0  0  0  0  0
  1  2  1  0  0  0
  1  6  2  0  0  0
  1 22  1  0  0  0
  2  3  2  0  0  0
  2 23  1  0  0  0
  3  4  1  0  0  0
  3 24  1  0  0  0
  4  5  2  0  0  0
  4 13  1  0  0  0
  5  6  1  0  0  0
  5  8  1  0  0  0
  6  7  1  0  0  0
  8  9  1  0  0  0
  8 21  1  0  0  0
  9 10  2  0  0  0
  9 11  1  0  0  0
 11 12  1  0  0  0
 11 25  1  0  0  0
 11 26  1  0  0  0
 12 13  2  0  0  0
 13 14  1  0  0  0
 14 15  1  0  0  0
 14 19  2  0  0  0
 15 16  2  0  0  0
 15 27  1  0  0  0
 16 17  1  0  0  0
 16 28  1  0  0  0
 17 18  2  0  0  0
 17 29  1  0  0  0
 18 19  1  0  0  0
 18 30  1  0  0  0
 19 20  1  0  0  0
 21 31  1  0  0  0
 21 32  1  0  0  0
 21 33  1  0  0  0
M  END
>  <Activity>
7.14267

>  <set>
1

>  <Min_dist>
999.9

>  <Avg_dist>
999.9

$$$$
RO05-4619
  Cerius2 12110214493D 1   1.00000                          
 
 32 34  0  0  0  0  0  0  0  0999 V2000
    3.2416   -2.0368    0.2520 C   0  0  0  0  0  0
    1.9948   -2.4911    0.6692 C   0  0  0  0  0  0
    0.8940   -1.6611    0.5779 C   0  0  0  0  0  0
    1.0236   -0.3610    0.0664 C   0  0  0  0  0  0
    2.2748    0.0879   -0.3508 C   0  0  0  0  0  0
    3.3778   -0.7628   -0.2513 C   0  0  0  0  0  0
    2.4938    1.3555   -0.8735 N   0  0  0  0  0  0
    1.9399    2.4772   -0.4193 C   0  0  0  0  0  0
    2.2465    3.5351   -0.9274 O   0  0  0  0  0  0
    0.9431    2.4673    0.7073 C   0  0  0  0  0  0
   -0.2417    1.7219    0.2843 N   0  0  0  0  0  0
   -0.1899    0.4687    0.0002 C   0  0  0  0  0  0
   -1.4464   -0.1892   -0.4262 C   0  0  0  0  0  0
   -1.4296   -1.1320   -1.4542 C   0  0  0  0  0  0
   -2.6031   -1.7414   -1.8469 C   0  0  0  0  0  0
   -3.7962   -1.4196   -1.2238 C   0  0  0  0  0  0
   -3.8209   -0.4861   -0.2041 C   0  0  0  0  0  0
   -2.6516    0.1273    0.2027 C   0  0  0  0  0  0
   -2.6835    1.2988    1.4835 Cl  0  0  0  0  0  0
    1.8556   -3.7863    1.1798 N   0  0  0  0  0  0
    4.1041   -2.6825    0.3271 H   0  0  0  0  0  0
   -0.0732   -2.0157    0.9022 H   0  0  0  0  0  0
    4.3492   -0.4169   -0.5727 H   0  0  0  0  0  0
    3.0982    1.4293   -1.6286 H   0  0  0  0  0  0
    1.3841    1.9870    1.5808 H   0  0  0  0  0  0
    0.6614    3.4909    0.9547 H   0  0  0  0  0  0
   -0.4995   -1.3842   -1.9419 H   0  0  0  0  0  0
   -2.5909   -2.4712   -2.6430 H   0  0  0  0  0  0
   -4.7121   -1.8996   -1.5356 H   0  0  0  0  0  0
   -4.7551   -0.2393    0.2783 H   0  0  0  0  0  0
    2.6289   -4.3683    1.2432 H   0  0  0  0  0  0
    0.9857   -4.1021    1.4705 H   0  0  0  0  0  0
  1  2  1  0  0  0
  1  6  2  0  0  0
  1 21  1  0  0  0
  2  3  2  0  0  0
  2 20  1  0  0  0
  3  4  1  0  0  0
  3 22  1  0  0  0
  4  5  2  0  0  0
  4 12  1  0  0  0
  5  6  1  0  0  0
  5  7  1  0  0  0
  6 23  1  0  0  0
  7  8  1  0  0  0
  7 24  1  0  0  0
  8  9  2  0  0  0
  8 10  1  0  0  0
 10 11  1  0  0  0
 10 25  1  0  0  0
 10 26  1  0  0  0
 11 12  2  0  0  0
 12 13  1  0  0  0
 13 14  1  0  0  0
 13 18  2  0  0  0
 14 15  2  0  0  0
 14 27  1  0  0  0
 15 16  1  0  0  0
 15 28  1  0  0  0
 16 17  2  0  0  0
 16 29  1  0  0  0
 17 18  1  0  0  0
 17 30  1  0  0  0
 18 19  1  0  0  0
 20 31  1  0  0  0
 20 32  1  0  0  0
M  END
>  <Activity>
7.12494

>  <set>
1

>  <Min_dist>
999.9

>  <Avg_dist>
999.9

$$$$
HALAZEPAM
  Cerius2 12110214493D 1   1.00000                          
 
 36 38  0  0  0  0  0  0  0  0999 V2000
   -0.3765   -3.1879    0.1041 C   0  0  0  0  0  0
   -1.6197   -2.5771    0.1569 C   0  0  0  0  0  0
   -1.7143   -1.2305    0.4259 C   0  0  0  0  0  0
   -0.5590   -0.4652    0.6483 C   0  0  0  0  0  0
    0.6891   -1.0820    0.5934 C   0  0  0  0  0  0
    0.7657   -2.4494    0.3205 C   0  0  0  0  0  0
    1.8824   -0.4050    0.7945 N   0  0  0  0  0  0
    2.0841    0.5341    1.7160 C   0  0  0  0  0  0
    3.1886    1.0218    1.8304 O   0  0  0  0  0  0
    0.9774    1.0065    2.6190 C   0  0  0  0  0  0
   -0.0635    1.6324    1.8046 N   0  0  0  0  0  0
   -0.7345    0.9677    0.9323 C   0  0  0  0  0  0
   -1.7609    1.6997    0.1541 C   0  0  0  0  0  0
   -2.1664    1.2233   -1.0924 C   0  0  0  0  0  0
   -3.1230    1.9092   -1.8121 C   0  0  0  0  0  0
   -3.6795    3.0677   -1.2999 C   0  0  0  0  0  0
   -3.2811    3.5455   -0.0643 C   0  0  0  0  0  0
   -2.3297    2.8650    0.6677 C   0  0  0  0  0  0
    3.0096   -0.7507   -0.0751 C   0  0  0  0  0  0
    2.9866    0.1406   -1.3185 C   0  0  0  0  0  0
    4.0630   -0.1895   -2.1488 F   0  0  0  0  0  0
    1.7866   -0.0552   -2.0105 F   0  0  0  0  0  0
    3.0892    1.4815   -0.9330 F   0  0  0  0  0  0
   -3.0576   -3.5104   -0.1170 Cl  0  0  0  0  0  0
   -0.3037   -4.2454   -0.1026 H   0  0  0  0  0  0
   -2.6851   -0.7590    0.4659 H   0  0  0  0  0  0
    1.7306   -2.9327    0.2782 H   0  0  0  0  0  0
    0.5579    0.1569    3.1576 H   0  0  0  0  0  0
    1.3712    1.7332    3.3296 H   0  0  0  0  0  0
   -1.7321    0.3194   -1.4935 H   0  0  0  0  0  0
   -3.4378    1.5412   -2.7775 H   0  0  0  0  0  0
   -4.4277    3.6013   -1.8672 H   0  0  0  0  0  0
   -3.7188    4.4506    0.3302 H   0  0  0  0  0  0
   -2.0197    3.2388    1.6324 H   0  0  0  0  0  0
    3.9446   -0.5981    0.4641 H   0  0  0  0  0  0
    2.9297   -1.7954   -0.3754 H   0  0  0  0  0  0
  1  2  1  0  0  0
  1  6  2  0  0  0
  1 25  1  0  0  0
  2  3  2  0  0  0
  2 24  1  0  0  0
  3  4  1  0  0  0
  3 26  1  0  0  0
  4  5  2  0  0  0
  4 12  1  0  0  0
  5  6  1  0  0  0
  5  7  1  0  0  0
  6 27  1  0  0  0
  7  8  1  0  0  0
  7 19  1  0  0  0
  8  9  2  0  0  0
  8 10  1  0  0  0
 10 11  1  0  0  0
 10 28  1  0  0  0
 10 29  1  0  0  0
 11 12  2  0  0  0
 12 13  1  0  0  0
 13 14  1  0  0  0
 13 18  2  0  0  0
 14 15  2  0  0  0
 14 30  1  0  0  0
 15 16  1  0  0  0
 15 31  1  0  0  0
 16 17  2  0  0  0
 16 32  1  0  0  0
 17 18  1  0  0  0
 17 33  1  0  0  0
 18 34  1  0  0  0
 19 20  1  0  0  0
 19 35  1  0  0  0
 19 36  1  0  0  0
 20 21  1  0  0  0
 20 22  1  0  0  0
 20 23  1  0  0  0
M  END
>  <Activity>
7.03621

>  <set>
1

>  <Min_dist>
999.9

>  <Avg_dist>
999.9

$$$$
PINAZEPAM
  Cerius2 12110214493D 1   1.00000                          
 
 35 37  0  0  0  0  0  0  0  0999 V2000
    0.4974   -3.1067   -0.1128 C   0  0  0  0  0  0
   -0.7929   -2.6835    0.1662 C   0  0  0  0  0  0
   -1.0376   -1.3579    0.4443 C   0  0  0  0  0  0
    0.0110   -0.4251    0.4482 C   0  0  0  0  0  0
    1.3064   -0.8534    0.1663 C   0  0  0  0  0  0
    1.5362   -2.2024   -0.1123 C   0  0  0  0  0  0
    2.4014   -0.0029    0.1425 N   0  0  0  0  0  0
    2.6240    0.9830    1.0086 C   0  0  0  0  0  0
    3.6453    1.6307    0.9164 O   0  0  0  0  0  0
    1.6417    1.3151    2.0984 C   0  0  0  0  0  0
    0.3884    1.7566    1.4878 N   0  0  0  0  0  0
   -0.3226    0.9745    0.7557 C   0  0  0  0  0  0
   -1.5710    1.5242    0.1777 C   0  0  0  0  0  0
   -2.1200    0.9560   -0.9716 C   0  0  0  0  0  0
   -3.2832    1.4722   -1.5050 C   0  0  0  0  0  0
   -3.9046    2.5513   -0.9022 C   0  0  0  0  0  0
   -3.3646    3.1196    0.2378 C   0  0  0  0  0  0
   -2.2052    2.6084    0.7840 C   0  0  0  0  0  0
    3.3908   -0.2057   -0.9187 C   0  0  0  0  0  0
    3.0238    0.6028   -2.0928 C   0  0  0  0  0  0
    2.7310    1.2475   -3.0292 C   0  0  0  0  0  0
   -2.1003   -3.8256    0.1641 Cl  0  0  0  0  0  0
    0.6890   -4.1479   -0.3264 H   0  0  0  0  0  0
   -2.0445   -1.0329    0.6609 H   0  0  0  0  0  0
    2.5387   -2.5400   -0.3301 H   0  0  0  0  0  0
    1.4590    0.4297    2.7074 H   0  0  0  0  0  0
    2.0446    2.1127    2.7225 H   0  0  0  0  0  0
   -1.6354    0.1140   -1.4434 H   0  0  0  0  0  0
   -3.7093    1.0330   -2.3949 H   0  0  0  0  0  0
   -4.8147    2.9521   -1.3236 H   0  0  0  0  0  0
   -3.8540    3.9621    0.7036 H   0  0  0  0  0  0
   -1.7848    3.0526    1.6742 H   0  0  0  0  0  0
    4.3746    0.0986   -0.5612 H   0  0  0  0  0  0
    3.4151   -1.2594   -1.1963 H   0  0  0  0  0  0
    2.4692    1.8242   -3.8667 H   0  0  0  0  0  0
  1  2  1  0  0  0
  1  6  2  0  0  0
  1 23  1  0  0  0
  2  3  2  0  0  0
  2 22  1  0  0  0
  3  4  1  0  0  0
  3 24  1  0  0  0
  4  5  2  0  0  0
  4 12  1  0  0  0
  5  6  1  0  0  0
  5  7  1  0  0  0
  6 25  1  0  0  0
  7  8  1  0  0  0
  7 19  1  0  0  0
  8  9  2  0  0  0
  8 10  1  0  0  0
 10 11  1  0  0  0
 10 26  1  0  0  0
 10 27  1  0  0  0
 11 12  2  0  0  0
 12 13  1  0  0  0
 13 14  1  0  0  0
 13 18  2  0  0  0
 14 15  2  0  0  0
 14 28  1  0  0  0
 15 16  1  0  0  0
 15 29  1  0  0  0
 16 17  2  0  0  0
 16 30  1  0  0  0
 17 18  1  0  0  0
 17 31  1  0  0  0
 18 32  1  0  0  0
 19 20  1  0  0  0
 19 33  1  0  0  0
 19 34  1  0  0  0
 20 21  3  0  0  0
 21 35  1  0  0  0
M  END
>  <Activity>
7.03386

>  <set>
1

>  <Min_dist>
999.9

>  <Avg_dist>
999.9

$$$$
RO20-7736
  Cerius2 12110214493D 1   1.00000                          
 
 36 38  0  0  0  0  0  0  0  0999 V2000
    3.0029   -1.3886   -0.0340 C   0  0  0  0  0  0
    1.8559   -2.0825    0.3375 C   0  0  0  0  0  0
    0.6493   -1.4162    0.4333 C   0  0  0  0  0  0
    0.5710   -0.0427    0.1576 C   0  0  0  0  0  0
    1.7228    0.6464   -0.2154 C   0  0  0  0  0  0
    2.9352   -0.0409   -0.3060 C   0  0  0  0  0  0
    1.7368    2.0030   -0.5110 N   0  0  0  0  0  0
    1.0639    2.9387    0.1546 C   0  0  0  0  0  0
    1.1944    4.1010   -0.1665 O   0  0  0  0  0  0
    0.1454    2.5924    1.2946 C   0  0  0  0  0  0
   -0.9503    1.7683    0.7859 N   0  0  0  0  0  0
   -0.7458    0.6026    0.2814 C   0  0  0  0  0  0
   -1.9239   -0.1455   -0.2130 C   0  0  0  0  0  0
   -1.8396   -0.8858   -1.3925 C   0  0  0  0  0  0
   -2.9403   -1.5806   -1.8481 C   0  0  0  0  0  0
   -4.1285   -1.5452   -1.1388 C   0  0  0  0  0  0
   -4.2214   -0.8140    0.0305 C   0  0  0  0  0  0
   -3.1235   -0.1179    0.5026 C   0  0  0  0  0  0
   -3.2144    0.5966    1.6455 F   0  0  0  0  0  0
    2.5568    2.4386   -1.6442 C   0  0  0  0  0  0
    1.9239   -3.4525    0.6131 N   0  0  0  0  0  0
    3.1611   -4.1340    0.5141 O   0  0  0  0  0  0
    3.9479   -1.9067   -0.1048 H   0  0  0  0  0  0
   -0.2401   -1.9566    0.7221 H   0  0  0  0  0  0
    3.8300    0.4911   -0.5936 H   0  0  0  0  0  0
    0.6979    2.0376    2.0530 H   0  0  0  0  0  0
   -0.2572    3.5070    1.7299 H   0  0  0  0  0  0
   -0.9139   -0.9144   -1.9481 H   0  0  0  0  0  0
   -2.8752   -2.1537   -2.7612 H   0  0  0  0  0  0
   -4.9871   -2.0911   -1.5010 H   0  0  0  0  0  0
   -5.1514   -0.7902    0.5791 H   0  0  0  0  0  0
    2.4731    3.5193   -1.7590 H   0  0  0  0  0  0
    3.5980    2.1720   -1.4629 H   0  0  0  0  0  0
    2.2093    1.9485   -2.5537 H   0  0  0  0  0  0
    1.1235   -3.9354    0.8721 H   0  0  0  0  0  0
    2.9902   -5.0580    0.7425 H   0  0  0  0  0  0
  1  2  1  0  0  0
  1  6  2  0  0  0
  1 23  1  0  0  0
  2  3  2  0  0  0
  2 21  1  0  0  0
  3  4  1  0  0  0
  3 24  1  0  0  0
  4  5  2  0  0  0
  4 12  1  0  0  0
  5  6  1  0  0  0
  5  7  1  0  0  0
  6 25  1  0  0  0
  7  8  1  0  0  0
  7 20  1  0  0  0
  8  9  2  0  0  0
  8 10  1  0  0  0
 10 11  1  0  0  0
 10 26  1  0  0  0
 10 27  1  0  0  0
 11 12  2  0  0  0
 12 13  1  0  0  0
 13 14  1  0  0  0
 13 18  2  0  0  0
 14 15  2  0  0  0
 14 28  1  0  0  0
 15 16  1  0  0  0
 15 29  1  0  0  0
 16 17  2  0  0  0
 16 30  1  0  0  0
 17 18  1  0  0  0
 17 31  1  0  0  0
 18 19  1  0  0  0
 20 32  1  0  0  0
 20 33  1  0  0  0
 20 34  1  0  0  0
 21 22  1  0  0  0
 21 35  1  0  0  0
 22 36  1  0  0  0
M  END
>  <Activity>
7.01773

>  <set>
1

>  <Min_dist>
999.9

>  <Avg_dist>
999.9

$$$$
RO13-0699
  Cerius2 12110214493D 1   1.00000                          
 
 33 35  0  0  0  0  0  0  0  0999 V2000
    2.1233   -3.0049    0.1639 C   0  0  0  0  0  0
    0.7755   -3.0062    0.4815 C   0  0  0  0  0  0
    0.0680   -1.8248    0.4877 C   0  0  0  0  0  0
    0.7030   -0.6120    0.1736 C   0  0  0  0  0  0
    2.0592   -0.6151   -0.1462 C   0  0  0  0  0  0
    2.7595   -1.8231   -0.1465 C   0  0  0  0  0  0
    2.7666    0.5311   -0.4740 N   0  0  0  0  0  0
    2.6326    1.7116    0.1262 C   0  0  0  0  0  0
    3.3446    2.6320   -0.2154 O   0  0  0  0  0  0
    1.6207    1.9339    1.2169 C   0  0  0  0  0  0
    0.2798    1.7472    0.6640 N   0  0  0  0  0  0
   -0.1122    0.6120    0.2020 C   0  0  0  0  0  0
   -1.4863    0.5322   -0.3435 C   0  0  0  0  0  0
   -1.7405   -0.2105   -1.4968 C   0  0  0  0  0  0
   -3.0225   -0.2811   -2.0002 C   0  0  0  0  0  0
   -4.0576    0.3831   -1.3648 C   0  0  0  0  0  0
   -3.8150    1.1213   -0.2217 C   0  0  0  0  0  0
   -2.5353    1.1956    0.2976 C   0  0  0  0  0  0
   -2.2984    1.9172    1.4150 F   0  0  0  0  0  0
    3.7383    0.4355   -1.5662 C   0  0  0  0  0  0
   -1.6216   -1.8347    0.8862 Cl  0  0  0  0  0  0
    2.6778   -3.9316    0.1639 H   0  0  0  0  0  0
    0.2790   -3.9341    0.7240 H   0  0  0  0  0  0
    3.8112   -1.8309   -0.3918 H   0  0  0  0  0  0
    1.7871    1.2169    2.0209 H   0  0  0  0  0  0
    1.7180    2.9482    1.6040 H   0  0  0  0  0  0
   -0.9346   -0.7291   -1.9948 H   0  0  0  0  0  0
   -3.2195   -0.8560   -2.8930 H   0  0  0  0  0  0
   -5.0592    0.3245   -1.7644 H   0  0  0  0  0  0
   -4.6269    1.6374    0.2691 H   0  0  0  0  0  0
    4.2164    1.4040   -1.7130 H   0  0  0  0  0  0
    4.4944   -0.3086   -1.3158 H   0  0  0  0  0  0
    3.2272    0.1400   -2.4824 H   0  0  0  0  0  0
  1  2  1  0  0  0
  1  6  2  0  0  0
  1 22  1  0  0  0
  2  3  2  0  0  0
  2 23  1  0  0  0
  3  4  1  0  0  0
  3 21  1  0  0  0
  4  5  2  0  0  0
  4 12  1  0  0  0
  5  6  1  0  0  0
  5  7  1  0  0  0
  6 24  1  0  0  0
  7  8  1  0  0  0
  7 20  1  0  0  0
  8  9  2  0  0  0
  8 10  1  0  0  0
 10 11  1  0  0  0
 10 25  1  0  0  0
 10 26  1  0  0  0
 11 12  2  0  0  0
 12 13  1  0  0  0
 13 14  1  0  0  0
 13 18  2  0  0  0
 14 15  2  0  0  0
 14 27  1  0  0  0
 15 16  1  0  0  0
 15 28  1  0  0  0
 16 17  2  0  0  0
 16 29  1  0  0  0
 17 18  1  0  0  0
 17 30  1  0  0  0
 18 19  1  0  0  0
 20 31  1  0  0  0
 20 32  1  0  0  0
 20 33  1  0  0  0
M  END
>  <Activity>
6.82391

>  <set>
1

>  <Min_dist>
999.9

>  <Avg_dist>
999.9

$$$$
RO17-2221
  Cerius2 12110214493D 1   1.00000                          
 
 38 40  0  0  0  0  0  0  0  0999 V2000
    1.2590   -3.3097    0.3476 C   0  0  0  0  0  0
   -0.1153   -3.3124    0.5212 C   0  0  0  0  0  0
   -0.7958   -2.1236    0.6458 C   0  0  0  0  0  0
   -0.1090   -0.9006    0.5987 C   0  0  0  0  0  0
    1.2732   -0.9007    0.4228 C   0  0  0  0  0  0
    1.9471   -2.1176    0.2991 C   0  0  0  0  0  0
    2.0326    0.2571    0.3589 N   0  0  0  0  0  0
    1.8572    1.3311    1.1255 C   0  0  0  0  0  0
    2.6182    2.2686    1.0118 O   0  0  0  0  0  0
    0.7393    1.4124    2.1289 C   0  0  0  0  0  0
   -0.5384    1.3639    1.4192 N   0  0  0  0  0  0
   -0.8999    0.3317    0.7412 C   0  0  0  0  0  0
   -2.2108    0.3886    0.0532 C   0  0  0  0  0  0
   -2.4565   -0.4238   -1.0535 C   0  0  0  0  0  0
   -3.6795   -0.3667   -1.6898 C   0  0  0  0  0  0
   -4.6609    0.4943   -1.2321 C   0  0  0  0  0  0
   -4.4230    1.3030   -0.1351 C   0  0  0  0  0  0
   -3.2060    1.2507    0.5131 C   0  0  0  0  0  0
    3.1131    0.3022   -0.6293 C   0  0  0  0  0  0
    2.5758    0.8634   -1.9474 C   0  0  0  0  0  0
    3.6593    0.9086   -2.9383 N   0  0  0  0  0  0
    1.7924   -4.2442    0.2545 H   0  0  0  0  0  0
   -0.6527   -4.2484    0.5585 H   0  0  0  0  0  0
   -1.8673   -2.1314    0.7805 H   0  0  0  0  0  0
    3.0187   -2.1239    0.1644 H   0  0  0  0  0  0
    0.8059    0.5711    2.8186 H   0  0  0  0  0  0
    0.8137    2.3479    2.6832 H   0  0  0  0  0  0
   -1.6909   -1.0960   -1.4119 H   0  0  0  0  0  0
   -3.8708   -0.9950   -2.5471 H   0  0  0  0  0  0
   -5.6166    0.5355   -1.7335 H   0  0  0  0  0  0
   -5.1928    1.9736    0.2171 H   0  0  0  0  0  0
   -3.0214    1.8824    1.3693 H   0  0  0  0  0  0
    3.9151    0.9425   -0.2619 H   0  0  0  0  0  0
    3.4980   -0.7043   -0.7930 H   0  0  0  0  0  0
    1.7738    0.2230   -2.3148 H   0  0  0  0  0  0
    2.1909    1.8699   -1.7837 H   0  0  0  0  0  0
    3.2610    1.2829   -3.7865 H   0  0  0  0  0  0
    4.3271    1.5884   -2.6069 H   0  0  0  0  0  0
  1  2  1  0  0  0
  1  6  2  0  0  0
  1 22  1  0  0  0
  2  3  2  0  0  0
  2 23  1  0  0  0
  3  4  1  0  0  0
  3 24  1  0  0  0
  4  5  2  0  0  0
  4 12  1  0  0  0
  5  6  1  0  0  0
  5  7  1  0  0  0
  6 25  1  0  0  0
  7  8  1  0  0  0
  7 19  1  0  0  0
  8  9  2  0  0  0
  8 10  1  0  0  0
 10 11  1  0  0  0
 10 26  1  0  0  0
 10 27  1  0  0  0
 11 12  2  0  0  0
 12 13  1  0  0  0
 13 14  1  0  0  0
 13 18  2  0  0  0
 14 15  2  0  0  0
 14 28  1  0  0  0
 15 16  1  0  0  0
 15 29  1  0  0  0
 16 17  2  0  0  0
 16 30  1  0  0  0
 17 18  1  0  0  0
 17 31  1  0  0  0
 18 32  1  0  0  0
 19 20  1  0  0  0
 19 33  1  0  0  0
 19 34  1  0  0  0
 20 21  1  0  0  0
 20 35  1  0  0  0
 20 36  1  0  0  0
 21 37  1  0  0  0
 21 38  1  0  0  0
M  END
>  <Activity>
6.58503

>  <set>
1

>  <Min_dist>
999.9

>  <Avg_dist>
999.9

$$$$
RO05-3546
  Cerius2 12110214493D 1   1.00000                          
 
 30 32  0  0  0  0  0  0  0  0999 V2000
    1.9671   -2.9872   -0.2993 C   0  0  0  0  0  0
    0.6676   -2.9319    0.1756 C   0  0  0  0  0  0
    0.0506   -1.7139    0.3544 C   0  0  0  0  0  0
    0.7295   -0.5206    0.0575 C   0  0  0  0  0  0
    2.0367   -0.5806   -0.4213 C   0  0  0  0  0  0
    2.6456   -1.8252   -0.5945 C   0  0  0  0  0  0
    2.7811    0.5430   -0.7452 N   0  0  0  0  0  0
    2.7995    1.6765   -0.0475 C   0  0  0  0  0  0
    3.5303    2.5768   -0.4027 O   0  0  0  0  0  0
    1.9371    1.8699    1.1698 C   0  0  0  0  0  0
    0.5320    1.8113    0.7688 N   0  0  0  0  0  0
    0.0112    0.7445    0.2737 C   0  0  0  0  0  0
   -1.4195    0.7940   -0.1079 C   0  0  0  0  0  0
   -2.3167    1.5589    0.6369 C   0  0  0  0  0  0
   -3.6479    1.6014    0.2762 C   0  0  0  0  0  0
   -4.0931    0.8871   -0.8218 C   0  0  0  0  0  0
   -3.2079    0.1262   -1.5643 C   0  0  0  0  0  0
   -1.8733    0.0803   -1.2169 C   0  0  0  0  0  0
   -1.5787   -1.6528    0.9505 Cl  0  0  0  0  0  0
    2.4514   -3.9431   -0.4343 H   0  0  0  0  0  0
    0.1376   -3.8444    0.4056 H   0  0  0  0  0  0
    3.6592   -1.8773   -0.9636 H   0  0  0  0  0  0
    3.3319    0.4998   -1.5424 H   0  0  0  0  0  0
    2.1437    1.0806    1.8927 H   0  0  0  0  0  0
    2.1490    2.8412    1.6168 H   0  0  0  0  0  0
   -1.9704    2.1166    1.4945 H   0  0  0  0  0  0
   -4.3438    2.1931    0.8525 H   0  0  0  0  0  0
   -5.1359    0.9235   -1.1002 H   0  0  0  0  0  0
   -3.5614   -0.4295   -2.4202 H   0  0  0  0  0  0
   -1.1832   -0.5140   -1.7973 H   0  0  0  0  0  0
  1  2  1  0  0  0
  1  6  2  0  0  0
  1 20  1  0  0  0
  2  3  2  0  0  0
  2 21  1  0  0  0
  3  4  1  0  0  0
  3 19  1  0  0  0
  4  5  2  0  0  0
  4 12  1  0  0  0
  5  6  1  0  0  0
  5  7  1  0  0  0
  6 22  1  0  0  0
  7  8  1  0  0  0
  7 23  1  0  0  0
  8  9  2  0  0  0
  8 10  1  0  0  0
 10 11  1  0  0  0
 10 24  1  0  0  0
 10 25  1  0  0  0
 11 12  2  0  0  0
 12 13  1  0  0  0
 13 14  1  0  0  0
 13 18  2  0  0  0
 14 15  2  0  0  0
 14 26  1  0  0  0
 15 16  1  0  0  0
 15 27  1  0  0  0
 16 17  2  0  0  0
 16 28  1  0  0  0
 17 18  1  0  0  0
 17 29  1  0  0  0
 18 30  1  0  0  0
M  END
>  <Activity>
6.49485

>  <set>
1

>  <Min_dist>
999.9

>  <Avg_dist>
999.9

$$$$
RO05-2921
  Cerius2 12110214493D 1   1.00000                          
 
 30 32  0  0  0  0  0  0  0  0999 V2000
    2.1702   -2.9540    0.1282 C   0  0  0  0  0  0
    0.8973   -3.0149    0.6712 C   0  0  0  0  0  0
    0.1218   -1.8808    0.7369 C   0  0  0  0  0  0
    0.6090   -0.6552    0.2570 C   0  0  0  0  0  0
    1.8892   -0.5970   -0.2898 C   0  0  0  0  0  0
    2.6623   -1.7586   -0.3471 C   0  0  0  0  0  0
    2.4502    0.5667   -0.7925 N   0  0  0  0  0  0
    2.3366    1.7722   -0.2397 C   0  0  0  0  0  0
    2.9152    2.7106   -0.7452 O   0  0  0  0  0  0
    1.5090    2.0010    0.9955 C   0  0  0  0  0  0
    0.1106    1.7004    0.6909 N   0  0  0  0  0  0
   -0.2735    0.5174    0.3612 C   0  0  0  0  0  0
   -1.7118    0.3217    0.0649 C   0  0  0  0  0  0
   -2.6607    1.1971    0.5923 C   0  0  0  0  0  0
   -3.9988    1.0100    0.3124 C   0  0  0  0  0  0
   -4.3998   -0.0435   -0.4898 C   0  0  0  0  0  0
   -3.4632   -0.9155   -1.0155 C   0  0  0  0  0  0
   -2.1218   -0.7353   -0.7474 C   0  0  0  0  0  0
    2.7795   -3.8445    0.0815 H   0  0  0  0  0  0
    0.5134   -3.9534    1.0429 H   0  0  0  0  0  0
   -0.8701   -1.9339    1.1608 H   0  0  0  0  0  0
    3.6560   -1.7192   -0.7683 H   0  0  0  0  0  0
    2.9661    0.4969   -1.6109 H   0  0  0  0  0  0
    1.8573    1.3468    1.7947 H   0  0  0  0  0  0
    1.5990    3.0414    1.3078 H   0  0  0  0  0  0
   -2.3489    2.0197    1.2190 H   0  0  0  0  0  0
   -4.7346    1.6870    0.7206 H   0  0  0  0  0  0
   -5.4483   -0.1859   -0.7061 H   0  0  0  0  0  0
   -3.7824   -1.7364   -1.6405 H   0  0  0  0  0  0
   -1.3915   -1.4167   -1.1584 H   0  0  0  0  0  0
  1  2  1  0  0  0
  1  6  2  0  0  0
  1 19  1  0  0  0
  2  3  2  0  0  0
  2 20  1  0  0  0
  3  4  1  0  0  0
  3 21  1  0  0  0
  4  5  2  0  0  0
  4 12  1  0  0  0
  5  6  1  0  0  0
  5  7  1  0  0  0
  6 22  1  0  0  0
  7  8  1  0  0  0
  7 23  1  0  0  0
  8  9  2  0  0  0
  8 10  1  0  0  0
 10 11  1  0  0  0
 10 24  1  0  0  0
 10 25  1  0  0  0
 11 12  2  0  0  0
 12 13  1  0  0  0
 13 14  1  0  0  0
 13 18  2  0  0  0
 14 15  2  0  0  0
 14 26  1  0  0  0
 15 16  1  0  0  0
 15 27  1  0  0  0
 16 17  2  0  0  0
 16 28  1  0  0  0
 17 18  1  0  0  0
 17 29  1  0  0  0
 18 30  1  0  0  0
M  END
>  <Activity>
6.45593

>  <set>
1

>  <Min_dist>
999.9

>  <Avg_dist>
999.9

$$$$
RO05-4528
  Cerius2 12110214493D 1   1.00000                          
 
 34 36  0  0  0  0  0  0  0  0999 V2000
    1.6643   -2.7676   -0.1978 C   0  0  0  0  0  0
    0.3371   -2.7502    0.2462 C   0  0  0  0  0  0
   -0.3038   -1.5339    0.4553 C   0  0  0  0  0  0
    0.3699   -0.3291    0.2239 C   0  0  0  0  0  0
    1.6927   -0.3566   -0.2203 C   0  0  0  0  0  0
    2.3268   -1.5868   -0.4253 C   0  0  0  0  0  0
    2.4296    0.7851   -0.4788 N   0  0  0  0  0  0
    2.4156    1.8911    0.2611 C   0  0  0  0  0  0
    3.1456    2.8117   -0.0395 O   0  0  0  0  0  0
    1.5179    2.0298    1.4603 C   0  0  0  0  0  0
    0.1253    1.9722    1.0175 N   0  0  0  0  0  0
   -0.3687    0.9204    0.4683 C   0  0  0  0  0  0
   -1.7885    0.9696    0.0483 C   0  0  0  0  0  0
   -2.6670    1.8678    0.6537 C   0  0  0  0  0  0
   -3.9883    1.9089    0.2582 C   0  0  0  0  0  0
   -4.4423    1.0612   -0.7364 C   0  0  0  0  0  0
   -3.5757    0.1677   -1.3403 C   0  0  0  0  0  0
   -2.2507    0.1218   -0.9581 C   0  0  0  0  0  0
    3.2946    0.7759   -1.6611 C   0  0  0  0  0  0
   -0.3581   -3.9795    0.4835 C   0  0  0  0  0  0
   -0.9095   -4.9547    0.6718 N   0  0  0  0  0  0
    2.1685   -3.7094   -0.3569 H   0  0  0  0  0  0
   -1.3279   -1.5189    0.7980 H   0  0  0  0  0  0
    3.3511   -1.6078   -0.7669 H   0  0  0  0  0  0
    1.7130    1.2158    2.1585 H   0  0  0  0  0  0
    1.7064    2.9857    1.9490 H   0  0  0  0  0  0
   -2.3139    2.5296    1.4307 H   0  0  0  0  0  0
   -4.6696    2.6041    0.7263 H   0  0  0  0  0  0
   -5.4774    1.0968   -1.0423 H   0  0  0  0  0  0
   -3.9360   -0.4919   -2.1160 H   0  0  0  0  0  0
   -1.5751   -0.5758   -1.4306 H   0  0  0  0  0  0
    3.8112    1.7324   -1.7408 H   0  0  0  0  0  0
    4.0270   -0.0261   -1.5692 H   0  0  0  0  0  0
    2.6892    0.6146   -2.5530 H   0  0  0  0  0  0
  1  2  1  0  0  0
  1  6  2  0  0  0
  1 22  1  0  0  0
  2  3  2  0  0  0
  2 20  1  0  0  0
  3  4  1  0  0  0
  3 23  1  0  0  0
  4  5  2  0  0  0
  4 12  1  0  0  0
  5  6  1  0  0  0
  5  7  1  0  0  0
  6 24  1  0  0  0
  7  8  1  0  0  0
  7 19  1  0  0  0
  8  9  2  0  0  0
  8 10  1  0  0  0
 10 11  1  0  0  0
 10 25  1  0  0  0
 10 26  1  0  0  0
 11 12  2  0  0  0
 12 13  1  0  0  0
 13 14  1  0  0  0
 13 18  2  0  0  0
 14 15  2  0  0  0
 14 27  1  0  0  0
 15 16  1  0  0  0
 15 28  1  0  0  0
 16 17  2  0  0  0
 16 29  1  0  0  0
 17 18  1  0  0  0
 17 30  1  0  0  0
 18 31  1  0  0  0
 19 32  1  0  0  0
 19 33  1  0  0  0
 19 34  1  0  0  0
 20 21  3  0  0  0
M  END
>  <Activity>
6.42022

>  <set>
1

>  <Min_dist>
999.9

>  <Avg_dist>
999.9

$$$$
RO05-3072
  Cerius2 12110214493D 1   1.00000                          
 
 32 34  0  0  0  0  0  0  0  0999 V2000
    2.2941   -2.5726   -0.1890 C   0  0  0  0  0  0
    1.0259   -2.7529    0.3536 C   0  0  0  0  0  0
    0.1889   -1.6668    0.5226 C   0  0  0  0  0  0
    0.6080   -0.3806    0.1499 C   0  0  0  0  0  0
    1.8788   -0.2066   -0.3940 C   0  0  0  0  0  0
    2.7136   -1.3142   -0.5572 C   0  0  0  0  0  0
    2.3734    1.0275   -0.7946 N   0  0  0  0  0  0
    2.1997    2.1719   -0.1376 C   0  0  0  0  0  0
    2.7233    3.1809   -0.5603 O   0  0  0  0  0  0
    1.3704    2.2465    1.1154 C   0  0  0  0  0  0
   -0.0119    1.8982    0.7894 N   0  0  0  0  0  0
   -0.3342    0.7300    0.3596 C   0  0  0  0  0  0
   -1.7621    0.4838    0.0508 C   0  0  0  0  0  0
   -2.7527    1.2573    0.6555 C   0  0  0  0  0  0
   -4.0808    1.0235    0.3635 C   0  0  0  0  0  0
   -4.4307    0.0240   -0.5267 C   0  0  0  0  0  0
   -3.4527   -0.7466   -1.1297 C   0  0  0  0  0  0
   -2.1209   -0.5186   -0.8501 C   0  0  0  0  0  0
    0.5988   -4.0318    0.7271 N   0  0  0  0  0  0
    2.9516   -3.4197   -0.3174 H   0  0  0  0  0  0
   -0.7952   -1.8088    0.9443 H   0  0  0  0  0  0
    3.6999   -1.1819   -0.9768 H   0  0  0  0  0  0
    2.8859    1.0579   -1.6176 H   0  0  0  0  0  0
    1.7595    1.5447    1.8531 H   0  0  0  0  0  0
    1.4067    3.2590    1.5175 H   0  0  0  0  0  0
   -2.4808    2.0373    1.3512 H   0  0  0  0  0  0
   -4.8488    1.6218    0.8311 H   0  0  0  0  0  0
   -5.4717   -0.1557   -0.7516 H   0  0  0  0  0  0
   -3.7320   -1.5254   -1.8238 H   0  0  0  0  0  0
   -1.3582   -1.1208   -1.3215 H   0  0  0  0  0  0
    1.1870   -4.7937    0.6078 H   0  0  0  0  0  0
   -0.2857   -4.1565    1.1054 H   0  0  0  0  0  0
  1  2  1  0  0  0
  1  6  2  0  0  0
  1 20  1  0  0  0
  2  3  2  0  0  0
  2 19  1  0  0  0
  3  4  1  0  0  0
  3 21  1  0  0  0
  4  5  2  0  0  0
  4 12  1  0  0  0
  5  6  1  0  0  0
  5  7  1  0  0  0
  6 22  1  0  0  0
  7  8  1  0  0  0
  7 23  1  0  0  0
  8  9  2  0  0  0
  8 10  1  0  0  0
 10 11  1  0  0  0
 10 24  1  0  0  0
 10 25  1  0  0  0
 11 12  2  0  0  0
 12 13  1  0  0  0
 13 14  1  0  0  0
 13 18  2  0  0  0
 14 15  2  0  0  0
 14 26  1  0  0  0
 15 16  1  0  0  0
 15 27  1  0  0  0
 16 17  2  0  0  0
 16 28  1  0  0  0
 17 18  1  0  0  0
 17 29  1  0  0  0
 18 30  1  0  0  0
 19 31  1  0  0  0
 19 32  1  0  0  0
M  END
>  <Activity>
6.41341

>  <set>
1

>  <Min_dist>
999.9

>  <Avg_dist>
999.9

$$$$
RO05-4318
  Cerius2 12110214493D 1   1.00000                          
 
 35 37  0  0  0  0  0  0  0  0999 V2000
    1.8977   -2.7985   -0.0282 C   0  0  0  0  0  0
    0.5847   -2.8853    0.4232 C   0  0  0  0  0  0
   -0.1683   -1.7369    0.5746 C   0  0  0  0  0  0
    0.3813   -0.4810    0.2755 C   0  0  0  0  0  0
    1.6965   -0.4006   -0.1771 C   0  0  0  0  0  0
    2.4451   -1.5704   -0.3237 C   0  0  0  0  0  0
    2.3187    0.7977   -0.5008 N   0  0  0  0  0  0
    2.1965    1.9330    0.1829 C   0  0  0  0  0  0
    2.8303    2.9055   -0.1688 O   0  0  0  0  0  0
    1.2925    2.0417    1.3805 C   0  0  0  0  0  0
   -0.0885    1.8228    0.9522 N   0  0  0  0  0  0
   -0.4770    0.6996    0.4616 C   0  0  0  0  0  0
   -1.8959    0.5858    0.0510 C   0  0  0  0  0  0
   -2.8576    1.4232    0.6159 C   0  0  0  0  0  0
   -4.1775    1.3128    0.2291 C   0  0  0  0  0  0
   -4.5478    0.3734   -0.7166 C   0  0  0  0  0  0
   -3.5985   -0.4601   -1.2806 C   0  0  0  0  0  0
   -2.2746   -0.3553   -0.9062 C   0  0  0  0  0  0
    3.1772    0.8135   -1.6878 C   0  0  0  0  0  0
    0.0277   -4.1333    0.7227 N   0  0  0  0  0  0
    2.4894   -3.6947   -0.1426 H   0  0  0  0  0  0
   -1.1873   -1.8064    0.9254 H   0  0  0  0  0  0
    3.4654   -1.5109   -0.6726 H   0  0  0  0  0  0
    1.5702    1.2878    2.1171 H   0  0  0  0  0  0
    1.3856    3.0351    1.8192 H   0  0  0  0  0  0
   -2.5698    2.1564    1.3548 H   0  0  0  0  0  0
   -4.9230    1.9607    0.6658 H   0  0  0  0  0  0
   -5.5822    0.2903   -1.0157 H   0  0  0  0  0  0
   -3.8936   -1.1915   -2.0184 H   0  0  0  0  0  0
   -1.5344   -1.0066   -1.3471 H   0  0  0  0  0  0
    3.5963    1.8110   -1.8198 H   0  0  0  0  0  0
    3.9858    0.0936   -1.5610 H   0  0  0  0  0  0
    2.5884    0.5477   -2.5657 H   0  0  0  0  0  0
    0.5571   -4.9390    0.6157 H   0  0  0  0  0  0
   -0.8880   -4.1928    1.0374 H   0  0  0  0  0  0
  1  2  1  0  0  0
  1  6  2  0  0  0
  1 21  1  0  0  0
  2  3  2  0  0  0
  2 20  1  0  0  0
  3  4  1  0  0  0
  3 22  1  0  0  0
  4  5  2  0  0  0
  4 12  1  0  0  0
  5  6  1  0  0  0
  5  7  1  0  0  0
  6 23  1  0  0  0
  7  8  1  0  0  0
  7 19  1  0  0  0
  8  9  2  0  0  0
  8 10  1  0  0  0
 10 11  1  0  0  0
 10 24  1  0  0  0
 10 25  1  0  0  0
 11 12  2  0  0  0
 12 13  1  0  0  0
 13 14  1  0  0  0
 13 18  2  0  0  0
 14 15  2  0  0  0
 14 26  1  0  0  0
 15 16  1  0  0  0
 15 27  1  0  0  0
 16 17  2  0  0  0
 16 28  1  0  0  0
 17 18  1  0  0  0
 17 29  1  0  0  0
 18 30  1  0  0  0
 19 31  1  0  0  0
 19 32  1  0  0  0
 19 33  1  0  0  0
 20 34  1  0  0  0
 20 35  1  0  0  0
M  END
>  <Activity>
6.33724

>  <set>
1

>  <Min_dist>
999.9

>  <Avg_dist>
999.9

$$$$
DESMETHYLCLOBAZAM
  Cerius2 12110214493D 1   1.00000                          
 
 31 33  0  0  0  0  0  0  0  0999 V2000
    0.5622    1.7667    0.4895 C   0  0  0  0  0  0
    0.3643    0.4984   -0.0326 C   0  0  0  0  0  0
    1.4695   -0.3097   -0.3076 C   0  0  0  0  0  0
    2.7503    0.1414   -0.0652 C   0  0  0  0  0  0
    2.9473    1.4081    0.4557 C   0  0  0  0  0  0
    1.8631    2.2135    0.7306 C   0  0  0  0  0  0
    4.1119   -0.8781   -0.4122 Cl  0  0  0  0  0  0
   -0.8911   -0.0381   -0.3069 N   0  0  0  0  0  0
   -1.9099    0.6164   -0.8589 C   0  0  0  0  0  0
   -2.9450    0.0255   -1.0840 O   0  0  0  0  0  0
   -1.8017    2.0781   -1.2089 C   0  0  0  0  0  0
   -1.5607    2.8515    0.0617 C   0  0  0  0  0  0
   -2.3744    3.6767    0.4196 O   0  0  0  0  0  0
   -0.4718    2.6443    0.8027 N   0  0  0  0  0  0
   -1.0992   -1.3820    0.0262 C   0  0  0  0  0  0
   -1.4440   -1.7315    1.3253 C   0  0  0  0  0  0
   -1.6486   -3.0580    1.6507 C   0  0  0  0  0  0
   -1.5100   -4.0378    0.6846 C   0  0  0  0  0  0
   -1.1663   -3.6930   -0.6097 C   0  0  0  0  0  0
   -0.9669   -2.3677   -0.9431 C   0  0  0  0  0  0
    1.3198   -1.2990   -0.7142 H   0  0  0  0  0  0
    3.9486    1.7648    0.6468 H   0  0  0  0  0  0
    2.0215    3.2017    1.1365 H   0  0  0  0  0  0
   -0.9692    2.2308   -1.8957 H   0  0  0  0  0  0
   -2.7286    2.4142   -1.6735 H   0  0  0  0  0  0
   -0.3927    3.1516    1.6256 H   0  0  0  0  0  0
   -1.5516   -0.9669    2.0803 H   0  0  0  0  0  0
   -1.9167   -3.3305    2.6607 H   0  0  0  0  0  0
   -1.6702   -5.0744    0.9417 H   0  0  0  0  0  0
   -1.0585   -4.4606   -1.3618 H   0  0  0  0  0  0
   -0.6985   -2.0991   -1.9541 H   0  0  0  0  0  0
  1  2  1  0  0  0
  1  6  2  0  0  0
  1 14  1  0  0  0
  2  3  2  0  0  0
  2  8  1  0  0  0
  3  4  1  0  0  0
  3 21  1  0  0  0
  4  5  2  0  0  0
  4  7  1  0  0  0
  5  6  1  0  0  0
  5 22  1  0  0  0
  6 23  1  0  0  0
  8  9  1  0  0  0
  8 15  1  0  0  0
  9 10  2  0  0  0
  9 11  1  0  0  0
 11 12  1  0  0  0
 11 24  1  0  0  0
 11 25  1  0  0  0
 12 13  2  0  0  0
 12 14  1  0  0  0
 14 26  1  0  0  0
 15 16  1  0  0  0
 15 20  2  0  0  0
 16 17  2  0  0  0
 16 27  1  0  0  0
 17 18  1  0  0  0
 17 28  1  0  0  0
 18 19  2  0  0  0
 18 29  1  0  0  0
 19 20  1  0  0  0
 19 30  1  0  0  0
 20 31  1  0  0  0
M  END
>  <Activity>
6.67778

>  <set>
1

>  <Min_dist>
999.9

>  <Avg_dist>
999.9

$$$$
RO11-6679
  Cerius2 12110214493D 1   1.00000                          
 
 40 43  0  0  0  0  0  0  0  0999 V2000
    1.1560    1.1047   -0.0483 C   0  0  0  0  0  0
   -0.0347    0.4254    0.2193 C   0  0  0  0  0  0
   -1.1984    1.1702    0.4627 C   0  0  0  0  0  0
   -1.1715    2.5452    0.4160 C   0  0  0  0  0  0
    0.0077    3.2102    0.1271 C   0  0  0  0  0  0
    1.1643    2.4941   -0.1037 C   0  0  0  0  0  0
   -2.4083    3.3160    0.6752 N   0  3  0  0  0  0
   -2.3871    4.5331    0.6345 O   0  0  0  0  0  0
   -3.4472    2.7332    0.9292 O   0  5  0  0  0  0
   -0.1381   -1.0378    0.2286 C   0  0  0  0  0  0
    0.6926   -1.8860    0.7265 N   0  0  0  0  0  0
    1.9158   -1.4600    1.4158 C   0  0  0  0  0  0
    2.7569   -0.6934    0.4271 C   0  0  0  0  0  0
    2.3624    0.4270   -0.2310 N   0  0  0  0  0  0
    3.3863    0.7564   -1.0619 C   0  0  0  0  0  0
    4.3404   -0.1127   -0.8520 N   0  0  0  0  0  0
    3.9686   -0.9672    0.0376 N   0  0  0  0  0  0
    3.4160    1.9037   -2.0386 C   0  0  0  0  0  0
    2.6857   -2.6860    1.9107 C   0  0  0  0  0  0
   -1.3446   -1.6085   -0.4120 C   0  0  0  0  0  0
   -1.8367   -1.0575   -1.5956 C   0  0  0  0  0  0
   -2.9611   -1.5934   -2.1877 C   0  0  0  0  0  0
   -3.6029   -2.6759   -1.6111 C   0  0  0  0  0  0
   -3.1224   -3.2283   -0.4387 C   0  0  0  0  0  0
   -1.9922   -2.7049    0.1627 C   0  0  0  0  0  0
   -1.5227   -3.2448    1.3086 F   0  0  0  0  0  0
   -2.1232    0.6601    0.6882 H   0  0  0  0  0  0
    0.0224    4.2892    0.0820 H   0  0  0  0  0  0
    2.0824    3.0163   -0.3289 H   0  0  0  0  0  0
    1.6601   -0.8183    2.2591 H   0  0  0  0  0  0
    3.8176    2.7895   -1.5465 H   0  0  0  0  0  0
    4.0476    1.6419   -2.8875 H   0  0  0  0  0  0
    2.4043    2.1095   -2.3883 H   0  0  0  0  0  0
    2.0614   -3.2527    2.6016 H   0  0  0  0  0  0
    2.9514   -3.3154    1.0614 H   0  0  0  0  0  0
    3.5929   -2.3635    2.4217 H   0  0  0  0  0  0
   -1.3383   -0.2124   -2.0471 H   0  0  0  0  0  0
   -3.3422   -1.1670   -3.1039 H   0  0  0  0  0  0
   -4.4833   -3.0905   -2.0793 H   0  0  0  0  0  0
   -3.6277   -4.0728    0.0061 H   0  0  0  0  0  0
  1  2  1  0  0  0
  1  6  2  0  0  0
  1 14  1  0  0  0
  2  3  2  0  0  0
  2 10  1  0  0  0
  3  4  1  0  0  0
  3 27  1  0  0  0
  4  5  2  0  0  0
  4  7  1  0  0  0
  5  6  1  0  0  0
  5 28  1  0  0  0
  6 29  1  0  0  0
  7  8  2  0  0  0
  7  9  1  0  0  0
 10 11  2  0  0  0
 10 20  1  0  0  0
 11 12  1  0  0  0
 12 13  1  0  0  0
 12 19  1  0  0  0
 12 30  1  0  0  0
 13 14  1  0  0  0
 13 17  2  0  0  0
 14 15  1  0  0  0
 15 16  2  0  0  0
 15 18  1  0  0  0
 16 17  1  0  0  0
 18 31  1  0  0  0
 18 32  1  0  0  0
 18 33  1  0  0  0
 19 34  1  0  0  0
 19 35  1  0  0  0
 19 36  1  0  0  0
 20 21  1  0  0  0
 20 25  2  0  0  0
 21 22  2  0  0  0
 21 37  1  0  0  0
 22 23  1  0  0  0
 22 38  1  0  0  0
 23 24  2  0  0  0
 23 39  1  0  0  0
 24 25  1  0  0  0
 24 40  1  0  0  0
 25 26  1  0  0  0
M  CHG  2   7   1   9  -1
M  END
>  <Activity>
8.39794

>  <set>
1

>  <Min_dist>
999.9

>  <Avg_dist>
999.9

$$$$
TRIAZOLAM
  Cerius2 12110214493D 1   1.00000                          
 
 35 38  0  0  0  0  0  0  0  0999 V2000
    1.7402    0.3376    0.0733 C   0  0  0  0  0  0
    0.3615    0.4679    0.2554 C   0  0  0  0  0  0
   -0.1742    1.7457    0.4750 C   0  0  0  0  0  0
    0.6426    2.8544    0.4881 C   0  0  0  0  0  0
    2.0060    2.7184    0.2829 C   0  0  0  0  0  0
    2.5505    1.4675    0.0773 C   0  0  0  0  0  0
   -0.0384    4.4275    0.7619 Cl  0  0  0  0  0  0
   -0.5655   -0.6674    0.1976 C   0  0  0  0  0  0
   -0.4079   -1.8430    0.6976 N   0  0  0  0  0  0
    0.7910   -2.2063    1.4614 C   0  0  0  0  0  0
    1.9803   -2.0585    0.5469 C   0  0  0  0  0  0
    2.3452   -0.9111   -0.0809 N   0  0  0  0  0  0
    3.4220   -1.2268   -0.8477 C   0  0  0  0  0  0
    3.6864   -2.4888   -0.6301 N   0  0  0  0  0  0
    2.8352   -2.9786    0.2039 N   0  0  0  0  0  0
    4.1680   -0.2999   -1.7725 C   0  0  0  0  0  0
   -1.8376   -0.4324   -0.5232 C   0  0  0  0  0  0
   -1.8468    0.3104   -1.7041 C   0  0  0  0  0  0
   -3.0348    0.5260   -2.3710 C   0  0  0  0  0  0
   -4.2168    0.0078   -1.8713 C   0  0  0  0  0  0
   -4.2158   -0.7290   -0.7013 C   0  0  0  0  0  0
   -3.0318   -0.9579   -0.0271 C   0  0  0  0  0  0
   -3.0315   -1.8837    1.4414 Cl  0  0  0  0  0  0
   -1.2361    1.8610    0.6348 H   0  0  0  0  0  0
    2.6422    3.5911    0.2839 H   0  0  0  0  0  0
    3.6137    1.3653   -0.0821 H   0  0  0  0  0  0
    0.8988   -1.5411    2.3181 H   0  0  0  0  0  0
    0.7131   -3.2388    1.8021 H   0  0  0  0  0  0
    4.9742    0.1883   -1.2249 H   0  0  0  0  0  0
    4.5858   -0.8720   -2.6009 H   0  0  0  0  0  0
    3.4836    0.4545   -2.1606 H   0  0  0  0  0  0
   -0.9254    0.7161   -2.0951 H   0  0  0  0  0  0
   -3.0426    1.1009   -3.2852 H   0  0  0  0  0  0
   -5.1442    0.1800   -2.3974 H   0  0  0  0  0  0
   -5.1416   -1.1301   -0.3161 H   0  0  0  0  0  0
  1  2  1  0  0  0
  1  6  2  0  0  0
  1 12  1  0  0  0
  2  3  2  0  0  0
  2  8  1  0  0  0
  3  4  1  0  0  0
  3 24  1  0  0  0
  4  5  2  0  0  0
  4  7  1  0  0  0
  5  6  1  0  0  0
  5 25  1  0  0  0
  6 26  1  0  0  0
  8  9  2  0  0  0
  8 17  1  0  0  0
  9 10  1  0  0  0
 10 11  1  0  0  0
 10 27  1  0  0  0
 10 28  1  0  0  0
 11 12  1  0  0  0
 11 15  2  0  0  0
 12 13  1  0  0  0
 13 14  2  0  0  0
 13 16  1  0  0  0
 14 15  1  0  0  0
 16 29  1  0  0  0
 16 30  1  0  0  0
 16 31  1  0  0  0
 17 18  1  0  0  0
 17 22  2  0  0  0
 18 19  2  0  0  0
 18 32  1  0  0  0
 19 20  1  0  0  0
 19 33  1  0  0  0
 20 21  2  0  0  0
 20 34  1  0  0  0
 21 22  1  0  0  0
 21 35  1  0  0  0
 22 23  1  0  0  0
M  END
>  <Activity>
8.39794

>  <set>
1

>  <Min_dist>
999.9

>  <Avg_dist>
999.9

$$$$
U-35005
  Cerius2 12110214493D 1   1.00000                          
 
 35 38  0  0  0  0  0  0  0  0999 V2000
    1.7398    0.7481    0.3793 C   0  0  0  0  0  0
    0.3619    0.8303    0.5928 C   0  0  0  0  0  0
   -0.1663    2.0010    1.1575 C   0  0  0  0  0  0
    0.6560    3.0579    1.4737 C   0  0  0  0  0  0
    2.0176    2.9773    1.2369 C   0  0  0  0  0  0
    2.5560    1.8290    0.6935 C   0  0  0  0  0  0
   -0.5714   -0.2400    0.2257 C   0  0  0  0  0  0
   -0.4202   -1.5087    0.3816 N   0  0  0  0  0  0
    0.7769   -2.0749    1.0134 C   0  0  0  0  0  0
    1.9668   -1.6867    0.1730 C   0  0  0  0  0  0
    2.3378   -0.4125   -0.1145 N   0  0  0  0  0  0
    3.4126   -0.5099   -0.9407 C   0  0  0  0  0  0
    3.6701   -1.7843   -1.0802 N   0  0  0  0  0  0
    2.8165   -2.4808   -0.4122 N   0  0  0  0  0  0
    4.1635    0.6322   -1.5753 C   0  0  0  0  0  0
   -1.8425    0.1915   -0.3998 C   0  0  0  0  0  0
   -1.8480    1.2313   -1.3299 C   0  0  0  0  0  0
   -3.0350    1.6288   -1.9091 C   0  0  0  0  0  0
   -4.2197    0.9988   -1.5699 C   0  0  0  0  0  0
   -4.2223   -0.0325   -0.6489 C   0  0  0  0  0  0
   -3.0394   -0.4442   -0.0657 C   0  0  0  0  0  0
   -3.0436   -1.7395    1.0900 Cl  0  0  0  0  0  0
   -1.2274    2.0733    1.3452 H   0  0  0  0  0  0
    0.2376    3.9539    1.9080 H   0  0  0  0  0  0
    2.6582    3.8128    1.4777 H   0  0  0  0  0  0
    3.6187    1.7696    0.5104 H   0  0  0  0  0  0
    0.8887   -1.6725    2.0202 H   0  0  0  0  0  0
    0.6935   -3.1609    1.0560 H   0  0  0  0  0  0
    4.9725    0.9461   -0.9158 H   0  0  0  0  0  0
    4.5778    0.3087   -2.5301 H   0  0  0  0  0  0
    3.4831    1.4680   -1.7389 H   0  0  0  0  0  0
   -0.9245    1.7244   -1.5956 H   0  0  0  0  0  0
   -3.0400    2.4340   -2.6289 H   0  0  0  0  0  0
   -5.1463    1.3144   -2.0263 H   0  0  0  0  0  0
   -5.1501   -0.5200   -0.3881 H   0  0  0  0  0  0
  1  2  1  0  0  0
  1  6  2  0  0  0
  1 11  1  0  0  0
  2  3  2  0  0  0
  2  7  1  0  0  0
  3  4  1  0  0  0
  3 23  1  0  0  0
  4  5  2  0  0  0
  4 24  1  0  0  0
  5  6  1  0  0  0
  5 25  1  0  0  0
  6 26  1  0  0  0
  7  8  2  0  0  0
  7 16  1  0  0  0
  8  9  1  0  0  0
  9 10  1  0  0  0
  9 27  1  0  0  0
  9 28  1  0  0  0
 10 11  1  0  0  0
 10 14  2  0  0  0
 11 12  1  0  0  0
 12 13  2  0  0  0
 12 15  1  0  0  0
 13 14  1  0  0  0
 15 29  1  0  0  0
 15 30  1  0  0  0
 15 31  1  0  0  0
 16 17  1  0  0  0
 16 21  2  0  0  0
 17 18  2  0  0  0
 17 32  1  0  0  0
 18 19  1  0  0  0
 18 33  1  0  0  0
 19 20  2  0  0  0
 19 34  1  0  0  0
 20 21  1  0  0  0
 20 35  1  0  0  0
 21 22  1  0  0  0
M  END
>  <Activity>
8.36653

>  <set>
1

>  <Min_dist>
999.9

>  <Avg_dist>
999.9

$$$$
ESTAZOLAM
  Cerius2 12110214493D 1   1.00000                          
 
 32 35  0  0  0  0  0  0  0  0999 V2000
    1.3393    0.8523   -0.1828 C   0  0  0  0  0  0
    0.1087    0.3640    0.2626 C   0  0  0  0  0  0
   -0.9482    1.2666    0.4538 C   0  0  0  0  0  0
   -0.7816    2.6067    0.1845 C   0  0  0  0  0  0
    0.4355    3.0787   -0.2797 C   0  0  0  0  0  0
    1.4888    2.2063   -0.4613 C   0  0  0  0  0  0
   -2.1011    3.7085    0.4271 Cl  0  0  0  0  0  0
   -0.1459   -1.0586    0.5131 C   0  0  0  0  0  0
    0.6276   -1.9107    1.0890 N   0  0  0  0  0  0
    1.9388   -1.5289    1.6253 C   0  0  0  0  0  0
    2.7756   -1.0251    0.4769 C   0  0  0  0  0  0
    2.4503    0.0193   -0.3274 N   0  0  0  0  0  0
    3.4347    0.0972   -1.2611 C   0  0  0  0  0  0
    4.3062   -0.8341   -0.9728 N   0  0  0  0  0  0
    3.9178   -1.4937    0.0635 N   0  0  0  0  0  0
   -1.4528   -1.5775    0.0468 C   0  0  0  0  0  0
   -2.1229   -0.9469   -1.0014 C   0  0  0  0  0  0
   -3.3395   -1.4353   -1.4316 C   0  0  0  0  0  0
   -3.8952   -2.5477   -0.8251 C   0  0  0  0  0  0
   -3.2353   -3.1775    0.2151 C   0  0  0  0  0  0
   -2.0153   -2.7020    0.6504 C   0  0  0  0  0  0
   -1.9006    0.9072    0.8147 H   0  0  0  0  0  0
    0.5596    4.1288   -0.4993 H   0  0  0  0  0  0
    2.4361    2.5777   -0.8235 H   0  0  0  0  0  0
    1.8187   -0.7406    2.3685 H   0  0  0  0  0  0
    2.4187   -2.3958    2.0796 H   0  0  0  0  0  0
    3.4872    0.7948   -2.0839 H   0  0  0  0  0  0
   -1.6904   -0.0780   -1.4751 H   0  0  0  0  0  0
   -3.8594   -0.9479   -2.2431 H   0  0  0  0  0  0
   -4.8480   -2.9258   -1.1648 H   0  0  0  0  0  0
   -3.6740   -4.0455    0.6846 H   0  0  0  0  0  0
   -1.5011   -3.1945    1.4624 H   0  0  0  0  0  0
  1  2  1  0  0  0
  1  6  2  0  0  0
  1 12  1  0  0  0
  2  3  2  0  0  0
  2  8  1  0  0  0
  3  4  1  0  0  0
  3 22  1  0  0  0
  4  5  2  0  0  0
  4  7  1  0  0  0
  5  6  1  0  0  0
  5 23  1  0  0  0
  6 24  1  0  0  0
  8  9  2  0  0  0
  8 16  1  0  0  0
  9 10  1  0  0  0
 10 11  1  0  0  0
 10 25  1  0  0  0
 10 26  1  0  0  0
 11 12  1  0  0  0
 11 15  2  0  0  0
 12 13  1  0  0  0
 13 14  2  0  0  0
 13 27  1  0  0  0
 14 15  1  0  0  0
 16 17  1  0  0  0
 16 21  2  0  0  0
 17 18  2  0  0  0
 17 28  1  0  0  0
 18 19  1  0  0  0
 18 29  1  0  0  0
 19 20  2  0  0  0
 19 30  1  0  0  0
 20 21  1  0  0  0
 20 31  1  0  0  0
 21 32  1  0  0  0
M  END
>  <Activity>
8.07058

>  <set>
1

>  <Min_dist>
999.9

>  <Avg_dist>
999.9

$$$$
ALPRAZOLAM
  Cerius2 12110214493D 1   1.00000                          
 
 35 38  0  0  0  0  0  0  0  0999 V2000
    1.2565    0.6759    0.0377 C   0  0  0  0  0  0
   -0.0463    0.3071    0.3806 C   0  0  0  0  0  0
   -1.0176    1.3091    0.5244 C   0  0  0  0  0  0
   -0.6970    2.6308    0.3083 C   0  0  0  0  0  0
    0.5922    2.9853   -0.0548 C   0  0  0  0  0  0
    1.5622    2.0134   -0.1884 C   0  0  0  0  0  0
   -1.9124    3.8568    0.4910 Cl  0  0  0  0  0  0
   -0.4612   -1.0871    0.5693 C   0  0  0  0  0  0
    0.1780   -2.0274    1.1720 N   0  0  0  0  0  0
    1.4785   -1.7953    1.8104 C   0  0  0  0  0  0
    2.4435   -1.3542    0.7394 C   0  0  0  0  0  0
    2.2851   -0.2636   -0.0537 N   0  0  0  0  0  0
    3.3379   -0.2662   -0.9132 C   0  0  0  0  0  0
    4.0873   -1.2888   -0.5928 N   0  0  0  0  0  0
    3.5595   -1.9285    0.3932 N   0  0  0  0  0  0
    3.5928    0.7207   -2.0232 C   0  0  0  0  0  0
   -1.7763   -1.4576   -0.0031 C   0  0  0  0  0  0
   -2.3009   -0.7374   -1.0762 C   0  0  0  0  0  0
   -3.5261   -1.0876   -1.6053 C   0  0  0  0  0  0
   -4.2342   -2.1505   -1.0734 C   0  0  0  0  0  0
   -3.7191   -2.8688   -0.0091 C   0  0  0  0  0  0
   -2.4923   -2.5318    0.5250 C   0  0  0  0  0  0
   -2.0252    1.0417    0.8065 H   0  0  0  0  0  0
    0.8376    4.0218   -0.2331 H   0  0  0  0  0  0
    2.5661    2.2933   -0.4717 H   0  0  0  0  0  0
    1.3849   -1.0162    2.5669 H   0  0  0  0  0  0
    1.8338   -2.7173    2.2708 H   0  0  0  0  0  0
    4.1859    1.5517   -1.6415 H   0  0  0  0  0  0
    4.1350    0.2278   -2.8302 H   0  0  0  0  0  0
    2.6418    1.0963   -2.4009 H   0  0  0  0  0  0
   -1.7494    0.0930   -1.4918 H   0  0  0  0  0  0
   -3.9333   -0.5307   -2.4362 H   0  0  0  0  0  0
   -5.1931   -2.4205   -1.4906 H   0  0  0  0  0  0
   -4.2765   -3.6975    0.4019 H   0  0  0  0  0  0
   -2.0912   -3.0932    1.3559 H   0  0  0  0  0  0
  1  2  1  0  0  0
  1  6  2  0  0  0
  1 12  1  0  0  0
  2  3  2  0  0  0
  2  8  1  0  0  0
  3  4  1  0  0  0
  3 23  1  0  0  0
  4  5  2  0  0  0
  4  7  1  0  0  0
  5  6  1  0  0  0
  5 24  1  0  0  0
  6 25  1  0  0  0
  8  9  2  0  0  0
  8 17  1  0  0  0
  9 10  1  0  0  0
 10 11  1  0  0  0
 10 26  1  0  0  0
 10 27  1  0  0  0
 11 12  1  0  0  0
 11 15  2  0  0  0
 12 13  1  0  0  0
 13 14  2  0  0  0
 13 16  1  0  0  0
 14 15  1  0  0  0
 16 28  1  0  0  0
 16 29  1  0  0  0
 16 30  1  0  0  0
 17 18  1  0  0  0
 17 22  2  0  0  0
 18 19  2  0  0  0
 18 31  1  0  0  0
 19 20  1  0  0  0
 19 32  1  0  0  0
 20 21  2  0  0  0
 20 33  1  0  0  0
 21 22  1  0  0  0
 21 34  1  0  0  0
 22 35  1  0  0  0
M  END
>  <Activity>
7.69897

>  <set>
1

>  <Min_dist>
999.9

>  <Avg_dist>
999.9

$$$$
ADINAZOLAM
  Cerius2 12110214493D 1   1.00000                          
 
 43 46  0  0  0  0  0  0  0  0999 V2000
    0.7312    0.5534    0.7588 C   0  0  0  0  0  0
   -0.6301    0.2434    0.7155 C   0  0  0  0  0  0
   -1.5612    1.2913    0.6587 C   0  0  0  0  0  0
   -1.1389    2.6016    0.6227 C   0  0  0  0  0  0
    0.2141    2.8990    0.6419 C   0  0  0  0  0  0
    1.1425    1.8807    0.7101 C   0  0  0  0  0  0
   -2.3059    3.8850    0.5524 Cl  0  0  0  0  0  0
   -1.1386   -1.1322    0.6953 C   0  0  0  0  0  0
   -0.7265   -2.1376    1.3847 N   0  0  0  0  0  0
    0.3612   -2.0142    2.3617 C   0  0  0  0  0  0
    1.5977   -1.5754    1.6193 C   0  0  0  0  0  0
    1.7058   -0.4382    0.8853 N   0  0  0  0  0  0
    2.9509   -0.4577    0.3408 C   0  0  0  0  0  0
    3.5420   -1.5370    0.7830 N   0  0  0  0  0  0
    2.7407   -2.1947    1.5480 N   0  0  0  0  0  0
    3.5379    0.5684   -0.5939 C   0  0  0  0  0  0
    3.1229    0.2704   -1.9712 N   0  0  0  0  0  0
    3.3919    1.4776   -2.7637 C   0  0  0  0  0  0
    4.0300   -0.7723   -2.4691 C   0  0  0  0  0  0
   -2.2640   -1.3962   -0.2313 C   0  0  0  0  0  0
   -2.4480   -0.5925   -1.3563 C   0  0  0  0  0  0
   -3.4977   -0.8437   -2.2158 C   0  0  0  0  0  0
   -4.3671   -1.8899   -1.9633 C   0  0  0  0  0  0
   -4.1897   -2.6906   -0.8491 C   0  0  0  0  0  0
   -3.1404   -2.4530    0.0147 C   0  0  0  0  0  0
   -2.6178    1.0686    0.6427 H   0  0  0  0  0  0
    0.5418    3.9273    0.6035 H   0  0  0  0  0  0
    2.1964    2.1162    0.7248 H   0  0  0  0  0  0
    0.0989   -1.2707    3.1144 H   0  0  0  0  0  0
    0.5396   -2.9775    2.8395 H   0  0  0  0  0  0
    3.1828    1.5602   -0.3140 H   0  0  0  0  0  0
    4.6255    0.5398   -0.5279 H   0  0  0  0  0  0
    3.0989    1.3052   -3.7993 H   0  0  0  0  0  0
    2.8206    2.3129   -2.3587 H   0  0  0  0  0  0
    4.4559    1.7106   -2.7211 H   0  0  0  0  0  0
    3.7215   -1.0746   -3.4699 H   0  0  0  0  0  0
    5.0472   -0.3822   -2.5048 H   0  0  0  0  0  0
    3.9944   -1.6337   -1.8022 H   0  0  0  0  0  0
   -1.7704    0.2249   -1.5540 H   0  0  0  0  0  0
   -3.6413   -0.2221   -3.0872 H   0  0  0  0  0  0
   -5.1877   -2.0821   -2.6387 H   0  0  0  0  0  0
   -4.8716   -3.5058   -0.6573 H   0  0  0  0  0  0
   -3.0029   -3.0787    0.8842 H   0  0  0  0  0  0
  1  2  1  0  0  0
  1  6  2  0  0  0
  1 12  1  0  0  0
  2  3  2  0  0  0
  2  8  1  0  0  0
  3  4  1  0  0  0
  3 26  1  0  0  0
  4  5  2  0  0  0
  4  7  1  0  0  0
  5  6  1  0  0  0
  5 27  1  0  0  0
  6 28  1  0  0  0
  8  9  2  0  0  0
  8 20  1  0  0  0
  9 10  1  0  0  0
 10 11  1  0  0  0
 10 29  1  0  0  0
 10 30  1  0  0  0
 11 12  1  0  0  0
 11 15  2  0  0  0
 12 13  1  0  0  0
 13 14  2  0  0  0
 13 16  1  0  0  0
 14 15  1  0  0  0
 16 17  1  0  0  0
 16 31  1  0  0  0
 16 32  1  0  0  0
 17 18  1  0  0  0
 17 19  1  0  0  0
 18 33  1  0  0  0
 18 34  1  0  0  0
 18 35  1  0  0  0
 19 36  1  0  0  0
 19 37  1  0  0  0
 19 38  1  0  0  0
 20 21  1  0  0  0
 20 25  2  0  0  0
 21 22  2  0  0  0
 21 39  1  0  0  0
 22 23  1  0  0  0
 22 40  1  0  0  0
 23 24  2  0  0  0
 23 41  1  0  0  0
 24 25  1  0  0  0
 24 42  1  0  0  0
 25 43  1  0  0  0
M  END
>  <Activity>
6.86967

>  <set>
1

>  <Min_dist>
999.9

>  <Avg_dist>
999.9

$$$$
RO11-7800
  Cerius2 12110214493D 1   1.00000                          
 
 34 37  0  0  0  0  0  0  0  0999 V2000
    1.4031    0.0300    0.1345 C   0  0  0  0  0  0
    0.0626    0.3916    0.2520 C   0  0  0  0  0  0
   -0.1656    1.8100    0.4768 C   0  0  0  0  0  0
    0.8842    2.6468    0.5391 C   0  0  0  0  0  0
    2.2791    1.5621    0.3002 S   0  0  0  0  0  0
    0.8825    4.3647    0.7897 Cl  0  0  0  0  0  0
   -1.0356   -0.5926    0.1311 C   0  0  0  0  0  0
   -1.0046   -1.8158    0.5490 N   0  0  0  0  0  0
    0.1040   -2.3673    1.3292 C   0  0  0  0  0  0
    1.3600   -2.3579    0.4994 C   0  0  0  0  0  0
    1.9157   -1.2358   -0.0466 N   0  0  0  0  0  0
    3.0069   -1.6522   -0.7333 C   0  0  0  0  0  0
    3.0868   -2.9485   -0.5732 N   0  0  0  0  0  0
    2.1120   -3.3621    0.1604 N   0  0  0  0  0  0
    3.9491   -0.7872   -1.5303 C   0  0  0  0  0  0
    5.0367   -0.3181   -0.6614 N   0  0  0  0  0  0
   -2.2818   -0.1358   -0.5270 C   0  0  0  0  0  0
   -2.2189    0.6891   -1.6499 C   0  0  0  0  0  0
   -3.3826    1.1114   -2.2585 C   0  0  0  0  0  0
   -4.6114    0.7186   -1.7576 C   0  0  0  0  0  0
   -4.6817   -0.0990   -0.6448 C   0  0  0  0  0  0
   -3.5234   -0.5336   -0.0295 C   0  0  0  0  0  0
   -3.6126   -1.5606    1.3673 Cl  0  0  0  0  0  0
   -1.1706    2.1880    0.5924 H   0  0  0  0  0  0
    0.2551   -1.7620    2.2231 H   0  0  0  0  0  0
   -0.1310   -3.3910    1.6203 H   0  0  0  0  0  0
    4.3662   -1.3670   -2.3536 H   0  0  0  0  0  0
    3.4064    0.0703   -1.9282 H   0  0  0  0  0  0
    5.6392    0.2537   -1.2341 H   0  0  0  0  0  0
    4.6181    0.2953    0.0216 H   0  0  0  0  0  0
   -1.2608    0.9970   -2.0421 H   0  0  0  0  0  0
   -3.3346    1.7504   -3.1278 H   0  0  0  0  0  0
   -5.5194    1.0524   -2.2377 H   0  0  0  0  0  0
   -5.6436   -0.4022   -0.2585 H   0  0  0  0  0  0
  1  2  2  0  0  0
  1  5  1  0  0  0
  1 11  1  0  0  0
  2  3  1  0  0  0
  2  7  1  0  0  0
  3  4  2  0  0  0
  3 24  1  0  0  0
  4  5  1  0  0  0
  4  6  1  0  0  0
  7  8  2  0  0  0
  7 17  1  0  0  0
  8  9  1  0  0  0
  9 10  1  0  0  0
  9 25  1  0  0  0
  9 26  1  0  0  0
 10 11  1  0  0  0
 10 14  2  0  0  0
 11 12  1  0  0  0
 12 13  2  0  0  0
 12 15  1  0  0  0
 13 14  1  0  0  0
 15 16  1  0  0  0
 15 27  1  0  0  0
 15 28  1  0  0  0
 16 29  1  0  0  0
 16 30  1  0  0  0
 17 18  1  0  0  0
 17 22  2  0  0  0
 18 19  2  0  0  0
 18 31  1  0  0  0
 19 20  1  0  0  0
 19 32  1  0  0  0
 20 21  2  0  0  0
 20 33  1  0  0  0
 21 22  1  0  0  0
 21 34  1  0  0  0
 22 23  1  0  0  0
M  END
>  <Activity>
8.5376

>  <set>
1

>  <Min_dist>
999.9

>  <Avg_dist>
999.9

$$$$
ETIZOLAM
  Cerius2 12110214493D 1   1.00000                          
 
 38 41  0  0  0  0  0  0  0  0999 V2000
    1.6357    0.1208   -0.0128 C   0  0  0  0  0  0
    0.2996    0.4832    0.1326 C   0  0  0  0  0  0
    0.0721    1.9138    0.2669 C   0  0  0  0  0  0
    1.1361    2.7324    0.2241 C   0  0  0  0  0  0
    2.5013    1.6092    0.0054 S   0  0  0  0  0  0
    1.1674    4.2350    0.3343 C   0  0  0  0  0  0
    1.3186    4.6356    1.8032 C   0  0  0  0  0  0
   -0.7991   -0.5079    0.1247 C   0  0  0  0  0  0
   -0.7492   -1.6976    0.6279 N   0  0  0  0  0  0
    0.3916   -2.1910    1.4010 C   0  0  0  0  0  0
    1.6131   -2.2380    0.5223 C   0  0  0  0  0  0
    2.1429   -1.1576   -0.1225 N   0  0  0  0  0  0
    3.2074   -1.6202   -0.8217 C   0  0  0  0  0  0
    3.2975   -2.9021   -0.5747 N   0  0  0  0  0  0
    2.3539   -3.2636    0.2244 N   0  0  0  0  0  0
    4.1144   -0.8126   -1.7140 C   0  0  0  0  0  0
   -2.0705   -0.0999   -0.5170 C   0  0  0  0  0  0
   -2.0525    0.6419   -1.6979 C   0  0  0  0  0  0
   -3.2396    1.0185   -2.2911 C   0  0  0  0  0  0
   -4.4475    0.6621   -1.7174 C   0  0  0  0  0  0
   -4.4733   -0.0729   -0.5465 C   0  0  0  0  0  0
   -3.2913   -0.4612    0.0545 C   0  0  0  0  0  0
   -3.3248   -1.3844    1.5243 Cl  0  0  0  0  0  0
   -0.9253    2.3070    0.3971 H   0  0  0  0  0  0
    2.0104    4.6238   -0.2369 H   0  0  0  0  0  0
    0.2393    4.6477   -0.0612 H   0  0  0  0  0  0
    1.3412    5.7225    1.8829 H   0  0  0  0  0  0
    0.4755    4.2469    2.3744 H   0  0  0  0  0  0
    2.2467    4.2229    2.1987 H   0  0  0  0  0  0
    0.5754   -1.5237    2.2431 H   0  0  0  0  0  0
    0.1727   -3.1921    1.7725 H   0  0  0  0  0  0
    4.9453   -0.4201   -1.1278 H   0  0  0  0  0  0
    4.5002   -1.4484   -2.5109 H   0  0  0  0  0  0
    3.5536    0.0148   -2.1487 H   0  0  0  0  0  0
   -1.1108    0.9213   -2.1469 H   0  0  0  0  0  0
   -3.2263    1.5933   -3.2054 H   0  0  0  0  0  0
   -5.3739    0.9595   -2.1860 H   0  0  0  0  0  0
   -5.4190   -0.3474   -0.1031 H   0  0  0  0  0  0
  1  2  2  0  0  0
  1  5  1  0  0  0
  1 12  1  0  0  0
  2  3  1  0  0  0
  2  8  1  0  0  0
  3  4  2  0  0  0
  3 24  1  0  0  0
  4  5  1  0  0  0
  4  6  1  0  0  0
  6  7  1  0  0  0
  6 25  1  0  0  0
  6 26  1  0  0  0
  7 27  1  0  0  0
  7 28  1  0  0  0
  7 29  1  0  0  0
  8  9  2  0  0  0
  8 17  1  0  0  0
  9 10  1  0  0  0
 10 11  1  0  0  0
 10 30  1  0  0  0
 10 31  1  0  0  0
 11 12  1  0  0  0
 11 15  2  0  0  0
 12 13  1  0  0  0
 13 14  2  0  0  0
 13 16  1  0  0  0
 14 15  1  0  0  0
 16 32  1  0  0  0
 16 33  1  0  0  0
 16 34  1  0  0  0
 17 18  1  0  0  0
 17 22  2  0  0  0
 18 19  2  0  0  0
 18 35  1  0  0  0
 19 20  1  0  0  0
 19 36  1  0  0  0
 20 21  2  0  0  0
 20 37  1  0  0  0
 21 22  1  0  0  0
 21 38  1  0  0  0
 22 23  1  0  0  0
M  END
>  <Activity>
8.50864

>  <set>
1

>  <Min_dist>
999.9

>  <Avg_dist>
999.9

$$$$
RO17-4582
  Cerius2 12110214493D 1   1.00000                          
 
 32 35  0  0  0  0  0  0  0  0999 V2000
    1.6761    0.6424    0.3329 C   0  0  0  0  0  0
    0.3059    0.8010    0.5200 C   0  0  0  0  0  0
   -0.0825    2.0828    1.0879 C   0  0  0  0  0  0
    0.8834    2.9763    1.3576 C   0  0  0  0  0  0
    2.3688    2.1272    0.8621 S   0  0  0  0  0  0
   -0.6744   -0.2423    0.1462 C   0  0  0  0  0  0
   -0.4982   -1.5188    0.2497 N   0  0  0  0  0  0
    0.6801   -2.1140    0.8820 C   0  0  0  0  0  0
    1.9110   -1.7532    0.0940 C   0  0  0  0  0  0
    2.3250   -0.4753   -0.1502 N   0  0  0  0  0  0
    3.4441   -0.5795   -0.9070 C   0  0  0  0  0  0
    3.6741   -1.8568   -1.0733 N   0  0  0  0  0  0
    2.7662   -2.5488   -0.4761 N   0  0  0  0  0  0
    4.2667    0.5588   -1.4534 C   0  0  0  0  0  0
   -1.9748    0.2171   -0.3950 C   0  0  0  0  0  0
   -2.0240    1.2948   -1.2789 C   0  0  0  0  0  0
   -3.2377    1.7179   -1.7798 C   0  0  0  0  0  0
   -4.4056    1.0757   -1.4075 C   0  0  0  0  0  0
   -4.3648    0.0068   -0.5313 C   0  0  0  0  0  0
   -3.1550   -0.4303   -0.0269 C   0  0  0  0  0  0
   -3.1046   -1.7727    1.0727 Cl  0  0  0  0  0  0
   -1.1195    2.3100    1.2869 H   0  0  0  0  0  0
    0.7837    3.9680    1.7736 H   0  0  0  0  0  0
    0.7764   -1.7353    1.8996 H   0  0  0  0  0  0
    0.5699   -3.1982    0.9072 H   0  0  0  0  0  0
    5.0403    0.8263   -0.7336 H   0  0  0  0  0  0
    4.7323    0.2536   -2.3905 H   0  0  0  0  0  0
    3.6226    1.4200   -1.6313 H   0  0  0  0  0  0
   -1.1136    1.7975   -1.5703 H   0  0  0  0  0  0
   -3.2766    2.5526   -2.4641 H   0  0  0  0  0  0
   -5.3531    1.4110   -1.8027 H   0  0  0  0  0  0
   -5.2797   -0.4899   -0.2439 H   0  0  0  0  0  0
  1  2  2  0  0  0
  1  5  1  0  0  0
  1 10  1  0  0  0
  2  3  1  0  0  0
  2  6  1  0  0  0
  3  4  2  0  0  0
  3 22  1  0  0  0
  4  5  1  0  0  0
  4 23  1  0  0  0
  6  7  2  0  0  0
  6 15  1  0  0  0
  7  8  1  0  0  0
  8  9  1  0  0  0
  8 24  1  0  0  0
  8 25  1  0  0  0
  9 10  1  0  0  0
  9 13  2  0  0  0
 10 11  1  0  0  0
 11 12  2  0  0  0
 11 14  1  0  0  0
 12 13  1  0  0  0
 14 26  1  0  0  0
 14 27  1  0  0  0
 14 28  1  0  0  0
 15 16  1  0  0  0
 15 20  2  0  0  0
 16 17  2  0  0  0
 16 29  1  0  0  0
 17 18  1  0  0  0
 17 30  1  0  0  0
 18 19  2  0  0  0
 18 31  1  0  0  0
 19 20  1  0  0  0
 19 32  1  0  0  0
 20 21  1  0  0  0
M  END
>  <Activity>
8.45593

>  <set>
1

>  <Min_dist>
999.9

>  <Avg_dist>
999.9

$$$$
RO21-8137
  Cerius2 12110214493D 1   1.00000                          
 
 37 40  0  0  0  0  0  0  0  0999 V2000
   -0.2589    1.6001    0.2111 C   0  0  0  0  0  0
    0.6916    0.6504   -0.1667 C   0  0  0  0  0  0
    1.9961    1.0778   -0.4579 C   0  0  0  0  0  0
    2.3372    2.4076   -0.3505 C   0  0  0  0  0  0
    1.3928    3.3401    0.0472 C   0  0  0  0  0  0
    0.1028    2.9380    0.3260 C   0  0  0  0  0  0
    3.9563    2.9174   -0.7142 Cl  0  0  0  0  0  0
    0.4057   -0.7863   -0.2469 C   0  0  0  0  0  0
   -0.6452   -1.3562   -0.7244 N   0  0  0  0  0  0
   -1.7474   -0.5817   -1.3063 C   0  0  0  0  0  0
   -2.2981    0.3144   -0.2274 C   0  0  0  0  0  0
   -1.5927    1.2551    0.4507 N   0  0  0  0  0  0
   -2.4274    1.8091    1.3711 C   0  0  0  0  0  0
   -3.6078    1.2713    1.2462 N   0  0  0  0  0  0
   -3.5694    0.3397    0.2557 C   0  0  0  0  0  0
   -4.6963   -0.4884   -0.2076 C   0  0  0  0  0  0
   -4.5323   -1.2898   -1.1076 O   0  0  0  0  0  0
   -5.9089   -0.3579    0.3659 N   0  0  0  0  0  0
    1.4516   -1.6892    0.2847 C   0  0  0  0  0  0
    2.1347   -1.3578    1.4553 C   0  0  0  0  0  0
    3.1081   -2.2028    1.9457 C   0  0  0  0  0  0
    3.4093   -3.3786    1.2800 C   0  0  0  0  0  0
    2.7380   -3.7147    0.1194 C   0  0  0  0  0  0
    1.7552   -2.8797   -0.3803 C   0  0  0  0  0  0
    1.0989   -3.2086   -1.5144 F   0  0  0  0  0  0
    2.7388    0.3579   -0.7684 H   0  0  0  0  0  0
    1.6662    4.3809    0.1387 H   0  0  0  0  0  0
   -0.6311    3.6674    0.6355 H   0  0  0  0  0  0
   -1.3773    0.0223   -2.1348 H   0  0  0  0  0  0
   -2.5270   -1.2566   -1.6596 H   0  0  0  0  0  0
   -2.1562    2.5700    2.0878 H   0  0  0  0  0  0
   -6.6509   -0.9032    0.0609 H   0  0  0  0  0  0
   -6.0397    0.2813    1.0837 H   0  0  0  0  0  0
    1.9019   -0.4409    1.9763 H   0  0  0  0  0  0
    3.6372   -1.9463    2.8516 H   0  0  0  0  0  0
    4.1726   -4.0361    1.6691 H   0  0  0  0  0  0
    2.9780   -4.6333   -0.3954 H   0  0  0  0  0  0
  1  2  1  0  0  0
  1  6  2  0  0  0
  1 12  1  0  0  0
  2  3  2  0  0  0
  2  8  1  0  0  0
  3  4  1  0  0  0
  3 26  1  0  0  0
  4  5  2  0  0  0
  4  7  1  0  0  0
  5  6  1  0  0  0
  5 27  1  0  0  0
  6 28  1  0  0  0
  8  9  2  0  0  0
  8 19  1  0  0  0
  9 10  1  0  0  0
 10 11  1  0  0  0
 10 29  1  0  0  0
 10 30  1  0  0  0
 11 12  1  0  0  0
 11 15  2  0  0  0
 12 13  1  0  0  0
 13 14  2  0  0  0
 13 31  1  0  0  0
 14 15  1  0  0  0
 15 16  1  0  0  0
 16 17  2  0  0  0
 16 18  1  0  0  0
 18 32  1  0  0  0
 18 33  1  0  0  0
 19 20  1  0  0  0
 19 24  2  0  0  0
 20 21  2  0  0  0
 20 34  1  0  0  0
 21 22  1  0  0  0
 21 35  1  0  0  0
 22 23  2  0  0  0
 22 36  1  0  0  0
 23 24  1  0  0  0
 23 37  1  0  0  0
 24 25  1  0  0  0
M  END
>  <Activity>
8.45593

>  <set>
1

>  <Min_dist>
999.9

>  <Avg_dist>
999.9

$$$$
MIDAZOLAM
  Cerius2 12110214493D 1   1.00000                          
 
 36 39  0  0  0  0  0  0  0  0999 V2000
    1.5355    0.5062    0.0562 C   0  0  0  0  0  0
    0.1667    0.4060    0.3129 C   0  0  0  0  0  0
   -0.5763    1.5837    0.4868 C   0  0  0  0  0  0
    0.0299    2.8157    0.3832 C   0  0  0  0  0  0
    1.3842    2.9056    0.1051 C   0  0  0  0  0  0
    2.1317    1.7574   -0.0566 C   0  0  0  0  0  0
   -0.9061    4.2613    0.6013 Cl  0  0  0  0  0  0
   -0.5475   -0.8732    0.3810 C   0  0  0  0  0  0
   -0.1636   -1.9659    0.9431 N   0  0  0  0  0  0
    1.1167   -2.0624    1.6537 C   0  0  0  0  0  0
    2.2135   -1.7777    0.6603 C   0  0  0  0  0  0
    2.3478   -0.6253   -0.0609 N   0  0  0  0  0  0
    3.4265   -0.7821   -0.8683 C   0  0  0  0  0  0
    3.9540   -1.9534   -0.6272 N   0  0  0  0  0  0
    3.2273   -2.5850    0.3099 C   0  0  0  0  0  0
    3.9306    0.2226   -1.8720 C   0  0  0  0  0  0
   -1.8730   -0.9125   -0.2773 C   0  0  0  0  0  0
   -2.0678   -0.2689   -1.4997 C   0  0  0  0  0  0
   -3.3048   -0.3090   -2.1081 C   0  0  0  0  0  0
   -4.3537   -0.9854   -1.5093 C   0  0  0  0  0  0
   -4.1699   -1.6259   -0.2982 C   0  0  0  0  0  0
   -2.9330   -1.5991    0.3200 C   0  0  0  0  0  0
   -2.7535   -2.2252    1.5037 F   0  0  0  0  0  0
   -1.6327    1.5233    0.7033 H   0  0  0  0  0  0
    1.8545    3.8738    0.0158 H   0  0  0  0  0  0
    3.1872    1.8308   -0.2734 H   0  0  0  0  0  0
    1.1484   -1.3291    2.4595 H   0  0  0  0  0  0
    1.2385   -3.0660    2.0612 H   0  0  0  0  0  0
    3.4243   -3.5682    0.7110 H   0  0  0  0  0  0
    4.6527    0.8838   -1.3930 H   0  0  0  0  0  0
    4.4098   -0.2999   -2.7000 H   0  0  0  0  0  0
    3.0939    0.8107   -2.2491 H   0  0  0  0  0  0
   -1.2513    0.2601   -1.9687 H   0  0  0  0  0  0
   -3.4558    0.1892   -3.0544 H   0  0  0  0  0  0
   -5.3202   -1.0125   -1.9904 H   0  0  0  0  0  0
   -4.9924   -2.1516    0.1639 H   0  0  0  0  0  0
  1  2  1  0  0  0
  1  6  2  0  0  0
  1 12  1  0  0  0
  2  3  2  0  0  0
  2  8  1  0  0  0
  3  4  1  0  0  0
  3 24  1  0  0  0
  4  5  2  0  0  0
  4  7  1  0  0  0
  5  6  1  0  0  0
  5 25  1  0  0  0
  6 26  1  0  0  0
  8  9  2  0  0  0
  8 17  1  0  0  0
  9 10  1  0  0  0
 10 11  1  0  0  0
 10 27  1  0  0  0
 10 28  1  0  0  0
 11 12  1  0  0  0
 11 15  2  0  0  0
 12 13  1  0  0  0
 13 14  2  0  0  0
 13 16  1  0  0  0
 14 15  1  0  0  0
 15 29  1  0  0  0
 16 30  1  0  0  0
 16 31  1  0  0  0
 16 32  1  0  0  0
 17 18  1  0  0  0
 17 22  2  0  0  0
 18 19  2  0  0  0
 18 33  1  0  0  0
 19 20  1  0  0  0
 19 34  1  0  0  0
 20 21  2  0  0  0
 20 35  1  0  0  0
 21 22  1  0  0  0
 21 36  1  0  0  0
 22 23  1  0  0  0
M  END
>  <Activity>
8.31876

>  <set>
1

>  <Min_dist>
999.9

>  <Avg_dist>
999.9

$$$$
RO21-5205
  Cerius2 12110214493D 1   1.00000                          
 
 39 42  0  0  0  0  0  0  0  0999 V2000
    0.1249    1.6449    0.2156 C   0  0  0  0  0  0
    1.0157    0.6401   -0.1651 C   0  0  0  0  0  0
    2.3423    0.9890   -0.4615 C   0  0  0  0  0  0
    2.7623    2.2962   -0.3562 C   0  0  0  0  0  0
    1.8768    3.2833    0.0449 C   0  0  0  0  0  0
    0.5661    2.9590    0.3282 C   0  0  0  0  0  0
    4.4074    2.7085   -0.7269 Cl  0  0  0  0  0  0
    0.6445   -0.7771   -0.2434 C   0  0  0  0  0  0
   -0.4406   -1.2834   -0.7162 N   0  0  0  0  0  0
   -1.4968   -0.4445   -1.2942 C   0  0  0  0  0  0
   -1.9885    0.4835   -0.2138 C   0  0  0  0  0  0
   -1.2262    1.3800    0.4604 N   0  0  0  0  0  0
   -2.0227    1.9836    1.3838 C   0  0  0  0  0  0
   -3.2336    1.5176    1.2644 N   0  0  0  0  0  0
   -3.2548    0.5850    0.2748 C   0  0  0  0  0  0
   -4.4296   -0.1737   -0.1834 C   0  0  0  0  0  0
   -4.3171   -0.9837   -1.0827 O   0  0  0  0  0  0
   -5.6304    0.0296    0.3943 O   0  0  0  0  0  0
   -6.7895   -0.7190   -0.0578 C   0  0  0  0  0  0
    1.6370   -1.7405    0.2842 C   0  0  0  0  0  0
    2.3436   -1.4502    1.4517 C   0  0  0  0  0  0
    3.2666   -2.3518    1.9386 C   0  0  0  0  0  0
    3.4940   -3.5438    1.2726 C   0  0  0  0  0  0
    2.7989   -3.8396    0.1150 C   0  0  0  0  0  0
    1.8662   -2.9472   -0.3815 C   0  0  0  0  0  0
    1.1867   -3.2367   -1.5127 F   0  0  0  0  0  0
    3.0396    0.2259   -0.7744 H   0  0  0  0  0  0
    2.2123    4.3059    0.1356 H   0  0  0  0  0  0
   -0.1218    3.7307    0.6407 H   0  0  0  0  0  0
   -1.0946    0.1357   -2.1247 H   0  0  0  0  0  0
   -2.3168   -1.0718   -1.6438 H   0  0  0  0  0  0
   -1.7034    2.7272    2.0990 H   0  0  0  0  0  0
   -7.6631   -0.4214    0.5223 H   0  0  0  0  0  0
   -6.9667   -0.5121   -1.1132 H   0  0  0  0  0  0
   -6.6091   -1.7853    0.0782 H   0  0  0  0  0  0
    2.1683   -0.5208    1.9731 H   0  0  0  0  0  0
    3.8138   -2.1271    2.8422 H   0  0  0  0  0  0
    4.2181   -4.2458    1.6590 H   0  0  0  0  0  0
    2.9812   -4.7712   -0.4002 H   0  0  0  0  0  0
  1  2  1  0  0  0
  1  6  2  0  0  0
  1 12  1  0  0  0
  2  3  2  0  0  0
  2  8  1  0  0  0
  3  4  1  0  0  0
  3 27  1  0  0  0
  4  5  2  0  0  0
  4  7  1  0  0  0
  5  6  1  0  0  0
  5 28  1  0  0  0
  6 29  1  0  0  0
  8  9  2  0  0  0
  8 20  1  0  0  0
  9 10  1  0  0  0
 10 11  1  0  0  0
 10 30  1  0  0  0
 10 31  1  0  0  0
 11 12  1  0  0  0
 11 15  2  0  0  0
 12 13  1  0  0  0
 13 14  2  0  0  0
 13 32  1  0  0  0
 14 15  1  0  0  0
 15 16  1  0  0  0
 16 17  2  0  0  0
 16 18  1  0  0  0
 18 19  1  0  0  0
 19 33  1  0  0  0
 19 34  1  0  0  0
 19 35  1  0  0  0
 20 21  1  0  0  0
 20 25  2  0  0  0
 21 22  2  0  0  0
 21 36  1  0  0  0
 22 23  1  0  0  0
 22 37  1  0  0  0
 23 24  2  0  0  0
 23 38  1  0  0  0
 24 25  1  0  0  0
 24 39  1  0  0  0
 25 26  1  0  0  0
M  END
>  <Activity>
8.13077

>  <set>
1

>  <Min_dist>
999.9

>  <Avg_dist>
999.9

$$$$
RO22-0992
  Cerius2 12110214493D 1   1.00000                          
 
 36 39  0  0  0  0  0  0  0  0999 V2000
   -0.3276    1.7635    0.1652 C   0  0  0  0  0  0
    0.6537    0.8147   -0.1268 C   0  0  0  0  0  0
    1.9486    1.2555   -0.4401 C   0  0  0  0  0  0
    2.2504    2.5990   -0.4371 C   0  0  0  0  0  0
    1.2756    3.5323   -0.1238 C   0  0  0  0  0  0
   -0.0054    3.1163    0.1752 C   0  0  0  0  0  0
    3.8582    3.1252   -0.8266 Cl  0  0  0  0  0  0
    0.4097   -0.6315   -0.0937 C   0  0  0  0  0  0
   -0.6193   -1.2681   -0.5324 N   0  0  0  0  0  0
   -1.7367   -0.5751   -1.1840 C   0  0  0  0  0  0
   -2.3240    0.3883   -0.1855 C   0  0  0  0  0  0
   -1.6536    1.3998    0.4203 N   0  0  0  0  0  0
   -2.5137    2.0016    1.2861 C   0  0  0  0  0  0
   -3.6769    1.4218    1.1953 N   0  0  0  0  0  0
   -3.6014    0.4153    0.2837 C   0  0  0  0  0  0
   -4.6979   -0.4791   -0.1206 C   0  0  0  0  0  0
   -4.5013   -1.3446   -0.9511 O   0  0  0  0  0  0
   -5.9202   -0.3385    0.4300 O   0  0  0  0  0  0
    1.4756   -1.4582    0.5174 C   0  0  0  0  0  0
    2.1365   -1.0143    1.6630 C   0  0  0  0  0  0
    3.1281   -1.7890    2.2280 C   0  0  0  0  0  0
    3.4689   -3.0046    1.6609 C   0  0  0  0  0  0
    2.8185   -3.4513    0.5254 C   0  0  0  0  0  0
    1.8195   -2.6877   -0.0470 C   0  0  0  0  0  0
    1.0030   -3.2497   -1.4722 Cl  0  0  0  0  0  0
    2.7149    0.5350   -0.6854 H   0  0  0  0  0  0
    1.5183    4.5846   -0.1133 H   0  0  0  0  0  0
   -0.7631    3.8462    0.4191 H   0  0  0  0  0  0
   -1.3750   -0.0291   -2.0554 H   0  0  0  0  0  0
   -2.4930   -1.2986   -1.4883 H   0  0  0  0  0  0
   -2.2716    2.8250    1.9416 H   0  0  0  0  0  0
   -6.6407   -0.9262    0.1643 H   0  0  0  0  0  0
    1.8724   -0.0656    2.1066 H   0  0  0  0  0  0
    3.6401   -1.4459    3.1149 H   0  0  0  0  0  0
    4.2466   -3.6067    2.1070 H   0  0  0  0  0  0
    3.0890   -4.4008    0.0876 H   0  0  0  0  0  0
  1  2  1  0  0  0
  1  6  2  0  0  0
  1 12  1  0  0  0
  2  3  2  0  0  0
  2  8  1  0  0  0
  3  4  1  0  0  0
  3 26  1  0  0  0
  4  5  2  0  0  0
  4  7  1  0  0  0
  5  6  1  0  0  0
  5 27  1  0  0  0
  6 28  1  0  0  0
  8  9  2  0  0  0
  8 19  1  0  0  0
  9 10  1  0  0  0
 10 11  1  0  0  0
 10 29  1  0  0  0
 10 30  1  0  0  0
 11 12  1  0  0  0
 11 15  2  0  0  0
 12 13  1  0  0  0
 13 14  2  0  0  0
 13 31  1  0  0  0
 14 15  1  0  0  0
 15 16  1  0  0  0
 16 17  2  0  0  0
 16 18  1  0  0  0
 18 32  1  0  0  0
 19 20  1  0  0  0
 19 24  2  0  0  0
 20 21  2  0  0  0
 20 33  1  0  0  0
 21 22  1  0  0  0
 21 34  1  0  0  0
 22 23  2  0  0  0
 22 35  1  0  0  0
 23 24  1  0  0  0
 23 36  1  0  0  0
 24 25  1  0  0  0
M  END
>  <Activity>
7.88606

>  <set>
1

>  <Min_dist>
999.9

>  <Avg_dist>
999.9

$$$$
RO15-8670
  Cerius2 12110214493D 1   1.00000                          
 
 42 45  0  0  0  0  0  0  0  0999 V2000
    0.5569    1.4586    0.2368 C   0  0  0  0  0  0
    1.4072    0.4506   -0.2209 C   0  0  0  0  0  0
    2.7505    0.7643   -0.4789 C   0  0  0  0  0  0
    3.2256    2.0385   -0.2624 C   0  0  0  0  0  0
    2.3797    3.0269    0.2141 C   0  0  0  0  0  0
    1.0534    2.7381    0.4613 C   0  0  0  0  0  0
    4.8905    2.4076   -0.5871 Cl  0  0  0  0  0  0
    0.9758   -0.9373   -0.4193 C   0  0  0  0  0  0
   -0.1248   -1.3545   -0.9397 N   0  0  0  0  0  0
   -1.1381   -0.4252   -1.4525 C   0  0  0  0  0  0
   -1.6004    0.4303   -0.3015 C   0  0  0  0  0  0
   -0.8067    1.2339    0.4502 N   0  0  0  0  0  0
   -1.5857    1.7929    1.4156 C   0  0  0  0  0  0
   -2.8142    1.3918    1.2501 N   0  0  0  0  0  0
   -2.8661    0.5461    0.1854 C   0  0  0  0  0  0
   -4.0681   -0.1193   -0.3418 C   0  0  0  0  0  0
   -3.9820   -0.8558   -1.3050 O   0  0  0  0  0  0
   -5.2646    0.0879    0.2433 O   0  0  0  0  0  0
   -6.4506   -0.5687   -0.2769 C   0  0  0  0  0  0
   -7.6655   -0.1666    0.5618 C   0  0  0  0  0  0
    1.9209   -1.9846    0.0332 C   0  0  0  0  0  0
    2.8489   -1.7043    1.0359 C   0  0  0  0  0  0
    3.7262   -2.6840    1.4534 C   0  0  0  0  0  0
    3.6866   -3.9422    0.8797 C   0  0  0  0  0  0
    2.7686   -4.2262   -0.1156 C   0  0  0  0  0  0
    1.8822   -3.2566   -0.5377 C   0  0  0  0  0  0
    3.4172    0.0000   -0.8500 H   0  0  0  0  0  0
    2.7582    4.0226    0.3919 H   0  0  0  0  0  0
    0.3966    3.5107    0.8328 H   0  0  0  0  0  0
   -0.7029    0.2040   -2.2289 H   0  0  0  0  0  0
   -1.9807   -0.9848   -1.8587 H   0  0  0  0  0  0
   -1.2418    2.4600    2.1922 H   0  0  0  0  0  0
   -6.6082   -0.2671   -1.3124 H   0  0  0  0  0  0
   -6.3180   -1.6495   -0.2294 H   0  0  0  0  0  0
   -8.5558   -0.6595    0.1713 H   0  0  0  0  0  0
   -7.5079   -0.4682    1.5974 H   0  0  0  0  0  0
   -7.7982    0.9142    0.5143 H   0  0  0  0  0  0
    2.8811   -0.7223    1.4843 H   0  0  0  0  0  0
    4.4456   -2.4680    2.2295 H   0  0  0  0  0  0
    4.3753   -4.7058    1.2098 H   0  0  0  0  0  0
    2.7426   -5.2102   -0.5600 H   0  0  0  0  0  0
    1.1660   -3.4794   -1.3147 H   0  0  0  0  0  0
  1  2  1  0  0  0
  1  6  2  0  0  0
  1 12  1  0  0  0
  2  3  2  0  0  0
  2  8  1  0  0  0
  3  4  1  0  0  0
  3 27  1  0  0  0
  4  5  2  0  0  0
  4  7  1  0  0  0
  5  6  1  0  0  0
  5 28  1  0  0  0
  6 29  1  0  0  0
  8  9  2  0  0  0
  8 21  1  0  0  0
  9 10  1  0  0  0
 10 11  1  0  0  0
 10 30  1  0  0  0
 10 31  1  0  0  0
 11 12  1  0  0  0
 11 15  2  0  0  0
 12 13  1  0  0  0
 13 14  2  0  0  0
 13 32  1  0  0  0
 14 15  1  0  0  0
 15 16  1  0  0  0
 16 17  2  0  0  0
 16 18  1  0  0  0
 18 19  1  0  0  0
 19 20  1  0  0  0
 19 33  1  0  0  0
 19 34  1  0  0  0
 20 35  1  0  0  0
 20 36  1  0  0  0
 20 37  1  0  0  0
 21 22  1  0  0  0
 21 26  2  0  0  0
 22 23  2  0  0  0
 22 38  1  0  0  0
 23 24  1  0  0  0
 23 39  1  0  0  0
 24 25  2  0  0  0
 24 40  1  0  0  0
 25 26  1  0  0  0
 25 41  1  0  0  0
 26 42  1  0  0  0
M  END
>  <Activity>
7.82391

>  <set>
1

>  <Min_dist>
999.9

>  <Avg_dist>
999.9

$$$$
RO15-8867
  Cerius2 12110214493D 1   1.00000                          
 
 33 35  0  0  0  0  0  0  0  0999 V2000
    0.6829    1.8433    0.2974 C   0  0  0  0  0  0
    0.4391    0.5921   -0.2609 C   0  0  0  0  0  0
    1.4818   -0.3412   -0.3390 C   0  0  0  0  0  0
    2.7385   -0.0289    0.1288 C   0  0  0  0  0  0
    2.9800    1.2165    0.6817 C   0  0  0  0  0  0
    1.9639    2.1435    0.7658 C   0  0  0  0  0  0
    3.8302   -1.0247    0.0408 N   0  3  0  0  0  0
    4.9417   -0.7479    0.4548 O   0  0  0  0  0  0
    3.6169   -2.1208   -0.4455 O   0  5  0  0  0  0
   -0.8776    0.1838   -0.7860 C   0  0  0  0  0  0
   -1.6835    0.9712   -1.4782 C   0  0  0  0  0  0
   -1.3172    2.3988   -1.7837 C   0  0  0  0  0  0
   -1.1970    3.1515   -0.4857 C   0  0  0  0  0  0
   -1.9539    4.0732   -0.2648 O   0  0  0  0  0  0
   -0.2830    2.8306    0.4274 N   0  0  0  0  0  0
   -1.3277   -1.2039   -0.5201 C   0  0  0  0  0  0
   -1.0185   -2.2241   -1.4183 C   0  0  0  0  0  0
   -1.4400   -3.5135   -1.1658 C   0  0  0  0  0  0
   -2.1683   -3.7956   -0.0237 C   0  0  0  0  0  0
   -2.4790   -2.7884    0.8714 C   0  0  0  0  0  0
   -2.0572   -1.4946    0.6326 C   0  0  0  0  0  0
   -2.4477   -0.2308    1.7569 Cl  0  0  0  0  0  0
    1.2977   -1.3143   -0.7698 H   0  0  0  0  0  0
    3.9658    1.4620    1.0483 H   0  0  0  0  0  0
    2.1605    3.1134    1.1982 H   0  0  0  0  0  0
   -2.6260    0.5809   -1.8328 H   0  0  0  0  0  0
   -0.3646    2.4270   -2.3126 H   0  0  0  0  0  0
   -2.0941    2.8523   -2.3991 H   0  0  0  0  0  0
   -0.2921    3.3343    1.2563 H   0  0  0  0  0  0
   -0.4504   -2.0056   -2.3104 H   0  0  0  0  0  0
   -1.2011   -4.3044   -1.8614 H   0  0  0  0  0  0
   -2.4958   -4.8065    0.1693 H   0  0  0  0  0  0
   -3.0483   -3.0143    1.7609 H   0  0  0  0  0  0
  1  2  1  0  0  0
  1  6  2  0  0  0
  1 15  1  0  0  0
  2  3  2  0  0  0
  2 10  1  0  0  0
  3  4  1  0  0  0
  3 23  1  0  0  0
  4  5  2  0  0  0
  4  7  1  0  0  0
  5  6  1  0  0  0
  5 24  1  0  0  0
  6 25  1  0  0  0
  7  8  2  0  0  0
  7  9  1  0  0  0
 10 11  2  0  0  0
 10 16  1  0  0  0
 11 12  1  0  0  0
 11 26  1  0  0  0
 12 13  1  0  0  0
 12 27  1  0  0  0
 12 28  1  0  0  0
 13 14  2  0  0  0
 13 15  1  0  0  0
 15 29  1  0  0  0
 16 17  1  0  0  0
 16 21  2  0  0  0
 17 18  2  0  0  0
 17 30  1  0  0  0
 18 19  1  0  0  0
 18 31  1  0  0  0
 19 20  2  0  0  0
 19 32  1  0  0  0
 20 21  1  0  0  0
 20 33  1  0  0  0
 21 22  1  0  0  0
M  CHG  2   7   1   9  -1
M  END
>  <Activity>
7.60206

>  <set>
1

>  <Min_dist>
999.9

>  <Avg_dist>
999.9

$$$$
RO14-0304
  Cerius2 12110214493D 1   1.00000                          
 
 36 39  0  0  0  0  0  0  0  0999 V2000
    1.3170    0.7613    0.0629 C   0  0  0  0  0  0
    0.0066    0.4734    0.4418 C   0  0  0  0  0  0
   -0.9384    1.5092    0.4523 C   0  0  0  0  0  0
   -0.5849    2.7853    0.0724 C   0  0  0  0  0  0
    0.7132    3.0581   -0.3255 C   0  0  0  0  0  0
    1.6573    2.0521   -0.3292 C   0  0  0  0  0  0
   -1.7694    4.0542    0.0919 Cl  0  0  0  0  0  0
   -0.4526   -0.8746    0.8050 C   0  0  0  0  0  0
    0.1830   -1.7686    1.5462 C   0  0  0  0  0  0
    1.5346   -1.4693    2.1498 C   0  0  0  0  0  0
    2.4864   -1.1822    1.0156 C   0  0  0  0  0  0
    2.3299   -0.2016    0.0926 N   0  0  0  0  0  0
    3.3718   -0.3297   -0.7722 C   0  0  0  0  0  0
    4.1116   -1.3145   -0.3337 N   0  0  0  0  0  0
    3.5890   -1.8146    0.7315 N   0  0  0  0  0  0
    3.6249    0.5041   -2.0018 C   0  0  0  0  0  0
   -1.7797   -1.2794    0.2819 C   0  0  0  0  0  0
   -2.9318   -1.0249    1.0241 C   0  0  0  0  0  0
   -4.1642   -1.4038    0.5326 C   0  0  0  0  0  0
   -4.2593   -2.0356   -0.6948 C   0  0  0  0  0  0
   -3.1213   -2.2921   -1.4369 C   0  0  0  0  0  0
   -1.8810   -1.9118   -0.9583 C   0  0  0  0  0  0
   -0.7691   -2.1621   -1.6838 F   0  0  0  0  0  0
   -1.9530    1.3046    0.7608 H   0  0  0  0  0  0
    0.9861    4.0569   -0.6325 H   0  0  0  0  0  0
    2.6689    2.2682   -0.6398 H   0  0  0  0  0  0
   -0.2742   -2.7309    1.7229 H   0  0  0  0  0  0
    1.4638   -0.5992    2.8025 H   0  0  0  0  0  0
    1.8851   -2.3312    2.7177 H   0  0  0  0  0  0
    4.2342    1.3679   -1.7359 H   0  0  0  0  0  0
    4.1496   -0.0955   -2.7457 H   0  0  0  0  0  0
    2.6741    0.8429   -2.4131 H   0  0  0  0  0  0
   -2.8599   -0.5323    1.9824 H   0  0  0  0  0  0
   -5.0570   -1.2070    1.1076 H   0  0  0  0  0  0
   -5.2265   -2.3299   -1.0746 H   0  0  0  0  0  0
   -3.2016   -2.7861   -2.3939 H   0  0  0  0  0  0
  1  2  1  0  0  0
  1  6  2  0  0  0
  1 12  1  0  0  0
  2  3  2  0  0  0
  2  8  1  0  0  0
  3  4  1  0  0  0
  3 24  1  0  0  0
  4  5  2  0  0  0
  4  7  1  0  0  0
  5  6  1  0  0  0
  5 25  1  0  0  0
  6 26  1  0  0  0
  8  9  2  0  0  0
  8 17  1  0  0  0
  9 10  1  0  0  0
  9 27  1  0  0  0
 10 11  1  0  0  0
 10 28  1  0  0  0
 10 29  1  0  0  0
 11 12  1  0  0  0
 11 15  2  0  0  0
 12 13  1  0  0  0
 13 14  2  0  0  0
 13 16  1  0  0  0
 14 15  1  0  0  0
 16 30  1  0  0  0
 16 31  1  0  0  0
 16 32  1  0  0  0
 17 18  1  0  0  0
 17 22  2  0  0  0
 18 19  2  0  0  0
 18 33  1  0  0  0
 19 20  1  0  0  0
 19 34  1  0  0  0
 20 21  2  0  0  0
 20 35  1  0  0  0
 21 22  1  0  0  0
 21 36  1  0  0  0
 22 23  1  0  0  0
M  END
>  <Activity>
8.18709

>  <set>
1

>  <Min_dist>
999.9

>  <Avg_dist>
999.9

$$$$
RO14-5921
  Cerius2 12110214493D 1   1.00000                          
 
 33 36  0  0  0  0  0  0  0  0999 V2000
    1.4097    0.8953   -0.1553 C   0  0  0  0  0  0
    0.1568    0.5179    0.3256 C   0  0  0  0  0  0
   -0.8618    1.4794    0.3897 C   0  0  0  0  0  0
   -0.6364    2.7698   -0.0369 C   0  0  0  0  0  0
    0.6041    3.1307   -0.5356 C   0  0  0  0  0  0
    1.6200    2.1990   -0.5933 C   0  0  0  0  0  0
   -1.9104    3.9458    0.0502 Cl  0  0  0  0  0  0
   -0.1695   -0.8525    0.7447 C   0  0  0  0  0  0
    0.5859   -1.6791    1.4509 C   0  0  0  0  0  0
    1.9511   -1.2653    1.9463 C   0  0  0  0  0  0
    2.7920   -0.9326    0.7393 C   0  0  0  0  0  0
    2.4931    0.0125   -0.1856 N   0  0  0  0  0  0
    3.4753   -0.0559   -1.1239 C   0  0  0  0  0  0
    4.3189   -0.9720   -0.7258 N   0  0  0  0  0  0
    3.9161   -1.4862    0.3838 N   0  0  0  0  0  0
   -1.4963   -1.3679    0.3295 C   0  0  0  0  0  0
   -2.6069   -1.1845    1.1516 C   0  0  0  0  0  0
   -3.8393   -1.6662    0.7603 C   0  0  0  0  0  0
   -3.9755   -2.3306   -0.4457 C   0  0  0  0  0  0
   -2.8788   -2.5171   -1.2668 C   0  0  0  0  0  0
   -1.6396   -2.0337   -0.8889 C   0  0  0  0  0  0
   -0.5682   -2.2155   -1.6915 F   0  0  0  0  0  0
   -1.8322    1.2058    0.7768 H   0  0  0  0  0  0
    0.7760    4.1402   -0.8788 H   0  0  0  0  0  0
    2.5863    2.4839   -0.9825 H   0  0  0  0  0  0
    0.2182   -2.6690    1.6775 H   0  0  0  0  0  0
    1.8618   -0.3887    2.5879 H   0  0  0  0  0  0
    2.4077   -2.0853    2.5006 H   0  0  0  0  0  0
    3.5449    0.5338   -2.0261 H   0  0  0  0  0  0
   -2.5029   -0.6665    2.0935 H   0  0  0  0  0  0
   -4.6998   -1.5246    1.3973 H   0  0  0  0  0  0
   -4.9425   -2.7055   -0.7469 H   0  0  0  0  0  0
   -2.9910   -3.0370   -2.2067 H   0  0  0  0  0  0
  1  2  1  0  0  0
  1  6  2  0  0  0
  1 12  1  0  0  0
  2  3  2  0  0  0
  2  8  1  0  0  0
  3  4  1  0  0  0
  3 23  1  0  0  0
  4  5  2  0  0  0
  4  7  1  0  0  0
  5  6  1  0  0  0
  5 24  1  0  0  0
  6 25  1  0  0  0
  8  9  2  0  0  0
  8 16  1  0  0  0
  9 10  1  0  0  0
  9 26  1  0  0  0
 10 11  1  0  0  0
 10 27  1  0  0  0
 10 28  1  0  0  0
 11 12  1  0  0  0
 11 15  2  0  0  0
 12 13  1  0  0  0
 13 14  2  0  0  0
 13 29  1  0  0  0
 14 15  1  0  0  0
 16 17  1  0  0  0
 16 21  2  0  0  0
 17 18  2  0  0  0
 17 30  1  0  0  0
 18 19  1  0  0  0
 18 31  1  0  0  0
 19 20  2  0  0  0
 19 32  1  0  0  0
 20 21  1  0  0  0
 20 33  1  0  0  0
 21 22  1  0  0  0
M  END
>  <Activity>
7.72125

>  <set>
1

>  <Min_dist>
999.9

>  <Avg_dist>
999.9

$$$$
RO13-9868
  Cerius2 12110214493D 1   1.00000                          
 
 36 39  0  0  0  0  0  0  0  0999 V2000
    1.2601    0.6584    0.0479 C   0  0  0  0  0  0
   -0.0484    0.3077    0.3770 C   0  0  0  0  0  0
   -1.0139    1.3188    0.4843 C   0  0  0  0  0  0
   -0.6817    2.6343    0.2460 C   0  0  0  0  0  0
    0.6152    2.9718   -0.1032 C   0  0  0  0  0  0
    1.5790    1.9896   -0.2012 C   0  0  0  0  0  0
   -1.8915    3.8717    0.3833 Cl  0  0  0  0  0  0
   -0.4848   -1.0795    0.5896 C   0  0  0  0  0  0
    0.1601   -2.0348    1.2404 C   0  0  0  0  0  0
    1.4987   -1.7762    1.8901 C   0  0  0  0  0  0
    2.4572   -1.3530    0.8053 C   0  0  0  0  0  0
    2.2915   -0.2832   -0.0109 N   0  0  0  0  0  0
    3.3454   -0.2997   -0.8707 C   0  0  0  0  0  0
    4.0996   -1.3115   -0.5289 N   0  0  0  0  0  0
    3.5752   -1.9312    0.4705 N   0  0  0  0  0  0
    3.5956    0.6641   -2.0018 C   0  0  0  0  0  0
   -1.7978   -1.4513    0.0091 C   0  0  0  0  0  0
   -2.8257   -1.9022    0.8356 C   0  0  0  0  0  0
   -4.0457   -2.2463    0.2899 C   0  0  0  0  0  0
   -4.2493   -2.1450   -1.0746 C   0  0  0  0  0  0
   -3.2329   -1.6982   -1.8997 C   0  0  0  0  0  0
   -2.0106   -1.3458   -1.3644 C   0  0  0  0  0  0
   -2.0276    1.0639    0.7561 H   0  0  0  0  0  0
    0.8717    4.0025   -0.2990 H   0  0  0  0  0  0
    2.5895    2.2561   -0.4738 H   0  0  0  0  0  0
   -0.2799   -3.0188    1.3085 H   0  0  0  0  0  0
    1.4033   -0.9815    2.6301 H   0  0  0  0  0  0
    1.8598   -2.6867    2.3683 H   0  0  0  0  0  0
    4.1846    1.5061   -1.6381 H   0  0  0  0  0  0
    4.1403    0.1565   -2.7979 H   0  0  0  0  0  0
    2.6428    1.0269   -2.3875 H   0  0  0  0  0  0
   -2.6676   -1.9823    1.9009 H   0  0  0  0  0  0
   -4.8428   -2.5957    0.9293 H   0  0  0  0  0  0
   -5.2054   -2.4161   -1.4974 H   0  0  0  0  0  0
   -3.3973   -1.6214   -2.9643 H   0  0  0  0  0  0
   -1.2178   -0.9968   -2.0095 H   0  0  0  0  0  0
  1  2  1  0  0  0
  1  6  2  0  0  0
  1 12  1  0  0  0
  2  3  2  0  0  0
  2  8  1  0  0  0
  3  4  1  0  0  0
  3 23  1  0  0  0
  4  5  2  0  0  0
  4  7  1  0  0  0
  5  6  1  0  0  0
  5 24  1  0  0  0
  6 25  1  0  0  0
  8  9  2  0  0  0
  8 17  1  0  0  0
  9 10  1  0  0  0
  9 26  1  0  0  0
 10 11  1  0  0  0
 10 27  1  0  0  0
 10 28  1  0  0  0
 11 12  1  0  0  0
 11 15  2  0  0  0
 12 13  1  0  0  0
 13 14  2  0  0  0
 13 16  1  0  0  0
 14 15  1  0  0  0
 16 29  1  0  0  0
 16 30  1  0  0  0
 16 31  1  0  0  0
 17 18  1  0  0  0
 17 22  2  0  0  0
 18 19  2  0  0  0
 18 32  1  0  0  0
 19 20  1  0  0  0
 19 33  1  0  0  0
 20 21  2  0  0  0
 20 34  1  0  0  0
 21 22  1  0  0  0
 21 35  1  0  0  0
 22 36  1  0  0  0
M  END
>  <Activity>
7.37675

>  <set>
1

>  <Min_dist>
999.9

>  <Avg_dist>
999.9

$$$$
RO11-8125
  Cerius2 12110214493D 1   1.00000                          
 
 27 29  0  0  0  0  0  0  0  0999 V2000
    2.2620    0.3621   -0.1647 C   0  0  0  0  0  0
    0.9584    0.6529    0.2200 C   0  0  0  0  0  0
    0.7887    1.9274    0.9010 C   0  0  0  0  0  0
    1.8593    2.7070    1.1158 C   0  0  0  0  0  0
    3.1935    1.7656    0.4011 S   0  0  0  0  0  0
   -0.1733   -0.2731   -0.0280 C   0  0  0  0  0  0
   -0.0458   -1.5588    0.0208 N   0  0  0  0  0  0
    1.1968   -2.2152    0.4088 C   0  0  0  0  0  0
    2.2739   -1.9690   -0.6071 C   0  0  0  0  0  0
    2.7268   -2.9046   -1.2322 O   0  0  0  0  0  0
    2.7454   -0.7340   -0.8372 N   0  0  0  0  0  0
   -1.5034    0.2981   -0.3438 C   0  0  0  0  0  0
   -1.6076    1.4094   -1.1800 C   0  0  0  0  0  0
   -2.8487    1.9370   -1.4705 C   0  0  0  0  0  0
   -3.9897    1.3665   -0.9340 C   0  0  0  0  0  0
   -3.8942    0.2646   -0.1042 C   0  0  0  0  0  0
   -2.6575   -0.2770    0.1895 C   0  0  0  0  0  0
   -2.5387   -1.6604    1.2315 Cl  0  0  0  0  0  0
   -0.1902    2.2433    1.2301 H   0  0  0  0  0  0
    1.9022    3.6701    1.6026 H   0  0  0  0  0  0
    1.5202   -1.8275    1.3748 H   0  0  0  0  0  0
    1.0235   -3.2880    0.4942 H   0  0  0  0  0  0
    3.4463   -0.6118   -1.4965 H   0  0  0  0  0  0
   -0.7182    1.8564   -1.5991 H   0  0  0  0  0  0
   -2.9301    2.7975   -2.1180 H   0  0  0  0  0  0
   -4.9588    1.7840   -1.1641 H   0  0  0  0  0  0
   -4.7883   -0.1762    0.3115 H   0  0  0  0  0  0
  1  2  2  0  0  0
  1  5  1  0  0  0
  1 11  1  0  0  0
  2  3  1  0  0  0
  2  6  1  0  0  0
  3  4  2  0  0  0
  3 19  1  0  0  0
  4  5  1  0  0  0
  4 20  1  0  0  0
  6  7  2  0  0  0
  6 12  1  0  0  0
  7  8  1  0  0  0
  8  9  1  0  0  0
  8 21  1  0  0  0
  8 22  1  0  0  0
  9 10  2  0  0  0
  9 11  1  0  0  0
 11 23  1  0  0  0
 12 13  1  0  0  0
 12 17  2  0  0  0
 13 14  2  0  0  0
 13 24  1  0  0  0
 14 15  1  0  0  0
 14 25  1  0  0  0
 15 16  2  0  0  0
 15 26  1  0  0  0
 16 17  1  0  0  0
 16 27  1  0  0  0
 17 18  1  0  0  0
M  END
>  <Activity>
7.4318

>  <set>
1

>  <Min_dist>
999.9

>  <Avg_dist>
999.9

$$$$
RO08-6739
  Cerius2 12110214493D 1   1.00000                          
 
 27 29  0  0  0  0  0  0  0  0999 V2000
    1.4234   -0.9727   -0.3753 C   0  0  0  0  0  0
    0.3825   -0.1811    0.0949 C   0  0  0  0  0  0
    0.7402    1.2017    0.3752 C   0  0  0  0  0  0
    2.0051    1.6071    0.1796 C   0  0  0  0  0  0
    2.8147    0.1322   -0.4086 S   0  0  0  0  0  0
    2.6858    3.1833    0.4363 Cl  0  0  0  0  0  0
   -0.9865   -0.7079    0.3124 C   0  0  0  0  0  0
   -1.2129   -1.9109    0.7283 N   0  0  0  0  0  0
   -0.1461   -2.8303    1.1053 C   0  0  0  0  0  0
    0.6830   -3.2085   -0.0874 C   0  0  0  0  0  0
    0.6963   -4.3625   -0.4607 O   0  0  0  0  0  0
    1.4092   -2.2950   -0.7488 N   0  0  0  0  0  0
   -2.1416    0.1806    0.0426 C   0  0  0  0  0  0
   -3.3739   -0.0714    0.6444 C   0  0  0  0  0  0
   -4.4458    0.7594    0.3893 C   0  0  0  0  0  0
   -4.2997    1.8401   -0.4618 C   0  0  0  0  0  0
   -3.0797    2.0948   -1.0621 C   0  0  0  0  0  0
   -1.9988    1.2750   -0.8095 C   0  0  0  0  0  0
   -0.0048    1.8950    0.7367 H   0  0  0  0  0  0
    0.4924   -2.3527    1.8484 H   0  0  0  0  0  0
   -0.5846   -3.7303    1.5364 H   0  0  0  0  0  0
    1.9385   -2.5754   -1.5118 H   0  0  0  0  0  0
   -3.4893   -0.9152    1.3085 H   0  0  0  0  0  0
   -5.4008    0.5652    0.8548 H   0  0  0  0  0  0
   -5.1416    2.4873   -0.6587 H   0  0  0  0  0  0
   -2.9716    2.9398   -1.7260 H   0  0  0  0  0  0
   -1.0467    1.4750   -1.2784 H   0  0  0  0  0  0
  1  2  2  0  0  0
  1  5  1  0  0  0
  1 12  1  0  0  0
  2  3  1  0  0  0
  2  7  1  0  0  0
  3  4  2  0  0  0
  3 19  1  0  0  0
  4  5  1  0  0  0
  4  6  1  0  0  0
  7  8  2  0  0  0
  7 13  1  0  0  0
  8  9  1  0  0  0
  9 10  1  0  0  0
  9 20  1  0  0  0
  9 21  1  0  0  0
 10 11  2  0  0  0
 10 12  1  0  0  0
 12 22  1  0  0  0
 13 14  1  0  0  0
 13 18  2  0  0  0
 14 15  2  0  0  0
 14 23  1  0  0  0
 15 16  1  0  0  0
 15 24  1  0  0  0
 16 17  2  0  0  0
 16 25  1  0  0  0
 17 18  1  0  0  0
 17 26  1  0  0  0
 18 27  1  0  0  0
M  END
>  <Activity>
7.1549

>  <set>
1

>  <Min_dist>
999.9

>  <Avg_dist>
999.9

$$$$
RO15-0791
  Cerius2 12110214493D 1   1.00000                          
 
 43 46  0  0  0  0  0  0  0  0999 V2000
   -0.7275    1.8706   -0.0188 C   0  0  0  0  0  0
   -1.7507    1.0195    0.3930 C   0  0  0  0  0  0
   -3.0020    1.5689    0.7090 C   0  0  0  0  0  0
   -3.2228    2.9226    0.5931 C   0  0  0  0  0  0
   -2.2083    3.7586    0.1610 C   0  0  0  0  0  0
   -0.9682    3.2356   -0.1426 C   0  0  0  0  0  0
   -1.6040   -0.4399    0.4882 C   0  0  0  0  0  0
   -0.5672   -1.1127    0.9621 C   0  0  0  0  0  0
    0.6486   -0.3978    1.5023 C   0  0  0  0  0  0
    1.2226    0.4331    0.3832 C   0  0  0  0  0  0
    0.5671    1.4114   -0.2878 N   0  0  0  0  0  0
    1.4092    1.8828   -1.2487 C   0  0  0  0  0  0
    2.5477    1.2566   -1.1563 N   0  0  0  0  0  0
    2.4739    0.3479   -0.1467 C   0  0  0  0  0  0
    3.5476   -0.5576    0.2920 C   0  0  0  0  0  0
    3.3550   -1.3277    1.2125 O   0  0  0  0  0  0
    4.7448   -0.5332   -0.3270 O   0  0  0  0  0  0
    5.8043   -1.4267    0.1059 C   0  0  0  0  0  0
    7.0481   -1.1979   -0.7552 C   0  0  0  0  0  0
   -2.7460   -1.2496   -0.0013 C   0  0  0  0  0  0
   -3.4107   -2.1167    0.8642 C   0  0  0  0  0  0
   -4.4727   -2.8677    0.4032 C   0  0  0  0  0  0
   -4.8777   -2.7615   -0.9152 C   0  0  0  0  0  0
   -4.2218   -1.9026   -1.7787 C   0  0  0  0  0  0
   -3.1624   -1.1421   -1.3272 C   0  0  0  0  0  0
   -3.7998    0.9238    1.0461 H   0  0  0  0  0  0
   -4.1907    3.3334    0.8397 H   0  0  0  0  0  0
   -2.3870    4.8191    0.0616 H   0  0  0  0  0  0
   -0.1783    3.8906   -0.4796 H   0  0  0  0  0  0
   -0.5912   -2.1924    0.9628 H   0  0  0  0  0  0
    0.3600    0.2478    2.3318 H   0  0  0  0  0  0
    1.3868   -1.1258    1.8386 H   0  0  0  0  0  0
    1.1717    2.6508   -1.9699 H   0  0  0  0  0  0
    6.0437   -1.2272    1.1504 H   0  0  0  0  0  0
    5.4740   -2.4601   -0.0001 H   0  0  0  0  0  0
    7.8434   -1.8687   -0.4302 H   0  0  0  0  0  0
    6.8086   -1.3974   -1.7997 H   0  0  0  0  0  0
    7.3783   -0.1645   -0.6491 H   0  0  0  0  0  0
   -3.0949   -2.2010    1.8936 H   0  0  0  0  0  0
   -4.9885   -3.5400    1.0729 H   0  0  0  0  0  0
   -5.7089   -3.3517   -1.2719 H   0  0  0  0  0  0
   -4.5423   -1.8237   -2.8071 H   0  0  0  0  0  0
   -2.6513   -0.4715   -2.0021 H   0  0  0  0  0  0
  1  2  1  0  0  0
  1  6  2  0  0  0
  1 11  1  0  0  0
  2  3  2  0  0  0
  2  7  1  0  0  0
  3  4  1  0  0  0
  3 26  1  0  0  0
  4  5  2  0  0  0
  4 27  1  0  0  0
  5  6  1  0  0  0
  5 28  1  0  0  0
  6 29  1  0  0  0
  7  8  2  0  0  0
  7 20  1  0  0  0
  8  9  1  0  0  0
  8 30  1  0  0  0
  9 10  1  0  0  0
  9 31  1  0  0  0
  9 32  1  0  0  0
 10 11  1  0  0  0
 10 14  2  0  0  0
 11 12  1  0  0  0
 12 13  2  0  0  0
 12 33  1  0  0  0
 13 14  1  0  0  0
 14 15  1  0  0  0
 15 16  2  0  0  0
 15 17  1  0  0  0
 17 18  1  0  0  0
 18 19  1  0  0  0
 18 34  1  0  0  0
 18 35  1  0  0  0
 19 36  1  0  0  0
 19 37  1  0  0  0
 19 38  1  0  0  0
 20 21  1  0  0  0
 20 25  2  0  0  0
 21 22  2  0  0  0
 21 39  1  0  0  0
 22 23  1  0  0  0
 22 40  1  0  0  0
 23 24  2  0  0  0
 23 41  1  0  0  0
 24 25  1  0  0  0
 24 42  1  0  0  0
 25 43  1  0  0  0
M  END
>  <Activity>
8.60206

>  <set>
1

>  <Min_dist>
999.9

>  <Avg_dist>
999.9

$$$$
RO15-2200
  Cerius2 12110214493D 1   1.00000                          
 
 43 46  0  0  0  0  0  0  0  0999 V2000
   -0.6069    1.9470   -0.0963 C   0  0  0  0  0  0
   -1.6363    1.1574    0.4117 C   0  0  0  0  0  0
   -2.8761    1.7545    0.6835 C   0  0  0  0  0  0
   -3.0803    3.0922    0.4316 C   0  0  0  0  0  0
   -2.0601    3.8648   -0.0949 C   0  0  0  0  0  0
   -0.8309    3.2955   -0.3566 C   0  0  0  0  0  0
   -1.5080   -0.2866    0.6542 C   0  0  0  0  0  0
   -0.4743   -0.9225    1.1831 C   0  0  0  0  0  0
    0.7578   -0.1739    1.6334 C   0  0  0  0  0  0
    1.3283    0.5298    0.4286 C   0  0  0  0  0  0
    0.6780    1.4439   -0.3311 N   0  0  0  0  0  0
    1.5138    1.8019   -1.3449 C   0  0  0  0  0  0
    2.6446    1.1714   -1.2021 N   0  0  0  0  0  0
    2.5714    0.3725   -0.1042 C   0  0  0  0  0  0
    3.6380   -0.4998    0.4126 C   0  0  0  0  0  0
    3.4467   -1.1683    1.4095 O   0  0  0  0  0  0
    4.8271   -0.5574   -0.2196 O   0  0  0  0  0  0
    5.8795   -1.4181    0.2903 C   0  0  0  0  0  0
    7.1149   -1.2979   -0.6043 C   0  0  0  0  0  0
   -2.6665   -1.1252    0.2628 C   0  0  0  0  0  0
   -3.6876   -1.3786    1.1772 C   0  0  0  0  0  0
   -4.7637   -2.1593    0.8076 C   0  0  0  0  0  0
   -4.8315   -2.6914   -0.4679 C   0  0  0  0  0  0
   -3.8228   -2.4448   -1.3807 C   0  0  0  0  0  0
   -2.7420   -1.6594   -1.0245 C   0  0  0  0  0  0
   -1.7565   -1.4185   -1.9166 F   0  0  0  0  0  0
   -3.6781    1.1589    1.0940 H   0  0  0  0  0  0
   -4.0396    3.5400    0.6452 H   0  0  0  0  0  0
   -2.2260    4.9119   -0.3007 H   0  0  0  0  0  0
   -0.0366    3.9010   -0.7676 H   0  0  0  0  0  0
   -0.5128   -1.9960    1.2949 H   0  0  0  0  0  0
    0.4885    0.5572    2.3956 H   0  0  0  0  0  0
    1.4905   -0.8744    2.0340 H   0  0  0  0  0  0
    1.2773    2.4953   -2.1384 H   0  0  0  0  0  0
    6.1355   -1.1162    1.3059 H   0  0  0  0  0  0
    5.5333   -2.4516    0.2948 H   0  0  0  0  0  0
    7.9049   -1.9440   -0.2215 H   0  0  0  0  0  0
    6.8588   -1.5997   -1.6199 H   0  0  0  0  0  0
    7.4610   -0.2643   -0.6088 H   0  0  0  0  0  0
   -3.6364   -0.9649    2.1735 H   0  0  0  0  0  0
   -5.5550   -2.3557    1.5159 H   0  0  0  0  0  0
   -5.6758   -3.3023   -0.7514 H   0  0  0  0  0  0
   -3.8810   -2.8631   -2.3747 H   0  0  0  0  0  0
  1  2  1  0  0  0
  1  6  2  0  0  0
  1 11  1  0  0  0
  2  3  2  0  0  0
  2  7  1  0  0  0
  3  4  1  0  0  0
  3 27  1  0  0  0
  4  5  2  0  0  0
  4 28  1  0  0  0
  5  6  1  0  0  0
  5 29  1  0  0  0
  6 30  1  0  0  0
  7  8  2  0  0  0
  7 20  1  0  0  0
  8  9  1  0  0  0
  8 31  1  0  0  0
  9 10  1  0  0  0
  9 32  1  0  0  0
  9 33  1  0  0  0
 10 11  1  0  0  0
 10 14  2  0  0  0
 11 12  1  0  0  0
 12 13  2  0  0  0
 12 34  1  0  0  0
 13 14  1  0  0  0
 14 15  1  0  0  0
 15 16  2  0  0  0
 15 17  1  0  0  0
 17 18  1  0  0  0
 18 19  1  0  0  0
 18 35  1  0  0  0
 18 36  1  0  0  0
 19 37  1  0  0  0
 19 38  1  0  0  0
 19 39  1  0  0  0
 20 21  1  0  0  0
 20 25  2  0  0  0
 21 22  2  0  0  0
 21 40  1  0  0  0
 22 23  1  0  0  0
 22 41  1  0  0  0
 23 24  2  0  0  0
 23 42  1  0  0  0
 24 25  1  0  0  0
 24 43  1  0  0  0
 25 26  1  0  0  0
M  END
>  <Activity>
8.37675

>  <set>
1

>  <Min_dist>
999.9

>  <Avg_dist>
999.9

$$$$
RO15-3929
  Cerius2 12110214493D 1   1.00000                          
 
 43 46  0  0  0  0  0  0  0  0999 V2000
    0.4742    1.5279    0.2752 C   0  0  0  0  0  0
    1.3569    0.5952   -0.2650 C   0  0  0  0  0  0
    2.6925    0.9692   -0.4743 C   0  0  0  0  0  0
    3.1302    2.2293   -0.1306 C   0  0  0  0  0  0
    2.2515    3.1430    0.4271 C   0  0  0  0  0  0
    0.9321    2.7937    0.6282 C   0  0  0  0  0  0
    4.7873    2.6730   -0.3968 Cl  0  0  0  0  0  0
    0.9746   -0.7828   -0.6046 C   0  0  0  0  0  0
   -0.1412   -1.1838   -1.1935 C   0  0  0  0  0  0
   -1.2019   -0.1951   -1.6158 C   0  0  0  0  0  0
   -1.6709    0.5256   -0.3777 C   0  0  0  0  0  0
   -0.8877    1.2562    0.4527 N   0  0  0  0  0  0
   -1.6742    1.6985    1.4725 C   0  0  0  0  0  0
   -2.8963    1.2966    1.2678 N   0  0  0  0  0  0
   -2.9374    0.5670    0.1204 C   0  0  0  0  0  0
   -4.1293   -0.0606   -0.4721 C   0  0  0  0  0  0
   -4.0335   -0.6900   -1.5075 O   0  0  0  0  0  0
   -5.3272    0.0625    0.1335 O   0  0  0  0  0  0
   -6.5033   -0.5567   -0.4511 C   0  0  0  0  0  0
   -7.7221   -0.2669    0.4271 C   0  0  0  0  0  0
    1.9481   -1.8428   -0.2479 C   0  0  0  0  0  0
    2.9331   -2.2233   -1.1578 C   0  0  0  0  0  0
    3.8365   -3.2103   -0.8207 C   0  0  0  0  0  0
    3.7669   -3.8235    0.4177 C   0  0  0  0  0  0
    2.7928   -3.4520    1.3259 C   0  0  0  0  0  0
    1.8855   -2.4599    1.0025 C   0  0  0  0  0  0
    0.9338   -2.0969    1.8901 F   0  0  0  0  0  0
    3.3842    0.2626   -0.9085 H   0  0  0  0  0  0
    2.5987    4.1273    0.7045 H   0  0  0  0  0  0
    0.2491    3.5084    1.0630 H   0  0  0  0  0  0
   -0.2956   -2.2371   -1.3756 H   0  0  0  0  0  0
   -0.7808    0.5198   -2.3228 H   0  0  0  0  0  0
   -2.0375   -0.7228   -2.0756 H   0  0  0  0  0  0
   -1.3393    2.2865    2.3143 H   0  0  0  0  0  0
   -6.6697   -0.1507   -1.4489 H   0  0  0  0  0  0
   -6.3514   -1.6340   -0.5179 H   0  0  0  0  0  0
   -8.6050   -0.7318   -0.0117 H   0  0  0  0  0  0
   -7.5557   -0.6729    1.4249 H   0  0  0  0  0  0
   -7.8740    0.8104    0.4939 H   0  0  0  0  0  0
    2.9890   -1.7465   -2.1252 H   0  0  0  0  0  0
    4.5998   -3.5052   -1.5255 H   0  0  0  0  0  0
    4.4762   -4.5960    0.6759 H   0  0  0  0  0  0
    2.7434   -3.9342    2.2910 H   0  0  0  0  0  0
  1  2  1  0  0  0
  1  6  2  0  0  0
  1 12  1  0  0  0
  2  3  2  0  0  0
  2  8  1  0  0  0
  3  4  1  0  0  0
  3 28  1  0  0  0
  4  5  2  0  0  0
  4  7  1  0  0  0
  5  6  1  0  0  0
  5 29  1  0  0  0
  6 30  1  0  0  0
  8  9  2  0  0  0
  8 21  1  0  0  0
  9 10  1  0  0  0
  9 31  1  0  0  0
 10 11  1  0  0  0
 10 32  1  0  0  0
 10 33  1  0  0  0
 11 12  1  0  0  0
 11 15  2  0  0  0
 12 13  1  0  0  0
 13 14  2  0  0  0
 13 34  1  0  0  0
 14 15  1  0  0  0
 15 16  1  0  0  0
 16 17  2  0  0  0
 16 18  1  0  0  0
 18 19  1  0  0  0
 19 20  1  0  0  0
 19 35  1  0  0  0
 19 36  1  0  0  0
 20 37  1  0  0  0
 20 38  1  0  0  0
 20 39  1  0  0  0
 21 22  1  0  0  0
 21 26  2  0  0  0
 22 23  2  0  0  0
 22 40  1  0  0  0
 23 24  1  0  0  0
 23 41  1  0  0  0
 24 25  2  0  0  0
 24 42  1  0  0  0
 25 26  1  0  0  0
 25 43  1  0  0  0
 26 27  1  0  0  0
M  END
>  <Activity>
7.79588

>  <set>
1

>  <Min_dist>
999.9

>  <Avg_dist>
999.9

$$$$
RO22-3245
  Cerius2 12110214493D 1   1.00000                          
 
 34 37  0  0  0  0  0  0  0  0999 V2000
    1.5960    0.8955   -0.0082 C   0  0  0  0  0  0
    0.2302    0.6762    0.1795 C   0  0  0  0  0  0
   -0.6199    1.7760    0.3616 C   0  0  0  0  0  0
   -0.1178    3.0597    0.3528 C   0  0  0  0  0  0
    1.2378    3.2750    0.1636 C   0  0  0  0  0  0
    2.0882    2.2061   -0.0147 C   0  0  0  0  0  0
   -1.1862    4.4093    0.5785 Cl  0  0  0  0  0  0
   -0.3801   -0.6623    0.1950 C   0  0  0  0  0  0
    0.1175   -1.7028    0.7587 N   0  0  0  0  0  0
    1.3945   -1.6777    1.4640 C   0  0  0  0  0  0
    2.4994   -1.3966    0.4866 C   0  0  0  0  0  0
    2.5748   -0.1971   -0.1985 C   0  0  0  0  0  0
    3.5744   -0.0162   -1.0691 N   0  0  0  0  0  0
    4.4744   -0.9558   -1.2614 C   0  0  0  0  0  0
    4.4339   -2.1041   -0.6146 N   0  0  0  0  0  0
    3.4727   -2.3575    0.2609 C   0  0  0  0  0  0
   -1.6789   -0.8230   -0.4981 C   0  0  0  0  0  0
   -1.9068   -0.1822   -1.7162 C   0  0  0  0  0  0
   -3.1184   -0.3361   -2.3573 C   0  0  0  0  0  0
   -4.1078   -1.1237   -1.7949 C   0  0  0  0  0  0
   -3.8893   -1.7619   -0.5879 C   0  0  0  0  0  0
   -2.6782   -1.6208    0.0617 C   0  0  0  0  0  0
   -2.4049   -2.4224    1.5771 Cl  0  0  0  0  0  0
   -1.6777    1.6160    0.5098 H   0  0  0  0  0  0
    1.6282    4.2820    0.1563 H   0  0  0  0  0  0
    3.1438    2.3806   -0.1614 H   0  0  0  0  0  0
    1.3745   -0.8970    2.2244 H   0  0  0  0  0  0
    1.5664   -2.6436    1.9390 H   0  0  0  0  0  0
    5.2702   -0.7817   -1.9704 H   0  0  0  0  0  0
    3.4446   -3.3008    0.7860 H   0  0  0  0  0  0
   -1.1362    0.4333   -2.1563 H   0  0  0  0  0  0
   -3.2956    0.1597   -3.3003 H   0  0  0  0  0  0
   -5.0548   -1.2400   -2.3009 H   0  0  0  0  0  0
   -4.6655   -2.3749   -0.1540 H   0  0  0  0  0  0
  1  2  1  0  0  0
  1  6  2  0  0  0
  1 12  1  0  0  0
  2  3  2  0  0  0
  2  8  1  0  0  0
  3  4  1  0  0  0
  3 24  1  0  0  0
  4  5  2  0  0  0
  4  7  1  0  0  0
  5  6  1  0  0  0
  5 25  1  0  0  0
  6 26  1  0  0  0
  8  9  2  0  0  0
  8 17  1  0  0  0
  9 10  1  0  0  0
 10 11  1  0  0  0
 10 27  1  0  0  0
 10 28  1  0  0  0
 11 12  2  0  0  0
 11 16  1  0  0  0
 12 13  1  0  0  0
 13 14  2  0  0  0
 14 15  1  0  0  0
 14 29  1  0  0  0
 15 16  2  0  0  0
 16 30  1  0  0  0
 17 18  1  0  0  0
 17 22  2  0  0  0
 18 19  2  0  0  0
 18 31  1  0  0  0
 19 20  1  0  0  0
 19 32  1  0  0  0
 20 21  2  0  0  0
 20 33  1  0  0  0
 21 22  1  0  0  0
 21 34  1  0  0  0
 22 23  1  0  0  0
M  END
>  <Activity>
8.55284

>  <set>
1

>  <Min_dist>
999.9

>  <Avg_dist>
999.9

$$$$
RO22-1366
  Cerius2 12110214493D 1   1.00000                          
 
 37 40  0  0  0  0  0  0  0  0999 V2000
    1.0801    1.0165    0.1518 C   0  0  0  0  0  0
   -0.2345    0.5758    0.3138 C   0  0  0  0  0  0
   -1.2699    1.5193    0.3685 C   0  0  0  0  0  0
   -0.9977    2.8663    0.2611 C   0  0  0  0  0  0
    0.3076    3.3013    0.0976 C   0  0  0  0  0  0
    1.3377    2.3884    0.0434 C   0  0  0  0  0  0
   -2.2931    4.0200    0.3301 Cl  0  0  0  0  0  0
   -0.6039   -0.8436    0.4298 C   0  0  0  0  0  0
    0.0390   -1.7296    1.1008 N   0  0  0  0  0  0
    1.2572   -1.4209    1.8422 C   0  0  0  0  0  0
    2.3421   -1.0309    0.8798 C   0  0  0  0  0  0
    2.2413    0.1021    0.0924 C   0  0  0  0  0  0
    3.2351    0.3843   -0.7576 N   0  0  0  0  0  0
    4.2926   -0.3940   -0.8349 C   0  0  0  0  0  0
    4.4204   -1.4741   -0.0895 N   0  0  0  0  0  0
    3.4767   -1.8201    0.7732 C   0  0  0  0  0  0
    5.3906   -0.0409   -1.8048 C   0  0  0  0  0  0
   -1.8202   -1.2879   -0.2877 C   0  0  0  0  0  0
   -2.0974   -0.8007   -1.5654 C   0  0  0  0  0  0
   -3.2320   -1.2182   -2.2288 C   0  0  0  0  0  0
   -4.0965   -2.1190   -1.6309 C   0  0  0  0  0  0
   -3.8300   -2.6069   -0.3654 C   0  0  0  0  0  0
   -2.6928   -2.2012    0.3092 C   0  0  0  0  0  0
   -2.4324   -2.6781    1.5461 F   0  0  0  0  0  0
   -2.2898    1.1878    0.4955 H   0  0  0  0  0  0
    0.5177    4.3573    0.0128 H   0  0  0  0  0  0
    2.3530    2.7339   -0.0835 H   0  0  0  0  0  0
    1.0659   -0.5958    2.5282 H   0  0  0  0  0  0
    1.5709   -2.2985    2.4074 H   0  0  0  0  0  0
    3.5873   -2.7068    1.3798 H   0  0  0  0  0  0
    6.1191    0.6019   -1.3106 H   0  0  0  0  0  0
    5.8821   -0.9525   -2.1448 H   0  0  0  0  0  0
    4.9650    0.4832   -2.6605 H   0  0  0  0  0  0
   -1.4247   -0.0976   -2.0340 H   0  0  0  0  0  0
   -3.4470   -0.8410   -3.2177 H   0  0  0  0  0  0
   -4.9837   -2.4418   -2.1555 H   0  0  0  0  0  0
   -4.5087   -3.3091    0.0957 H   0  0  0  0  0  0
  1  2  1  0  0  0
  1  6  2  0  0  0
  1 12  1  0  0  0
  2  3  2  0  0  0
  2  8  1  0  0  0
  3  4  1  0  0  0
  3 25  1  0  0  0
  4  5  2  0  0  0
  4  7  1  0  0  0
  5  6  1  0  0  0
  5 26  1  0  0  0
  6 27  1  0  0  0
  8  9  2  0  0  0
  8 18  1  0  0  0
  9 10  1  0  0  0
 10 11  1  0  0  0
 10 28  1  0  0  0
 10 29  1  0  0  0
 11 12  2  0  0  0
 11 16  1  0  0  0
 12 13  1  0  0  0
 13 14  2  0  0  0
 14 15  1  0  0  0
 14 17  1  0  0  0
 15 16  2  0  0  0
 16 30  1  0  0  0
 17 31  1  0  0  0
 17 32  1  0  0  0
 17 33  1  0  0  0
 18 19  1  0  0  0
 18 23  2  0  0  0
 19 20  2  0  0  0
 19 34  1  0  0  0
 20 21  1  0  0  0
 20 35  1  0  0  0
 21 22  2  0  0  0
 21 36  1  0  0  0
 22 23  1  0  0  0
 22 37  1  0  0  0
 23 24  1  0  0  0
M  END
>  <Activity>
8.39794

>  <set>
1

>  <Min_dist>
999.9

>  <Avg_dist>
999.9

$$$$
RO22-1251
  Cerius2 12110214493D 1   1.00000                          
 
 37 40  0  0  0  0  0  0  0  0999 V2000
    0.8370    0.9887    0.1339 C   0  0  0  0  0  0
   -0.4066    0.4065    0.3853 C   0  0  0  0  0  0
   -1.5482    1.2196    0.4162 C   0  0  0  0  0  0
   -1.4487    2.5770    0.1983 C   0  0  0  0  0  0
   -0.2136    3.1523   -0.0536 C   0  0  0  0  0  0
    0.9191    2.3689   -0.0858 C   0  0  0  0  0  0
   -2.8736    3.5677    0.2389 Cl  0  0  0  0  0  0
   -0.5933   -1.0336    0.6207 C   0  0  0  0  0  0
    0.1765   -1.7804    1.3256 N   0  0  0  0  0  0
    1.3720   -1.2703    1.9885 C   0  0  0  0  0  0
    2.3667   -0.8285    0.9538 C   0  0  0  0  0  0
    2.0997    0.2193    0.0907 C   0  0  0  0  0  0
    3.0212    0.5523   -0.8201 N   0  0  0  0  0  0
    4.1634   -0.0963   -0.8864 C   0  0  0  0  0  0
    4.4495   -1.0915   -0.0700 N   0  0  0  0  0  0
    3.5858   -1.4810    0.8557 C   0  0  0  0  0  0
    5.1753    0.3096   -1.9267 C   0  0  0  0  0  0
   -1.7701   -1.6763   -0.0089 C   0  0  0  0  0  0
   -2.2994   -2.8489    0.5299 C   0  0  0  0  0  0
   -3.3957   -3.4429   -0.0611 C   0  0  0  0  0  0
   -3.9697   -2.8777   -1.1859 C   0  0  0  0  0  0
   -3.4493   -1.7147   -1.7250 C   0  0  0  0  0  0
   -2.3569   -1.1082   -1.1396 C   0  0  0  0  0  0
   -2.5144    0.7784    0.6121 H   0  0  0  0  0  0
   -0.1388    4.2160   -0.2249 H   0  0  0  0  0  0
    1.8789    2.8235   -0.2822 H   0  0  0  0  0  0
    1.1041   -0.4233    2.6202 H   0  0  0  0  0  0
    1.8110   -2.0570    2.6022 H   0  0  0  0  0  0
    3.8260   -2.2978    1.5201 H   0  0  0  0  0  0
    5.8353    1.0724   -1.5135 H   0  0  0  0  0  0
    5.7636   -0.5598   -2.2201 H   0  0  0  0  0  0
    4.6588    0.7100   -2.7991 H   0  0  0  0  0  0
   -1.8519   -3.2912    1.4077 H   0  0  0  0  0  0
   -3.8062   -4.3510    0.3550 H   0  0  0  0  0  0
   -4.8275   -3.3465   -1.6451 H   0  0  0  0  0  0
   -3.9015   -1.2784   -2.6033 H   0  0  0  0  0  0
   -1.9516   -0.2002   -1.5611 H   0  0  0  0  0  0
  1  2  1  0  0  0
  1  6  2  0  0  0
  1 12  1  0  0  0
  2  3  2  0  0  0
  2  8  1  0  0  0
  3  4  1  0  0  0
  3 24  1  0  0  0
  4  5  2  0  0  0
  4  7  1  0  0  0
  5  6  1  0  0  0
  5 25  1  0  0  0
  6 26  1  0  0  0
  8  9  2  0  0  0
  8 18  1  0  0  0
  9 10  1  0  0  0
 10 11  1  0  0  0
 10 27  1  0  0  0
 10 28  1  0  0  0
 11 12  2  0  0  0
 11 16  1  0  0  0
 12 13  1  0  0  0
 13 14  2  0  0  0
 14 15  1  0  0  0
 14 17  1  0  0  0
 15 16  2  0  0  0
 16 29  1  0  0  0
 17 30  1  0  0  0
 17 31  1  0  0  0
 17 32  1  0  0  0
 18 19  1  0  0  0
 18 23  2  0  0  0
 19 20  2  0  0  0
 19 33  1  0  0  0
 20 21  1  0  0  0
 20 34  1  0  0  0
 21 22  2  0  0  0
 21 35  1  0  0  0
 22 23  1  0  0  0
 22 36  1  0  0  0
 23 37  1  0  0  0
M  END
>  <Activity>
7.95861

>  <set>
1

>  <Min_dist>
999.9

>  <Avg_dist>
999.9

$$$$
RO22-3147
  Cerius2 12110214493D 1   1.00000                          
 
 32 35  0  0  0  0  0  0  0  0999 V2000
    1.8944    0.9572    0.1559 C   0  0  0  0  0  0
    0.5229    0.9535    0.4535 C   0  0  0  0  0  0
   -0.0491    2.1145    0.9925 C   0  0  0  0  0  0
    0.7124    3.2436    1.1917 C   0  0  0  0  0  0
    2.0572    3.2505    0.8617 C   0  0  0  0  0  0
    2.6464    2.1142    0.3470 C   0  0  0  0  0  0
   -0.3475   -0.1964    0.1999 C   0  0  0  0  0  0
   -0.1259   -1.4444    0.4121 N   0  0  0  0  0  0
    1.1237   -1.9377    1.0023 C   0  0  0  0  0  0
    2.2451   -1.5720    0.0679 C   0  0  0  0  0  0
    2.5683   -0.2662   -0.3330 C   0  0  0  0  0  0
    3.5707   -0.3827   -1.1747 N   0  0  0  0  0  0
    3.8690   -1.6338   -1.2740 N   0  0  0  0  0  0
    4.5823   -1.9853   -1.8294 H   0  0  0  0  0  0
    3.0949   -2.3562   -0.5373 N   0  0  0  0  0  0
   -1.6706    0.1242   -0.3832 C   0  0  0  0  0  0
   -1.7830    1.1064   -1.3675 C   0  0  0  0  0  0
   -3.0180    1.4006   -1.9068 C   0  0  0  0  0  0
   -4.1450    0.7240   -1.4738 C   0  0  0  0  0  0
   -4.0417   -0.2504   -0.4982 C   0  0  0  0  0  0
   -2.8097   -0.5590    0.0457 C   0  0  0  0  0  0
   -2.6809   -1.7830    1.2701 Cl  0  0  0  0  0  0
   -1.0971    2.1231    1.2534 H   0  0  0  0  0  0
    0.2579    4.1305    1.6080 H   0  0  0  0  0  0
    2.6445    4.1451    1.0071 H   0  0  0  0  0  0
    3.6954    2.1219    0.0905 H   0  0  0  0  0  0
    1.2840   -1.4692    1.9733 H   0  0  0  0  0  0
    1.0762   -3.0206    1.1167 H   0  0  0  0  0  0
   -0.9047    1.6356   -1.7064 H   0  0  0  0  0  0
   -3.1058    2.1611   -2.6686 H   0  0  0  0  0  0
   -5.1095    0.9584   -1.8995 H   0  0  0  0  0  0
   -4.9249   -0.7746   -0.1642 H   0  0  0  0  0  0
  1  2  1  0  0  0
  1  6  2  0  0  0
  1 11  1  0  0  0
  2  3  2  0  0  0
  2  7  1  0  0  0
  3  4  1  0  0  0
  3 23  1  0  0  0
  4  5  2  0  0  0
  4 24  1  0  0  0
  5  6  1  0  0  0
  5 25  1  0  0  0
  6 26  1  0  0  0
  7  8  2  0  0  0
  7 16  1  0  0  0
  8  9  1  0  0  0
  9 10  1  0  0  0
  9 27  1  0  0  0
  9 28  1  0  0  0
 10 11  1  0  0  0
 10 15  2  0  0  0
 11 12  2  0  0  0
 12 13  1  0  0  0
 13 14  1  0  0  0
 13 15  1  0  0  0
 16 17  1  0  0  0
 16 21  2  0  0  0
 17 18  2  0  0  0
 17 29  1  0  0  0
 18 19  1  0  0  0
 18 30  1  0  0  0
 19 20  2  0  0  0
 19 31  1  0  0  0
 20 21  1  0  0  0
 20 32  1  0  0  0
 21 22  1  0  0  0
M  END
>  <Activity>
8.284

>  <set>
1

>  <Min_dist>
999.9

>  <Avg_dist>
999.9

$$$$
RO22-0780
  Cerius2 12110214493D 1   1.00000                          
 
 32 35  0  0  0  0  0  0  0  0999 V2000
    1.2382    0.9936   -0.1924 C   0  0  0  0  0  0
    0.0540    0.3970    0.2677 C   0  0  0  0  0  0
   -1.0729    1.2075    0.4638 C   0  0  0  0  0  0
   -1.0267    2.5540    0.1766 C   0  0  0  0  0  0
    0.1365    3.1282   -0.3111 C   0  0  0  0  0  0
    1.2627    2.3534   -0.4945 C   0  0  0  0  0  0
   -2.4349    3.5379    0.4268 Cl  0  0  0  0  0  0
   -0.0706   -1.0392    0.5245 C   0  0  0  0  0  0
    0.7551   -1.8345    1.1050 N   0  0  0  0  0  0
    2.0377   -1.3809    1.6550 C   0  0  0  0  0  0
    2.8610   -0.8487    0.5134 C   0  0  0  0  0  0
    2.4809    0.2028   -0.3344 C   0  0  0  0  0  0
    3.4487    0.3271   -1.2145 N   0  0  0  0  0  0
    4.3613   -0.5402   -0.9339 N   0  0  0  0  0  0
    5.1872   -0.6481   -1.4311 H   0  0  0  0  0  0
    4.0318   -1.2448    0.0943 N   0  0  0  0  0  0
   -1.3266   -1.6638    0.0480 C   0  0  0  0  0  0
   -2.0346   -1.0937   -1.0098 C   0  0  0  0  0  0
   -3.2036   -1.6803   -1.4495 C   0  0  0  0  0  0
   -3.6736   -2.8316   -0.8432 C   0  0  0  0  0  0
   -2.9757   -3.4018    0.2065 C   0  0  0  0  0  0
   -1.8028   -2.8275    0.6516 C   0  0  0  0  0  0
   -1.9856    0.7723    0.8431 H   0  0  0  0  0  0
    0.1610    4.1816   -0.5478 H   0  0  0  0  0  0
    2.1681    2.8030   -0.8747 H   0  0  0  0  0  0
    1.8674   -0.5918    2.3873 H   0  0  0  0  0  0
    2.5547   -2.2174    2.1252 H   0  0  0  0  0  0
   -1.6688   -0.1948   -1.4836 H   0  0  0  0  0  0
   -3.7529   -1.2396   -2.2682 H   0  0  0  0  0  0
   -4.5893   -3.2870   -1.1906 H   0  0  0  0  0  0
   -3.3477   -4.3006    0.6758 H   0  0  0  0  0  0
   -1.2586   -3.2737    1.4709 H   0  0  0  0  0  0
  1  2  1  0  0  0
  1  6  2  0  0  0
  1 12  1  0  0  0
  2  3  2  0  0  0
  2  8  1  0  0  0
  3  4  1  0  0  0
  3 23  1  0  0  0
  4  5  2  0  0  0
  4  7  1  0  0  0
  5  6  1  0  0  0
  5 24  1  0  0  0
  6 25  1  0  0  0
  8  9  2  0  0  0
  8 17  1  0  0  0
  9 10  1  0  0  0
 10 11  1  0  0  0
 10 26  1  0  0  0
 10 27  1  0  0  0
 11 12  1  0  0  0
 11 16  2  0  0  0
 12 13  2  0  0  0
 13 14  1  0  0  0
 14 15  1  0  0  0
 14 16  1  0  0  0
 17 18  1  0  0  0
 17 22  2  0  0  0
 18 19  2  0  0  0
 18 28  1  0  0  0
 19 20  1  0  0  0
 19 29  1  0  0  0
 20 21  2  0  0  0
 20 30  1  0  0  0
 21 22  1  0  0  0
 21 31  1  0  0  0
 22 32  1  0  0  0
M  END
>  <Activity>
7.95861

>  <set>
1

>  <Min_dist>
999.9

>  <Avg_dist>
999.9

$$$$
RO22-3148
  Cerius2 12110214493D 1   1.00000                          
 
 32 35  0  0  0  0  0  0  0  0999 V2000
    1.4020    1.0141   -0.0198 C   0  0  0  0  0  0
    0.0845    0.8549    0.4368 C   0  0  0  0  0  0
   -0.6454    1.9987    0.7898 C   0  0  0  0  0  0
   -0.0919    3.2519    0.6570 C   0  0  0  0  0  0
    1.1963    3.4026    0.1720 C   0  0  0  0  0  0
    1.9404    2.2908   -0.1646 C   0  0  0  0  0  0
   -0.5764   -0.4481    0.5338 C   0  0  0  0  0  0
   -0.1110   -1.5635    0.9702 N   0  0  0  0  0  0
    1.2530   -1.7022    1.4930 C   0  0  0  0  0  0
    2.2056   -1.3785    0.3741 C   0  0  0  0  0  0
    2.2473   -0.1618   -0.3238 C   0  0  0  0  0  0
    3.1803   -0.3002   -1.2387 N   0  0  0  0  0  0
    3.6956   -1.4761   -1.1130 N   0  0  0  0  0  0
    4.4124   -1.8231   -1.6667 H   0  0  0  0  0  0
    3.1323   -2.1298   -0.1551 N   0  0  0  0  0  0
   -1.9805   -0.4857    0.0628 C   0  0  0  0  0  0
   -2.4279    0.4403   -0.8794 C   0  0  0  0  0  0
   -3.7368    0.4003   -1.3143 C   0  0  0  0  0  0
   -4.6048   -0.5555   -0.8173 C   0  0  0  0  0  0
   -4.1670   -1.4764    0.1178 C   0  0  0  0  0  0
   -2.8587   -1.4507    0.5554 C   0  0  0  0  0  0
   -1.6513    1.8956    1.1692 H   0  0  0  0  0  0
   -0.6665    4.1239    0.9327 H   0  0  0  0  0  0
    1.6182    4.3901    0.0570 H   0  0  0  0  0  0
    2.9451    2.4107   -0.5423 H   0  0  0  0  0  0
    1.4043   -1.0082    2.3198 H   0  0  0  0  0  0
    1.4162   -2.7248    1.8332 H   0  0  0  0  0  0
   -1.7513    1.1873   -1.2676 H   0  0  0  0  0  0
   -4.0844    1.1167   -2.0438 H   0  0  0  0  0  0
   -5.6285   -0.5826   -1.1604 H   0  0  0  0  0  0
   -4.8494   -2.2199    0.5024 H   0  0  0  0  0  0
   -2.5181   -2.1700    1.2854 H   0  0  0  0  0  0
  1  2  1  0  0  0
  1  6  2  0  0  0
  1 11  1  0  0  0
  2  3  2  0  0  0
  2  7  1  0  0  0
  3  4  1  0  0  0
  3 22  1  0  0  0
  4  5  2  0  0  0
  4 23  1  0  0  0
  5  6  1  0  0  0
  5 24  1  0  0  0
  6 25  1  0  0  0
  7  8  2  0  0  0
  7 16  1  0  0  0
  8  9  1  0  0  0
  9 10  1  0  0  0
  9 26  1  0  0  0
  9 27  1  0  0  0
 10 11  1  0  0  0
 10 15  2  0  0  0
 11 12  2  0  0  0
 12 13  1  0  0  0
 13 14  1  0  0  0
 13 15  1  0  0  0
 16 17  1  0  0  0
 16 21  2  0  0  0
 17 18  2  0  0  0
 17 28  1  0  0  0
 18 19  1  0  0  0
 18 29  1  0  0  0
 19 20  2  0  0  0
 19 30  1  0  0  0
 20 21  1  0  0  0
 20 31  1  0  0  0
 21 32  1  0  0  0
M  END
>  <Activity>
6.37675

>  <set>
1

>  <Min_dist>
999.9

>  <Avg_dist>
999.9

$$$$
RO16-4019
  Cerius2 12110214493D 1   1.00000                          
 
 43 46  0  0  0  0  0  0  0  0999 V2000
    1.9908    1.3317    0.0983 C   0  0  0  0  0  0
    2.5371    0.0518    0.1952 C   0  0  0  0  0  0
    3.9301   -0.1055    0.0850 C   0  0  0  0  0  0
    4.7443    0.9885   -0.1064 C   0  0  0  0  0  0
    4.1956    2.2563   -0.1917 C   0  0  0  0  0  0
    2.8310    2.4271   -0.0901 C   0  0  0  0  0  0
    4.6289   -1.6911    0.1917 Cl  0  0  0  0  0  0
    1.7356   -1.1565    0.4216 C   0  0  0  0  0  0
    2.1842   -1.9971    1.1769 O   0  0  0  0  0  0
    0.5480   -1.4001   -0.1418 N   0  0  0  0  0  0
   -0.1706   -0.5013   -1.0614 C   0  0  0  0  0  0
   -0.3751    0.8089   -0.3500 C   0  0  0  0  0  0
    0.6185    1.5795    0.1653 N   0  0  0  0  0  0
    0.0273    2.6600    0.7510 C   0  0  0  0  0  0
   -1.2616    2.5791    0.5882 N   0  0  0  0  0  0
   -1.5522    1.4410   -0.0968 C   0  0  0  0  0  0
   -2.8926    0.9789   -0.4915 C   0  0  0  0  0  0
   -3.2559    1.0841   -1.6467 O   0  0  0  0  0  0
   -3.7173    0.4392    0.4279 O   0  0  0  0  0  0
   -5.0397   -0.0167    0.0385 C   0  0  0  0  0  0
   -5.7648   -0.5823    1.2613 C   0  0  0  0  0  0
   -7.1583   -1.0627    0.8509 C   0  0  0  0  0  0
   -1.5315   -1.1530   -1.3701 C   0  0  0  0  0  0
   -1.2470   -2.6598   -1.1279 C   0  0  0  0  0  0
   -0.2765   -2.6038    0.0770 C   0  0  0  0  0  0
    5.8130    0.8570   -0.1898 H   0  0  0  0  0  0
    4.8370    3.1129   -0.3376 H   0  0  0  0  0  0
    2.4096    3.4191   -0.1577 H   0  0  0  0  0  0
    0.4064   -0.3513   -1.9739 H   0  0  0  0  0  0
    0.5453    3.4549    1.2669 H   0  0  0  0  0  0
   -5.6083    0.8208   -0.3659 H   0  0  0  0  0  0
   -4.9474   -0.7934   -0.7207 H   0  0  0  0  0  0
   -5.1963   -1.4198    1.6656 H   0  0  0  0  0  0
   -5.8572    0.1944    2.0204 H   0  0  0  0  0  0
   -7.6749   -1.4656    1.7220 H   0  0  0  0  0  0
   -7.7268   -0.2252    0.4466 H   0  0  0  0  0  0
   -7.0659   -1.8394    0.0917 H   0  0  0  0  0  0
   -2.2987   -0.7894   -0.6865 H   0  0  0  0  0  0
   -1.8194   -0.9754   -2.4063 H   0  0  0  0  0  0
   -2.1615   -3.1932   -0.8684 H   0  0  0  0  0  0
   -0.7664   -3.1111   -1.9959 H   0  0  0  0  0  0
    0.3524   -3.4938    0.0972 H   0  0  0  0  0  0
   -0.8356   -2.5143    1.0085 H   0  0  0  0  0  0
  1  2  1  0  0  0
  1  6  2  0  0  0
  1 13  1  0  0  0
  2  3  2  0  0  0
  2  8  1  0  0  0
  3  4  1  0  0  0
  3  7  1  0  0  0
  4  5  2  0  0  0
  4 26  1  0  0  0
  5  6  1  0  0  0
  5 27  1  0  0  0
  6 28  1  0  0  0
  8  9  2  0  0  0
  8 10  1  0  0  0
 10 11  1  0  0  0
 10 25  1  0  0  0
 11 12  1  0  0  0
 11 23  1  0  0  0
 11 29  1  0  0  0
 12 13  1  0  0  0
 12 16  2  0  0  0
 13 14  1  0  0  0
 14 15  2  0  0  0
 14 30  1  0  0  0
 15 16  1  0  0  0
 16 17  1  0  0  0
 17 18  2  0  0  0
 17 19  1  0  0  0
 19 20  1  0  0  0
 20 21  1  0  0  0
 20 31  1  0  0  0
 20 32  1  0  0  0
 21 22  1  0  0  0
 21 33  1  0  0  0
 21 34  1  0  0  0
 22 35  1  0  0  0
 22 36  1  0  0  0
 22 37  1  0  0  0
 23 24  1  0  0  0
 23 38  1  0  0  0
 23 39  1  0  0  0
 24 25  1  0  0  0
 24 40  1  0  0  0
 24 41  1  0  0  0
 25 42  1  0  0  0
 25 43  1  0  0  0
M  END
>  <Activity>
8.85387

>  <set>
1

>  <Min_dist>
999.9

>  <Avg_dist>
999.9

$$$$
RO16-9918
  Cerius2 12110214493D 1   1.00000                          
 
 44 48  0  0  0  0  0  0  0  0999 V2000
    2.2468    1.2959    0.1644 C   0  0  0  0  0  0
    2.7284   -0.0121    0.2181 C   0  0  0  0  0  0
    4.1147   -0.2327    0.1359 C   0  0  0  0  0  0
    4.9853    0.8272    0.0135 C   0  0  0  0  0  0
    4.5005    2.1229   -0.0292 C   0  0  0  0  0  0
    3.1434    2.3559    0.0457 C   0  0  0  0  0  0
    4.7336   -1.8538    0.1896 Cl  0  0  0  0  0  0
    1.8641   -1.1883    0.3706 C   0  0  0  0  0  0
    2.2512   -2.0816    1.0990 O   0  0  0  0  0  0
    0.6819   -1.3489   -0.2325 N   0  0  0  0  0  0
    0.0324   -0.3771   -1.1290 C   0  0  0  0  0  0
   -0.1283    0.9096   -0.3657 C   0  0  0  0  0  0
    0.8867    1.6077    0.2080 N   0  0  0  0  0  0
    0.3323    2.6896    0.8260 C   0  0  0  0  0  0
   -0.9541    2.6792    0.6277 N   0  0  0  0  0  0
   -1.2802    1.5872   -0.1141 C   0  0  0  0  0  0
   -2.6300    1.2089   -0.5623 C   0  0  0  0  0  0
   -2.9565    1.3814   -1.7204 O   0  0  0  0  0  0
   -3.5043    0.6712    0.3114 O   0  0  0  0  0  0
   -4.8360    0.2979   -0.1308 C   0  0  0  0  0  0
   -5.6202   -0.2836    1.0472 C   0  0  0  0  0  0
   -7.0566   -0.7397    0.7833 C   0  0  0  0  0  0
   -5.9535   -1.7763    1.0060 C   0  0  0  0  0  0
   -1.3493   -0.9475   -1.5003 C   0  0  0  0  0  0
   -1.1440   -2.4754   -1.3180 C   0  0  0  0  0  0
   -0.2050   -2.5190   -0.0879 C   0  0  0  0  0  0
    6.0483    0.6472   -0.0489 H   0  0  0  0  0  0
    5.1859    2.9525   -0.1209 H   0  0  0  0  0  0
    2.7720    3.3694    0.0117 H   0  0  0  0  0  0
    0.6404   -0.2165   -2.0193 H   0  0  0  0  0  0
    0.8736    3.4353    1.3894 H   0  0  0  0  0  0
   -5.3526    1.1789   -0.5117 H   0  0  0  0  0  0
   -4.7604   -0.4489   -0.9211 H   0  0  0  0  0  0
   -5.4029    0.1572    2.0201 H   0  0  0  0  0  0
   -7.7841   -0.5993    1.5828 H   0  0  0  0  0  0
   -7.4429   -0.6255   -0.2295 H   0  0  0  0  0  0
   -5.6140   -2.3440    0.1397 H   0  0  0  0  0  0
   -5.9553   -2.3178    1.9520 H   0  0  0  0  0  0
   -2.1164   -0.5764   -0.8206 H   0  0  0  0  0  0
   -1.6002   -0.7115   -2.5344 H   0  0  0  0  0  0
   -2.0897   -2.9740   -1.1053 H   0  0  0  0  0  0
   -0.6622   -2.9119   -2.1928 H   0  0  0  0  0  0
    0.3797   -3.4388   -0.0915 H   0  0  0  0  0  0
   -0.7842   -2.4424    0.8323 H   0  0  0  0  0  0
  1  2  1  0  0  0
  1  6  2  0  0  0
  1 13  1  0  0  0
  2  3  2  0  0  0
  2  8  1  0  0  0
  3  4  1  0  0  0
  3  7  1  0  0  0
  4  5  2  0  0  0
  4 27  1  0  0  0
  5  6  1  0  0  0
  5 28  1  0  0  0
  6 29  1  0  0  0
  8  9  2  0  0  0
  8 10  1  0  0  0
 10 11  1  0  0  0
 10 26  1  0  0  0
 11 12  1  0  0  0
 11 24  1  0  0  0
 11 30  1  0  0  0
 12 13  1  0  0  0
 12 16  2  0  0  0
 13 14  1  0  0  0
 14 15  2  0  0  0
 14 31  1  0  0  0
 15 16  1  0  0  0
 16 17  1  0  0  0
 17 18  2  0  0  0
 17 19  1  0  0  0
 19 20  1  0  0  0
 20 21  1  0  0  0
 20 32  1  0  0  0
 20 33  1  0  0  0
 21 22  1  0  0  0
 21 23  1  0  0  0
 21 34  1  0  0  0
 22 23  1  0  0  0
 22 35  1  0  0  0
 22 36  1  0  0  0
 23 37  1  0  0  0
 23 38  1  0  0  0
 24 25  1  0  0  0
 24 39  1  0  0  0
 24 40  1  0  0  0
 25 26  1  0  0  0
 25 41  1  0  0  0
 25 42  1  0  0  0
 26 43  1  0  0  0
 26 44  1  0  0  0
M  END
>  <Activity>
8.63827

>  <set>
1

>  <Min_dist>
999.9

>  <Avg_dist>
999.9

$$$$
RO16-3031
  Cerius2 12110214493D 1   1.00000                          
 
 43 46  0  0  0  0  0  0  0  0999 V2000
    1.8577    1.3809    0.0544 C   0  0  0  0  0  0
    2.4816    0.1379    0.1618 C   0  0  0  0  0  0
    3.8779    0.0603    0.0148 C   0  0  0  0  0  0
    4.6201    1.1958   -0.2224 C   0  0  0  0  0  0
    3.9949    2.4270   -0.3179 C   0  0  0  0  0  0
    2.6259    2.5193   -0.1806 C   0  0  0  0  0  0
    4.6724   -1.4786    0.1338 Cl  0  0  0  0  0  0
    1.7599   -1.1102    0.4359 C   0  0  0  0  0  0
    2.2782   -1.9060    1.1952 O   0  0  0  0  0  0
    0.5738   -1.4357   -0.0880 N   0  0  0  0  0  0
   -0.2219   -0.6013   -1.0047 C   0  0  0  0  0  0
   -0.4843    0.7100   -0.3148 C   0  0  0  0  0  0
    0.4755    1.5490    0.1558 N   0  0  0  0  0  0
   -0.1625    2.6055    0.7359 C   0  0  0  0  0  0
   -1.4483    2.4454    0.6120 N   0  0  0  0  0  0
   -1.6895    1.2772   -0.0409 C   0  0  0  0  0  0
   -3.0104    0.7285   -0.3873 C   0  0  0  0  0  0
   -3.4110    0.7863   -1.5334 O   0  0  0  0  0  0
   -3.7760    0.1617    0.5664 O   0  0  0  0  0  0
   -5.0792   -0.3796    0.2247 C   0  0  0  0  0  0
   -5.4068   -1.5476    1.1571 C   0  0  0  0  0  0
   -6.1412    0.7107    0.3805 C   0  0  0  0  0  0
   -1.5497   -1.3387   -1.2607 C   0  0  0  0  0  0
   -1.1696   -2.8204   -0.9958 C   0  0  0  0  0  0
   -0.1714   -2.6806    0.1792 C   0  0  0  0  0  0
    5.6920    1.1256   -0.3338 H   0  0  0  0  0  0
    4.5800    3.3163   -0.4997 H   0  0  0  0  0  0
    2.1445    3.4832   -0.2563 H   0  0  0  0  0  0
    0.3197   -0.4380   -1.9364 H   0  0  0  0  0  0
    0.3213    3.4409    1.2202 H   0  0  0  0  0  0
   -5.0676   -0.7307   -0.8072 H   0  0  0  0  0  0
   -6.3851   -1.9540    0.9005 H   0  0  0  0  0  0
   -4.6502   -2.3244    1.0461 H   0  0  0  0  0  0
   -5.4184   -1.1965    2.1889 H   0  0  0  0  0  0
   -6.1529    1.0617    1.4123 H   0  0  0  0  0  0
   -5.9079    1.5428   -0.2838 H   0  0  0  0  0  0
   -7.1195    0.3043    0.1239 H   0  0  0  0  0  0
   -2.3180   -1.0057   -0.5629 H   0  0  0  0  0  0
   -1.8760   -1.2014   -2.2916 H   0  0  0  0  0  0
   -2.0433   -3.4008   -0.6992 H   0  0  0  0  0  0
   -0.6871   -3.2618   -1.8679 H   0  0  0  0  0  0
    0.5096   -3.5315    0.1996 H   0  0  0  0  0  0
   -0.7090   -2.6035    1.1243 H   0  0  0  0  0  0
  1  2  1  0  0  0
  1  6  2  0  0  0
  1 13  1  0  0  0
  2  3  2  0  0  0
  2  8  1  0  0  0
  3  4  1  0  0  0
  3  7  1  0  0  0
  4  5  2  0  0  0
  4 26  1  0  0  0
  5  6  1  0  0  0
  5 27  1  0  0  0
  6 28  1  0  0  0
  8  9  2  0  0  0
  8 10  1  0  0  0
 10 11  1  0  0  0
 10 25  1  0  0  0
 11 12  1  0  0  0
 11 23  1  0  0  0
 11 29  1  0  0  0
 12 13  1  0  0  0
 12 16  2  0  0  0
 13 14  1  0  0  0
 14 15  2  0  0  0
 14 30  1  0  0  0
 15 16  1  0  0  0
 16 17  1  0  0  0
 17 18  2  0  0  0
 17 19  1  0  0  0
 19 20  1  0  0  0
 20 21  1  0  0  0
 20 22  1  0  0  0
 20 31  1  0  0  0
 21 32  1  0  0  0
 21 33  1  0  0  0
 21 34  1  0  0  0
 22 35  1  0  0  0
 22 36  1  0  0  0
 22 37  1  0  0  0
 23 24  1  0  0  0
 23 38  1  0  0  0
 23 39  1  0  0  0
 24 25  1  0  0  0
 24 40  1  0  0  0
 24 41  1  0  0  0
 25 42  1  0  0  0
 25 43  1  0  0  0
M  END
>  <Activity>
8.60206

>  <set>
1

>  <Min_dist>
999.9

>  <Avg_dist>
999.9

$$$$
RO16-7083
  Cerius2 12110214493D 1   1.00000                          
 
 46 49  0  0  0  0  0  0  0  0999 V2000
    1.9274    1.4261    0.0255 C   0  0  0  0  0  0
    2.6765    0.2497   -0.0035 C   0  0  0  0  0  0
    3.9993    0.2947   -0.4783 C   0  0  0  0  0  0
    4.5507    1.4841   -0.8998 C   0  0  0  0  0  0
    3.8044    2.6490   -0.8587 C   0  0  0  0  0  0
    2.5042    2.6209   -0.4000 C   0  0  0  0  0  0
    4.9448   -1.1602   -0.5331 Cl  0  0  0  0  0  0
    2.1645   -1.0486    0.4503 C   0  0  0  0  0  0
    2.9222   -1.7666    1.0738 O   0  0  0  0  0  0
    0.9256   -1.4991    0.2285 N   0  0  0  0  0  0
   -0.1413   -0.7735   -0.4822 C   0  0  0  0  0  0
   -0.3591    0.5318    0.2339 C   0  0  0  0  0  0
    0.5987    1.4709    0.4516 N   0  0  0  0  0  0
    0.0164    2.4845    1.1540 C   0  0  0  0  0  0
   -1.2405    2.2035    1.3423 N   0  0  0  0  0  0
   -1.5146    0.9960    0.7804 C   0  0  0  0  0  0
   -2.8204    0.3172    0.7659 C   0  0  0  0  0  0
   -3.2358   -0.2230    1.7724 O   0  0  0  0  0  0
   -3.5557    0.2946   -0.3636 O   0  0  0  0  0  0
   -4.8440   -0.3751   -0.3779 C   0  0  0  0  0  0
   -5.7651    0.3129   -1.3874 C   0  0  0  0  0  0
   -5.9561    1.7774   -0.9881 C   0  0  0  0  0  0
   -4.6530   -1.8396   -0.7772 C   0  0  0  0  0  0
   -1.4141   -1.6375   -0.4050 C   0  0  0  0  0  0
   -0.8403   -3.0682   -0.2200 C   0  0  0  0  0  0
    0.3889   -2.7967    0.6812 C   0  0  0  0  0  0
    5.5676    1.5081   -1.2628 H   0  0  0  0  0  0
    4.2409    3.5811   -1.1859 H   0  0  0  0  0  0
    1.9275    3.5335   -0.3707 H   0  0  0  0  0  0
    0.1465   -0.5943   -1.5182 H   0  0  0  0  0  0
    0.5177    3.3770    1.4985 H   0  0  0  0  0  0
   -5.2908   -0.3245    0.6150 H   0  0  0  0  0  0
   -5.3183    0.2623   -2.3803 H   0  0  0  0  0  0
   -6.7322   -0.1899   -1.3982 H   0  0  0  0  0  0
   -6.6124    2.2675   -1.7073 H   0  0  0  0  0  0
   -6.4029    1.8280    0.0048 H   0  0  0  0  0  0
   -4.9890    2.2802   -0.9774 H   0  0  0  0  0  0
   -4.2062   -1.8902   -1.7701 H   0  0  0  0  0  0
   -3.9968   -2.3297   -0.0580 H   0  0  0  0  0  0
   -5.6201   -2.3424   -0.7880 H   0  0  0  0  0  0
   -2.0243   -1.3517    0.4517 H   0  0  0  0  0  0
   -1.9864   -1.5668   -1.3299 H   0  0  0  0  0  0
   -1.5587   -3.7150    0.2836 H   0  0  0  0  0  0
   -0.5370   -3.4940   -1.1765 H   0  0  0  0  0  0
    1.1346   -3.5806    0.5491 H   0  0  0  0  0  0
    0.0849   -2.7358    1.7262 H   0  0  0  0  0  0
  1  2  1  0  0  0
  1  6  2  0  0  0
  1 13  1  0  0  0
  2  3  2  0  0  0
  2  8  1  0  0  0
  3  4  1  0  0  0
  3  7  1  0  0  0
  4  5  2  0  0  0
  4 27  1  0  0  0
  5  6  1  0  0  0
  5 28  1  0  0  0
  6 29  1  0  0  0
  8  9  2  0  0  0
  8 10  1  0  0  0
 10 11  1  0  0  0
 10 26  1  0  0  0
 11 12  1  0  0  0
 11 24  1  0  0  0
 11 30  1  0  0  0
 12 13  1  0  0  0
 12 16  2  0  0  0
 13 14  1  0  0  0
 14 15  2  0  0  0
 14 31  1  0  0  0
 15 16  1  0  0  0
 16 17  1  0  0  0
 17 18  2  0  0  0
 17 19  1  0  0  0
 19 20  1  0  0  0
 20 21  1  0  0  0
 20 23  1  0  0  0
 20 32  1  0  0  0
 21 22  1  0  0  0
 21 33  1  0  0  0
 21 34  1  0  0  0
 22 35  1  0  0  0
 22 36  1  0  0  0
 22 37  1  0  0  0
 23 38  1  0  0  0
 23 39  1  0  0  0
 23 40  1  0  0  0
 24 25  1  0  0  0
 24 41  1  0  0  0
 24 42  1  0  0  0
 25 26  1  0  0  0
 25 43  1  0  0  0
 25 44  1  0  0  0
 26 45  1  0  0  0
 26 46  1  0  0  0
M  END
>  <Activity>
8.5376

>  <set>
1

>  <Min_dist>
999.9

>  <Avg_dist>
999.9

$$$$
RO16-6127
  Cerius2 12110214493D 1   1.00000                          
 
 46 49  0  0  0  0  0  0  0  0999 V2000
    1.8291    1.2774    0.0833 C   0  0  0  0  0  0
    2.3941    0.0070    0.1957 C   0  0  0  0  0  0
    3.7831   -0.1391    0.0336 C   0  0  0  0  0  0
    4.5770    0.9589   -0.2235 C   0  0  0  0  0  0
    4.0085    2.2188   -0.3235 C   0  0  0  0  0  0
    2.6470    2.3760   -0.1719 C   0  0  0  0  0  0
    5.9105    0.8061   -0.3777 F   0  0  0  0  0  0
    4.5042   -1.7133    0.1585 Cl  0  0  0  0  0  0
    1.6169   -1.2026    0.4902 C   0  0  0  0  0  0
    2.1058   -2.0153    1.2510 O   0  0  0  0  0  0
    0.4105   -1.4759   -0.0166 N   0  0  0  0  0  0
   -0.3559   -0.6126   -0.9315 C   0  0  0  0  0  0
   -0.5467    0.7160   -0.2513 C   0  0  0  0  0  0
    0.4571    1.5121    0.1993 N   0  0  0  0  0  0
   -0.1225    2.6033    0.7763 C   0  0  0  0  0  0
   -1.4160    2.5036    0.6696 N   0  0  0  0  0  0
   -1.7201    1.3427    0.0318 C   0  0  0  0  0  0
   -3.0697    0.8536   -0.2925 C   0  0  0  0  0  0
   -3.4802    0.9152   -1.4349 O   0  0  0  0  0  0
   -3.8506    0.3373    0.6773 O   0  0  0  0  0  0
   -5.1822   -0.1453    0.3572 C   0  0  0  0  0  0
   -5.8511   -0.6760    1.6268 C   0  0  0  0  0  0
   -6.0159    1.0018   -0.2172 C   0  0  0  0  0  0
   -5.0825   -1.2701   -0.6751 C   0  0  0  0  0  0
   -1.7204   -1.2880   -1.1648 C   0  0  0  0  0  0
   -1.4078   -2.7838   -0.8911 C   0  0  0  0  0  0
   -0.3895   -2.6818    0.2706 C   0  0  0  0  0  0
    4.6323    3.0782   -0.5208 H   0  0  0  0  0  0
    2.2104    3.3606   -0.2513 H   0  0  0  0  0  0
    0.1813   -0.4838   -1.8711 H   0  0  0  0  0  0
    0.4066    3.4190    1.2465 H   0  0  0  0  0  0
   -6.8507   -1.0383    1.3865 H   0  0  0  0  0  0
   -5.2571   -1.4932    2.0360 H   0  0  0  0  0  0
   -5.9221    0.1253    2.3622 H   0  0  0  0  0  0
   -6.0869    1.8031    0.5183 H   0  0  0  0  0  0
   -5.5394    1.3798   -1.1217 H   0  0  0  0  0  0
   -7.0155    0.6395   -0.4574 H   0  0  0  0  0  0
   -4.4885   -2.0873   -0.2659 H   0  0  0  0  0  0
   -6.0821   -1.6324   -0.9154 H   0  0  0  0  0  0
   -4.6060   -0.8920   -1.5796 H   0  0  0  0  0  0
   -2.4632   -0.9128   -0.4608 H   0  0  0  0  0  0
   -2.0527   -1.1439   -2.1929 H   0  0  0  0  0  0
   -2.3043   -3.3194   -0.5788 H   0  0  0  0  0  0
   -0.9577   -3.2550   -1.7649 H   0  0  0  0  0  0
    0.2506   -3.5638    0.2902 H   0  0  0  0  0  0
   -0.9111   -2.5714    1.2213 H   0  0  0  0  0  0
  1  2  1  0  0  0
  1  6  2  0  0  0
  1 14  1  0  0  0
  2  3  2  0  0  0
  2  9  1  0  0  0
  3  4  1  0  0  0
  3  8  1  0  0  0
  4  5  2  0  0  0
  4  7  1  0  0  0
  5  6  1  0  0  0
  5 28  1  0  0  0
  6 29  1  0  0  0
  9 10  2  0  0  0
  9 11  1  0  0  0
 11 12  1  0  0  0
 11 27  1  0  0  0
 12 13  1  0  0  0
 12 25  1  0  0  0
 12 30  1  0  0  0
 13 14  1  0  0  0
 13 17  2  0  0  0
 14 15  1  0  0  0
 15 16  2  0  0  0
 15 31  1  0  0  0
 16 17  1  0  0  0
 17 18  1  0  0  0
 18 19  2  0  0  0
 18 20  1  0  0  0
 20 21  1  0  0  0
 21 22  1  0  0  0
 21 23  1  0  0  0
 21 24  1  0  0  0
 22 32  1  0  0  0
 22 33  1  0  0  0
 22 34  1  0  0  0
 23 35  1  0  0  0
 23 36  1  0  0  0
 23 37  1  0  0  0
 24 38  1  0  0  0
 24 39  1  0  0  0
 24 40  1  0  0  0
 25 26  1  0  0  0
 25 41  1  0  0  0
 25 42  1  0  0  0
 26 27  1  0  0  0
 26 43  1  0  0  0
 26 44  1  0  0  0
 27 45  1  0  0  0
 27 46  1  0  0  0
M  END
>  <Activity>
8.50864

>  <set>
1

>  <Min_dist>
999.9

>  <Avg_dist>
999.9

$$$$
RO16-0071
  Cerius2 12110214493D 1   1.00000                          
 
 46 49  0  0  0  0  0  0  0  0999 V2000
    2.6930    0.9097    0.0450 C   0  0  0  0  0  0
    3.1440   -0.4030    0.1814 C   0  0  0  0  0  0
    4.5124   -0.6746    0.0161 C   0  0  0  0  0  0
    5.3972    0.3396   -0.2665 C   0  0  0  0  0  0
    4.9449    1.6425   -0.3910 C   0  0  0  0  0  0
    3.6045    1.9256   -0.2368 C   0  0  0  0  0  0
    2.2641   -1.5331    0.5051 C   0  0  0  0  0  0
    2.6837   -2.3702    1.2805 O   0  0  0  0  0  0
    1.0349   -1.7081    0.0094 N   0  0  0  0  0  0
    0.3429   -0.7994   -0.9207 C   0  0  0  0  0  0
    0.2748    0.5547   -0.2679 C   0  0  0  0  0  0
    1.3488    1.2678    0.1621 N   0  0  0  0  0  0
    0.8718    2.4179    0.7186 C   0  0  0  0  0  0
   -0.4260    2.4315    0.6189 N   0  0  0  0  0  0
   -0.8365    1.2890    0.0063 C   0  0  0  0  0  0
   -2.2262    0.9161   -0.3027 C   0  0  0  0  0  0
   -2.6359    0.9908   -1.4446 O   0  0  0  0  0  0
   -3.0447    0.4918    0.6806 O   0  0  0  0  0  0
   -4.4158    0.1238    0.3757 C   0  0  0  0  0  0
   -5.1224   -0.3187    1.6585 C   0  0  0  0  0  0
   -5.1469    1.3289   -0.2195 C   0  0  0  0  0  0
   -4.4229   -1.0263   -0.6333 C   0  0  0  0  0  0
   -1.0776   -1.3553   -1.1338 C   0  0  0  0  0  0
   -0.8979   -2.8668   -0.8288 C   0  0  0  0  0  0
    0.1323   -2.8312    0.3262 C   0  0  0  0  0  0
    4.8726   -1.6882    0.1122 H   0  0  0  0  0  0
    6.4472    0.1195   -0.3913 H   0  0  0  0  0  0
    5.6427    2.4375   -0.6087 H   0  0  0  0  0  0
    3.2578    2.9437   -0.3348 H   0  0  0  0  0  0
    0.8839   -0.7384   -1.8650 H   0  0  0  0  0  0
    1.4739    3.1926    1.1698 H   0  0  0  0  0  0
   -6.1517   -0.5949    1.4296 H   0  0  0  0  0  0
   -4.6016   -1.1772    2.0825 H   0  0  0  0  0  0
   -5.1174    0.5007    2.3773 H   0  0  0  0  0  0
   -5.1418    2.1483    0.4993 H   0  0  0  0  0  0
   -4.6435    1.6442   -1.1335 H   0  0  0  0  0  0
   -6.1762    1.0527   -0.4484 H   0  0  0  0  0  0
   -3.9021   -1.8848   -0.2093 H   0  0  0  0  0  0
   -5.4522   -1.3025   -0.8622 H   0  0  0  0  0  0
   -3.9195   -0.7110   -1.5472 H   0  0  0  0  0  0
   -1.7799   -0.9004   -0.4352 H   0  0  0  0  0  0
   -1.4018   -1.2042   -2.1635 H   0  0  0  0  0  0
   -1.8367   -3.3135   -0.5013 H   0  0  0  0  0  0
   -0.4968   -3.3948   -1.6939 H   0  0  0  0  0  0
    0.6912   -3.7663    0.3627 H   0  0  0  0  0  0
   -0.3717   -2.6543    1.2764 H   0  0  0  0  0  0
  1  2  1  0  0  0
  1  6  2  0  0  0
  1 12  1  0  0  0
  2  3  2  0  0  0
  2  7  1  0  0  0
  3  4  1  0  0  0
  3 26  1  0  0  0
  4  5  2  0  0  0
  4 27  1  0  0  0
  5  6  1  0  0  0
  5 28  1  0  0  0
  6 29  1  0  0  0
  7  8  2  0  0  0
  7  9  1  0  0  0
  9 10  1  0  0  0
  9 25  1  0  0  0
 10 11  1  0  0  0
 10 23  1  0  0  0
 10 30  1  0  0  0
 11 12  1  0  0  0
 11 15  2  0  0  0
 12 13  1  0  0  0
 13 14  2  0  0  0
 13 31  1  0  0  0
 14 15  1  0  0  0
 15 16  1  0  0  0
 16 17  2  0  0  0
 16 18  1  0  0  0
 18 19  1  0  0  0
 19 20  1  0  0  0
 19 21  1  0  0  0
 19 22  1  0  0  0
 20 32  1  0  0  0
 20 33  1  0  0  0
 20 34  1  0  0  0
 21 35  1  0  0  0
 21 36  1  0  0  0
 21 37  1  0  0  0
 22 38  1  0  0  0
 22 39  1  0  0  0
 22 40  1  0  0  0
 23 24  1  0  0  0
 23 41  1  0  0  0
 23 42  1  0  0  0
 24 25  1  0  0  0
 24 43  1  0  0  0
 24 44  1  0  0  0
 25 45  1  0  0  0
 25 46  1  0  0  0
M  END
>  <Activity>
8.49485

>  <set>
1

>  <Min_dist>
999.9

>  <Avg_dist>
999.9

$$$$
RO16-3774
  Cerius2 12110214493D 1   1.00000                          
 
 49 52  0  0  0  0  0  0  0  0999 V2000
    2.4350    1.1299    0.0373 C   0  0  0  0  0  0
    2.9569   -0.1572    0.1647 C   0  0  0  0  0  0
    4.3375   -0.3532   -0.0061 C   0  0  0  0  0  0
    5.1652    0.7091   -0.2853 C   0  0  0  0  0  0
    4.6425    1.9862   -0.4008 C   0  0  0  0  0  0
    3.2893    2.1954   -0.2411 C   0  0  0  0  0  0
    4.9164   -1.7390    0.1181 C   0  0  0  0  0  0
    2.1405   -1.3351    0.4842 C   0  0  0  0  0  0
    2.6074   -2.1526    1.2535 O   0  0  0  0  0  0
    0.9211   -1.5736   -0.0089 N   0  0  0  0  0  0
    0.1779   -0.6984   -0.9316 C   0  0  0  0  0  0
    0.0386    0.6463   -0.2707 C   0  0  0  0  0  0
    1.0737    1.4140    0.1604 N   0  0  0  0  0  0
    0.5369    2.5333    0.7251 C   0  0  0  0  0  0
   -0.7600    2.4772    0.6293 N   0  0  0  0  0  0
   -1.1099    1.3176    0.0111 C   0  0  0  0  0  0
   -2.4784    0.8717   -0.2961 C   0  0  0  0  0  0
   -2.8949    0.9301   -1.4365 O   0  0  0  0  0  0
   -3.2698    0.3986    0.6871 O   0  0  0  0  0  0
   -4.6199   -0.0413    0.3840 C   0  0  0  0  0  0
   -5.2977   -0.5281    1.6663 C   0  0  0  0  0  0
   -5.4169    1.1256   -0.2028 C   0  0  0  0  0  0
   -4.5679   -1.1849   -0.6311 C   0  0  0  0  0  0
   -1.2111   -1.3292   -1.1440 C   0  0  0  0  0  0
   -0.9488   -2.8306   -0.8484 C   0  0  0  0  0  0
    0.0816   -2.7458    0.3038 C   0  0  0  0  0  0
    6.2251    0.5469   -0.4144 H   0  0  0  0  0  0
    5.2955    2.8191   -0.6159 H   0  0  0  0  0  0
    2.8876    3.1937   -0.3321 H   0  0  0  0  0  0
    5.1092   -1.9595    1.1680 H   0  0  0  0  0  0
    4.2090   -2.4655   -0.2817 H   0  0  0  0  0  0
    5.8498   -1.7944   -0.4421 H   0  0  0  0  0  0
    0.7118   -0.6028   -1.8771 H   0  0  0  0  0  0
    1.0977    3.3369    1.1791 H   0  0  0  0  0  0
   -6.3112   -0.8584    1.4388 H   0  0  0  0  0  0
   -4.7299   -1.3594    2.0843 H   0  0  0  0  0  0
   -5.3348    0.2866    2.3895 H   0  0  0  0  0  0
   -5.4539    1.9403    0.5204 H   0  0  0  0  0  0
   -4.9340    1.4724   -1.1164 H   0  0  0  0  0  0
   -6.4304    0.7953   -0.4303 H   0  0  0  0  0  0
   -4.0001   -2.0162   -0.2132 H   0  0  0  0  0  0
   -5.5814   -1.5151   -0.8587 H   0  0  0  0  0  0
   -4.0850   -0.8380   -1.5447 H   0  0  0  0  0  0
   -1.9348   -0.9172   -0.4407 H   0  0  0  0  0  0
   -1.5463   -1.1900   -2.1718 H   0  0  0  0  0  0
   -1.8610   -3.3293   -0.5209 H   0  0  0  0  0  0
   -0.5224   -3.3311   -1.7178 H   0  0  0  0  0  0
    0.6905   -3.6494    0.3332 H   0  0  0  0  0  0
   -0.4281   -2.6019    1.2565 H   0  0  0  0  0  0
  1  2  1  0  0  0
  1  6  2  0  0  0
  1 13  1  0  0  0
  2  3  2  0  0  0
  2  8  1  0  0  0
  3  4  1  0  0  0
  3  7  1  0  0  0
  4  5  2  0  0  0
  4 27  1  0  0  0
  5  6  1  0  0  0
  5 28  1  0  0  0
  6 29  1  0  0  0
  7 30  1  0  0  0
  7 31  1  0  0  0
  7 32  1  0  0  0
  8  9  2  0  0  0
  8 10  1  0  0  0
 10 11  1  0  0  0
 10 26  1  0  0  0
 11 12  1  0  0  0
 11 24  1  0  0  0
 11 33  1  0  0  0
 12 13  1  0  0  0
 12 16  2  0  0  0
 13 14  1  0  0  0
 14 15  2  0  0  0
 14 34  1  0  0  0
 15 16  1  0  0  0
 16 17  1  0  0  0
 17 18  2  0  0  0
 17 19  1  0  0  0
 19 20  1  0  0  0
 20 21  1  0  0  0
 20 22  1  0  0  0
 20 23  1  0  0  0
 21 35  1  0  0  0
 21 36  1  0  0  0
 21 37  1  0  0  0
 22 38  1  0  0  0
 22 39  1  0  0  0
 22 40  1  0  0  0
 23 41  1  0  0  0
 23 42  1  0  0  0
 23 43  1  0  0  0
 24 25  1  0  0  0
 24 44  1  0  0  0
 24 45  1  0  0  0
 25 26  1  0  0  0
 25 46  1  0  0  0
 25 47  1  0  0  0
 26 48  1  0  0  0
 26 49  1  0  0  0
M  END
>  <Activity>
8.49485

>  <set>
1

>  <Min_dist>
999.9

>  <Avg_dist>
999.9

$$$$
RO16-6048
  Cerius2 12110214493D 1   1.00000                          
 
 49 52  0  0  0  0  0  0  0  0999 V2000
    1.5615    1.6335    0.0195 C   0  0  0  0  0  0
    2.2464    0.4236    0.1301 C   0  0  0  0  0  0
    3.6394    0.4095   -0.0518 C   0  0  0  0  0  0
    4.3205    1.5725   -0.3255 C   0  0  0  0  0  0
    3.6361    2.7723   -0.4244 C   0  0  0  0  0  0
    2.2686    2.8031   -0.2535 C   0  0  0  0  0  0
    4.3936   -0.8909    0.0542 C   0  0  0  0  0  0
    5.7561   -0.6588   -0.1627 F   0  0  0  0  0  0
    4.2104   -1.4335    1.3307 F   0  0  0  0  0  0
    3.9146   -1.7876   -0.9068 F   0  0  0  0  0  0
    1.5918   -0.8530    0.4429 C   0  0  0  0  0  0
    2.1665   -1.6105    1.2006 O   0  0  0  0  0  0
    0.4096   -1.2427   -0.0446 N   0  0  0  0  0  0
   -0.4478   -0.4624   -0.9533 C   0  0  0  0  0  0
   -0.7546    0.8467   -0.2776 C   0  0  0  0  0  0
    0.1759    1.7378    0.1545 N   0  0  0  0  0  0
   -0.4967    2.7729    0.7343 C   0  0  0  0  0  0
   -1.7762    2.5504    0.6465 N   0  0  0  0  0  0
   -1.9780    1.3612    0.0187 C   0  0  0  0  0  0
   -3.2797    0.7448   -0.2840 C   0  0  0  0  0  0
   -3.7096    0.7600   -1.4209 O   0  0  0  0  0  0
   -3.9952    0.1635    0.6993 O   0  0  0  0  0  0
   -5.2795   -0.4445    0.4006 C   0  0  0  0  0  0
   -5.8781   -1.0277    1.6822 C   0  0  0  0  0  0
   -6.2255    0.6150   -0.1680 C   0  0  0  0  0  0
   -5.0881   -1.5617   -0.6271 C   0  0  0  0  0  0
   -1.7452   -1.2656   -1.1629 C   0  0  0  0  0  0
   -1.2887   -2.7231   -0.8847 C   0  0  0  0  0  0
   -0.2687   -2.5165    0.2616 C   0  0  0  0  0  0
    5.3914    1.5500   -0.4633 H   0  0  0  0  0  0
    4.1743    3.6846   -0.6351 H   0  0  0  0  0  0
    1.7404    3.7419   -0.3315 H   0  0  0  0  0  0
    0.0617   -0.2896   -1.9013 H   0  0  0  0  0  0
   -0.0410    3.6381    1.1929 H   0  0  0  0  0  0
   -6.8421   -1.4842    1.4580 H   0  0  0  0  0  0
   -5.2041   -1.7825    2.0873 H   0  0  0  0  0  0
   -6.0144   -0.2318    2.4145 H   0  0  0  0  0  0
   -6.3618    1.4109    0.5643 H   0  0  0  0  0  0
   -5.7990    1.0305   -1.0810 H   0  0  0  0  0  0
   -7.1896    0.1585   -0.3922 H   0  0  0  0  0  0
   -4.4141   -2.3165   -0.2221 H   0  0  0  0  0  0
   -6.0522   -2.0181   -0.8514 H   0  0  0  0  0  0
   -4.6617   -1.1462   -1.5402 H   0  0  0  0  0  0
   -2.5105   -0.9573   -0.4507 H   0  0  0  0  0  0
   -2.1037   -1.1613   -2.1870 H   0  0  0  0  0  0
   -2.1260   -3.3387   -0.5562 H   0  0  0  0  0  0
   -0.8080   -3.1560   -1.7619 H   0  0  0  0  0  0
    0.4521   -3.3340    0.2775 H   0  0  0  0  0  0
   -0.7853   -2.4488    1.2190 H   0  0  0  0  0  0
  1  2  1  0  0  0
  1  6  2  0  0  0
  1 16  1  0  0  0
  2  3  2  0  0  0
  2 11  1  0  0  0
  3  4  1  0  0  0
  3  7  1  0  0  0
  4  5  2  0  0  0
  4 30  1  0  0  0
  5  6  1  0  0  0
  5 31  1  0  0  0
  6 32  1  0  0  0
  7  8  1  0  0  0
  7  9  1  0  0  0
  7 10  1  0  0  0
 11 12  2  0  0  0
 11 13  1  0  0  0
 13 14  1  0  0  0
 13 29  1  0  0  0
 14 15  1  0  0  0
 14 27  1  0  0  0
 14 33  1  0  0  0
 15 16  1  0  0  0
 15 19  2  0  0  0
 16 17  1  0  0  0
 17 18  2  0  0  0
 17 34  1  0  0  0
 18 19  1  0  0  0
 19 20  1  0  0  0
 20 21  2  0  0  0
 20 22  1  0  0  0
 22 23  1  0  0  0
 23 24  1  0  0  0
 23 25  1  0  0  0
 23 26  1  0  0  0
 24 35  1  0  0  0
 24 36  1  0  0  0
 24 37  1  0  0  0
 25 38  1  0  0  0
 25 39  1  0  0  0
 25 40  1  0  0  0
 26 41  1  0  0  0
 26 42  1  0  0  0
 26 43  1  0  0  0
 27 28  1  0  0  0
 27 44  1  0  0  0
 27 45  1  0  0  0
 28 29  1  0  0  0
 28 46  1  0  0  0
 28 47  1  0  0  0
 29 48  1  0  0  0
 29 49  1  0  0  0
M  END
>  <Activity>
8.48149

>  <set>
1

>  <Min_dist>
999.9

>  <Avg_dist>
999.9

$$$$
RO16-5824
  Cerius2 12110214493D 1   1.00000                          
 
 50 53  0  0  0  0  0  0  0  0999 V2000
    1.8253    1.4462    0.0439 C   0  0  0  0  0  0
    2.4537    0.2061    0.1706 C   0  0  0  0  0  0
    3.8543    0.1283   -0.0008 C   0  0  0  0  0  0
    4.5897    1.2703   -0.2770 C   0  0  0  0  0  0
    3.9551    2.4912   -0.3880 C   0  0  0  0  0  0
    2.5857    2.5793   -0.2303 C   0  0  0  0  0  0
    4.6697   -1.4276    0.1377 S   0  0  0  0  0  0
    6.3824   -0.9140   -0.1680 C   0  0  0  0  0  0
    1.7423   -1.0333    0.4866 C   0  0  0  0  0  0
    2.2762   -1.8089    1.2565 O   0  0  0  0  0  0
    0.5485   -1.3752   -0.0084 N   0  0  0  0  0  0
   -0.2659   -0.5658   -0.9311 C   0  0  0  0  0  0
   -0.5205    0.7612   -0.2689 C   0  0  0  0  0  0
    0.4444    1.6135    0.1647 N   0  0  0  0  0  0
   -0.1867    2.6825    0.7294 C   0  0  0  0  0  0
   -1.4740    2.5160    0.6316 N   0  0  0  0  0  0
   -1.7224    1.3320    0.0122 C   0  0  0  0  0  0
   -3.0472    0.7714   -0.2983 C   0  0  0  0  0  0
   -3.4655    0.7963   -1.4392 O   0  0  0  0  0  0
   -3.7968    0.2304    0.6827 O   0  0  0  0  0  0
   -5.1039   -0.3227    0.3764 C   0  0  0  0  0  0
   -5.7396   -0.8684    1.6566 C   0  0  0  0  0  0
   -5.9968    0.7729   -0.2095 C   0  0  0  0  0  0
   -4.9527   -1.4556   -0.6408 C   0  0  0  0  0  0
   -1.5954   -1.3132   -1.1459 C   0  0  0  0  0  0
   -1.2054   -2.7869   -0.8525 C   0  0  0  0  0  0
   -0.1873   -2.6159    0.3012 C   0  0  0  0  0  0
    5.6601    1.2050   -0.4049 H   0  0  0  0  0  0
    4.5309    3.3801   -0.5993 H   0  0  0  0  0  0
    2.0990    3.5391   -0.3209 H   0  0  0  0  0  0
    7.0372   -1.7838   -0.1167 H   0  0  0  0  0  0
    6.4552   -0.4623   -1.1573 H   0  0  0  0  0  0
    6.6839   -0.1872    0.5863 H   0  0  0  0  0  0
    0.2589   -0.4237   -1.8758 H   0  0  0  0  0  0
    0.3029    3.5307    1.1846 H   0  0  0  0  0  0
   -6.7208   -1.2836    1.4267 H   0  0  0  0  0  0
   -5.1035   -1.6489    2.0740 H   0  0  0  0  0  0
   -5.8473   -0.0613    2.3813 H   0  0  0  0  0  0
   -6.1045    1.5800    0.5152 H   0  0  0  0  0  0
   -5.5439    1.1616   -1.1216 H   0  0  0  0  0  0
   -6.9780    0.3577   -0.4394 H   0  0  0  0  0  0
   -4.3166   -2.2362   -0.2235 H   0  0  0  0  0  0
   -5.9340   -1.8708   -0.8708 H   0  0  0  0  0  0
   -4.4999   -1.0669   -1.5529 H   0  0  0  0  0  0
   -2.3525   -0.9660   -0.4428 H   0  0  0  0  0  0
   -1.9403   -1.2015   -2.1739 H   0  0  0  0  0  0
   -2.0717   -3.3628   -0.5269 H   0  0  0  0  0  0
   -0.7366   -3.2474   -1.7221 H   0  0  0  0  0  0
    0.4971   -3.4638    0.3297 H   0  0  0  0  0  0
   -0.7086   -2.5182    1.2535 H   0  0  0  0  0  0
  1  2  1  0  0  0
  1  6  2  0  0  0
  1 14  1  0  0  0
  2  3  2  0  0  0
  2  9  1  0  0  0
  3  4  1  0  0  0
  3  7  1  0  0  0
  4  5  2  0  0  0
  4 28  1  0  0  0
  5  6  1  0  0  0
  5 29  1  0  0  0
  6 30  1  0  0  0
  7  8  1  0  0  0
  8 31  1  0  0  0
  8 32  1  0  0  0
  8 33  1  0  0  0
  9 10  2  0  0  0
  9 11  1  0  0  0
 11 12  1  0  0  0
 11 27  1  0  0  0
 12 13  1  0  0  0
 12 25  1  0  0  0
 12 34  1  0  0  0
 13 14  1  0  0  0
 13 17  2  0  0  0
 14 15  1  0  0  0
 15 16  2  0  0  0
 15 35  1  0  0  0
 16 17  1  0  0  0
 17 18  1  0  0  0
 18 19  2  0  0  0
 18 20  1  0  0  0
 20 21  1  0  0  0
 21 22  1  0  0  0
 21 23  1  0  0  0
 21 24  1  0  0  0
 22 36  1  0  0  0
 22 37  1  0  0  0
 22 38  1  0  0  0
 23 39  1  0  0  0
 23 40  1  0  0  0
 23 41  1  0  0  0
 24 42  1  0  0  0
 24 43  1  0  0  0
 24 44  1  0  0  0
 25 26  1  0  0  0
 25 45  1  0  0  0
 25 46  1  0  0  0
 26 27  1  0  0  0
 26 47  1  0  0  0
 26 48  1  0  0  0
 27 49  1  0  0  0
 27 50  1  0  0  0
M  END
>  <Activity>
8.46852

>  <set>
1

>  <Min_dist>
999.9

>  <Avg_dist>
999.9

$$$$
RO16-6654
  Cerius2 12110214493D 1   1.00000                          
 
 50 54  0  0  0  0  0  0  0  0999 V2000
    2.6822    1.3351    0.1123 C   0  0  0  0  0  0
    3.2332    0.0563    0.1962 C   0  0  0  0  0  0
    4.6267   -0.0950    0.0836 C   0  0  0  0  0  0
    5.4368    1.0038   -0.0975 C   0  0  0  0  0  0
    4.8835    2.2704   -0.1699 C   0  0  0  0  0  0
    3.5184    2.4353   -0.0658 C   0  0  0  0  0  0
    5.3312   -1.6790    0.1742 Cl  0  0  0  0  0  0
    2.4362   -1.1571    0.4111 C   0  0  0  0  0  0
    2.8882   -2.0035    1.1579 O   0  0  0  0  0  0
    1.2491   -1.3993   -0.1539 N   0  0  0  0  0  0
    0.5267   -0.4940   -1.0641 C   0  0  0  0  0  0
    0.3180    0.8083   -0.3398 C   0  0  0  0  0  0
    1.3091    1.5773    0.1826 N   0  0  0  0  0  0
    0.7145    2.6498    0.7793 C   0  0  0  0  0  0
   -0.5743    2.5660    0.6165 N   0  0  0  0  0  0
   -0.8612    1.4336   -0.0796 C   0  0  0  0  0  0
   -2.2002    0.9707   -0.4780 C   0  0  0  0  0  0
   -2.5646    1.0859   -1.6319 O   0  0  0  0  0  0
   -3.0224    0.4190    0.4365 O   0  0  0  0  0  0
   -4.3435   -0.0377    0.0434 C   0  0  0  0  0  0
   -4.7611   -1.2134    0.9290 C   0  0  0  0  0  0
   -6.1531   -1.6946    0.5148 C   0  0  0  0  0  0
   -7.1572   -0.5517    0.6774 C   0  0  0  0  0  0
   -6.7396    0.6240   -0.2082 C   0  0  0  0  0  0
   -5.3475    1.1052    0.2060 C   0  0  0  0  0  0
   -0.8321   -1.1476   -1.3785 C   0  0  0  0  0  0
   -0.5420   -2.6557   -1.1513 C   0  0  0  0  0  0
    0.4290   -2.6080    0.0535 C   0  0  0  0  0  0
    6.5059    0.8769   -0.1828 H   0  0  0  0  0  0
    5.5218    3.1307   -0.3077 H   0  0  0  0  0  0
    3.0934    3.4265   -0.1233 H   0  0  0  0  0  0
    1.1025   -0.3330   -1.9755 H   0  0  0  0  0  0
    1.2299    3.4415    1.3027 H   0  0  0  0  0  0
   -4.3223   -0.3572   -0.9985 H   0  0  0  0  0  0
   -4.0458   -2.0276    0.8132 H   0  0  0  0  0  0
   -4.7823   -0.8938    1.9709 H   0  0  0  0  0  0
   -6.1320   -2.0141   -0.5271 H   0  0  0  0  0  0
   -6.4507   -2.5322    1.1457 H   0  0  0  0  0  0
   -8.1489   -0.8945    0.3823 H   0  0  0  0  0  0
   -7.1784   -0.2321    1.7193 H   0  0  0  0  0  0
   -6.7184    0.3044   -1.2501 H   0  0  0  0  0  0
   -7.4549    1.4382   -0.0924 H   0  0  0  0  0  0
   -5.3687    1.4247    1.2479 H   0  0  0  0  0  0
   -5.0500    1.9428   -0.4249 H   0  0  0  0  0  0
   -1.6001   -0.7934   -0.6909 H   0  0  0  0  0  0
   -1.1212   -0.9608   -2.4127 H   0  0  0  0  0  0
   -1.4544   -3.1949   -0.8965 H   0  0  0  0  0  0
   -0.0603   -3.0966   -2.0240 H   0  0  0  0  0  0
    1.0611   -3.4960    0.0645 H   0  0  0  0  0  0
   -0.1298   -2.5298    0.9861 H   0  0  0  0  0  0
  1  2  1  0  0  0
  1  6  2  0  0  0
  1 13  1  0  0  0
  2  3  2  0  0  0
  2  8  1  0  0  0
  3  4  1  0  0  0
  3  7  1  0  0  0
  4  5  2  0  0  0
  4 29  1  0  0  0
  5  6  1  0  0  0
  5 30  1  0  0  0
  6 31  1  0  0  0
  8  9  2  0  0  0
  8 10  1  0  0  0
 10 11  1  0  0  0
 10 28  1  0  0  0
 11 12  1  0  0  0
 11 26  1  0  0  0
 11 32  1  0  0  0
 12 13  1  0  0  0
 12 16  2  0  0  0
 13 14  1  0  0  0
 14 15  2  0  0  0
 14 33  1  0  0  0
 15 16  1  0  0  0
 16 17  1  0  0  0
 17 18  2  0  0  0
 17 19  1  0  0  0
 19 20  1  0  0  0
 20 21  1  0  0  0
 20 25  1  0  0  0
 20 34  1  0  0  0
 21 22  1  0  0  0
 21 35  1  0  0  0
 21 36  1  0  0  0
 22 23  1  0  0  0
 22 37  1  0  0  0
 22 38  1  0  0  0
 23 24  1  0  0  0
 23 39  1  0  0  0
 23 40  1  0  0  0
 24 25  1  0  0  0
 24 41  1  0  0  0
 24 42  1  0  0  0
 25 43  1  0  0  0
 25 44  1  0  0  0
 26 27  1  0  0  0
 26 45  1  0  0  0
 26 46  1  0  0  0
 27 28  1  0  0  0
 27 47  1  0  0  0
 27 48  1  0  0  0
 28 49  1  0  0  0
 28 50  1  0  0  0
M  END
>  <Activity>
8.39794

>  <set>
1

>  <Min_dist>
999.9

>  <Avg_dist>
999.9

$$$$
RO17-1302
  Cerius2 12110214493D 1   1.00000                          
 
 44 48  0  0  0  0  0  0  0  0999 V2000
    2.5626    1.3442   -0.0026 C   0  0  0  0  0  0
    3.1255    0.0758    0.1395 C   0  0  0  0  0  0
    4.5112   -0.0800   -0.0422 C   0  0  0  0  0  0
    5.3027    1.0050   -0.3468 C   0  0  0  0  0  0
    4.7383    2.2621   -0.4760 C   0  0  0  0  0  0
    3.3803    2.4308   -0.3058 C   0  0  0  0  0  0
    5.2297   -1.6521    0.1192 Cl  0  0  0  0  0  0
    2.3498   -1.1211    0.4851 C   0  0  0  0  0  0
    2.8494   -1.9117    1.2621 O   0  0  0  0  0  0
    1.1337   -1.4052    0.0082 N   0  0  0  0  0  0
    0.3546   -0.5683   -0.9204 C   0  0  0  0  0  0
    0.1800    0.7818   -0.2792 C   0  0  0  0  0  0
    1.1943    1.5877    0.1294 N   0  0  0  0  0  0
    0.6282    2.6986    0.6819 C   0  0  0  0  0  0
   -0.6672    2.6008    0.6000 N   0  0  0  0  0  0
   -0.9862    1.4217    0.0039 C   0  0  0  0  0  0
   -2.3427    0.9285   -0.2828 C   0  0  0  0  0  0
   -2.7784    0.9724   -1.4167 O   0  0  0  0  0  0
   -3.1022    0.4279    0.7122 O   0  0  0  0  0  0
   -4.3903    0.0689    0.4691 C   0  0  0  0  0  0
   -4.7002   -1.2511    0.1754 C   0  0  0  0  0  0
   -6.0102   -1.6134   -0.0713 C   0  0  0  0  0  0
   -7.0122   -0.6617   -0.0258 C   0  0  0  0  0  0
   -6.7060    0.6545    0.2667 C   0  0  0  0  0  0
   -5.3983    1.0209    0.5198 C   0  0  0  0  0  0
   -1.0160   -1.2452   -1.1087 C   0  0  0  0  0  0
   -0.7042   -2.7328   -0.7925 C   0  0  0  0  0  0
    0.3343   -2.5978    0.3477 C   0  0  0  0  0  0
    6.3659    0.8747   -0.4848 H   0  0  0  0  0  0
    5.3622    3.1119   -0.7107 H   0  0  0  0  0  0
    2.9465    3.4146   -0.4081 H   0  0  0  0  0  0
    0.8760   -0.4712   -1.8727 H   0  0  0  0  0  0
    1.1679    3.5264    1.1178 H   0  0  0  0  0  0
   -3.9178   -1.9948    0.1394 H   0  0  0  0  0  0
   -6.2519   -2.6408   -0.3003 H   0  0  0  0  0  0
   -8.0357   -0.9469   -0.2193 H   0  0  0  0  0  0
   -7.4905    1.3960    0.3016 H   0  0  0  0  0  0
   -5.1596    2.0491    0.7482 H   0  0  0  0  0  0
   -1.7453   -0.8447   -0.4045 H   0  0  0  0  0  0
   -1.3654   -1.1328   -2.1350 H   0  0  0  0  0  0
   -1.5971   -3.2544   -0.4479 H   0  0  0  0  0  0
   -0.2709   -3.2336   -1.6583 H   0  0  0  0  0  0
    0.9713   -3.4815    0.3849 H   0  0  0  0  0  0
   -0.1704   -2.4547    1.3032 H   0  0  0  0  0  0
  1  2  1  0  0  0
  1  6  2  0  0  0
  1 13  1  0  0  0
  2  3  2  0  0  0
  2  8  1  0  0  0
  3  4  1  0  0  0
  3  7  1  0  0  0
  4  5  2  0  0  0
  4 29  1  0  0  0
  5  6  1  0  0  0
  5 30  1  0  0  0
  6 31  1  0  0  0
  8  9  2  0  0  0
  8 10  1  0  0  0
 10 11  1  0  0  0
 10 28  1  0  0  0
 11 12  1  0  0  0
 11 26  1  0  0  0
 11 32  1  0  0  0
 12 13  1  0  0  0
 12 16  2  0  0  0
 13 14  1  0  0  0
 14 15  2  0  0  0
 14 33  1  0  0  0
 15 16  1  0  0  0
 16 17  1  0  0  0
 17 18  2  0  0  0
 17 19  1  0  0  0
 19 20  1  0  0  0
 20 21  1  0  0  0
 20 25  2  0  0  0
 21 22  2  0  0  0
 21 34  1  0  0  0
 22 23  1  0  0  0
 22 35  1  0  0  0
 23 24  2  0  0  0
 23 36  1  0  0  0
 24 25  1  0  0  0
 24 37  1  0  0  0
 25 38  1  0  0  0
 26 27  1  0  0  0
 26 39  1  0  0  0
 26 40  1  0  0  0
 27 28  1  0  0  0
 27 41  1  0  0  0
 27 42  1  0  0  0
 28 43  1  0  0  0
 28 44  1  0  0  0
M  END
>  <Activity>
8.27572

>  <set>
1

>  <Min_dist>
999.9

>  <Avg_dist>
999.9

$$$$
RO16-8912
  Cerius2 12110214493D 1   1.00000                          
 
 46 49  0  0  0  0  0  0  0  0999 V2000
    2.3791    1.1498    0.0365 C   0  0  0  0  0  0
    2.9064   -0.1356    0.1645 C   0  0  0  0  0  0
    4.2904   -0.3256   -0.0066 C   0  0  0  0  0  0
    5.1136    0.7442   -0.2877 C   0  0  0  0  0  0
    4.5831    2.0166   -0.4032 C   0  0  0  0  0  0
    3.2281    2.2183   -0.2424 C   0  0  0  0  0  0
    4.8162   -1.5650    0.1058 F   0  0  0  0  0  0
    2.0962   -1.3157    0.4839 C   0  0  0  0  0  0
    2.5666   -2.1307    1.2540 O   0  0  0  0  0  0
    0.8781   -1.5606   -0.0095 N   0  0  0  0  0  0
    0.1304   -0.6888   -0.9318 C   0  0  0  0  0  0
   -0.0151    0.6551   -0.2710 C   0  0  0  0  0  0
    1.0165    1.4279    0.1595 N   0  0  0  0  0  0
    0.4746    2.5449    0.7240 C   0  0  0  0  0  0
   -0.8221    2.4825    0.6290 N   0  0  0  0  0  0
   -1.1667    1.3211    0.0113 C   0  0  0  0  0  0
   -2.5332    0.8690   -0.2958 C   0  0  0  0  0  0
   -2.9504    0.9264   -1.4360 O   0  0  0  0  0  0
   -3.3220    0.3914    0.6873 O   0  0  0  0  0  0
   -4.6702   -0.0547    0.3843 C   0  0  0  0  0  0
   -5.3452   -0.5457    1.6665 C   0  0  0  0  0  0
   -5.4728    1.1089   -0.2012 C   0  0  0  0  0  0
   -4.6131   -1.1972   -0.6318 C   0  0  0  0  0  0
   -1.2555   -1.3265   -1.1441 C   0  0  0  0  0  0
   -0.9853   -2.8267   -0.8498 C   0  0  0  0  0  0
    0.0449   -2.7375    0.3023 C   0  0  0  0  0  0
    6.1745    0.5886   -0.4175 H   0  0  0  0  0  0
    5.2309    2.8533   -0.6192 H   0  0  0  0  0  0
    2.8214    3.2146   -0.3337 H   0  0  0  0  0  0
    0.6636   -0.5906   -1.8774 H   0  0  0  0  0  0
    1.0318    3.3514    1.1772 H   0  0  0  0  0  0
   -6.3572   -0.8806    1.4391 H   0  0  0  0  0  0
   -4.7733   -1.3747    2.0836 H   0  0  0  0  0  0
   -5.3858    0.2682    2.3904 H   0  0  0  0  0  0
   -5.5135    1.9228    0.5227 H   0  0  0  0  0  0
   -4.9919    1.4587   -1.1146 H   0  0  0  0  0  0
   -6.4849    0.7741   -0.4286 H   0  0  0  0  0  0
   -4.0413   -2.0261   -0.2147 H   0  0  0  0  0  0
   -5.6251   -1.5320   -0.8592 H   0  0  0  0  0  0
   -4.1322   -0.8473   -1.5452 H   0  0  0  0  0  0
   -1.9810   -0.9187   -0.4403 H   0  0  0  0  0  0
   -1.5917   -1.1883   -2.1717 H   0  0  0  0  0  0
   -1.8948   -3.3305   -0.5224 H   0  0  0  0  0  0
   -0.5566   -3.3244   -1.7196 H   0  0  0  0  0  0
    0.6587   -3.6379    0.3307 H   0  0  0  0  0  0
   -0.4653   -2.5972    1.2552 H   0  0  0  0  0  0
  1  2  1  0  0  0
  1  6  2  0  0  0
  1 13  1  0  0  0
  2  3  2  0  0  0
  2  8  1  0  0  0
  3  4  1  0  0  0
  3  7  1  0  0  0
  4  5  2  0  0  0
  4 27  1  0  0  0
  5  6  1  0  0  0
  5 28  1  0  0  0
  6 29  1  0  0  0
  8  9  2  0  0  0
  8 10  1  0  0  0
 10 11  1  0  0  0
 10 26  1  0  0  0
 11 12  1  0  0  0
 11 24  1  0  0  0
 11 30  1  0  0  0
 12 13  1  0  0  0
 12 16  2  0  0  0
 13 14  1  0  0  0
 14 15  2  0  0  0
 14 31  1  0  0  0
 15 16  1  0  0  0
 16 17  1  0  0  0
 17 18  2  0  0  0
 17 19  1  0  0  0
 19 20  1  0  0  0
 20 21  1  0  0  0
 20 22  1  0  0  0
 20 23  1  0  0  0
 21 32  1  0  0  0
 21 33  1  0  0  0
 21 34  1  0  0  0
 22 35  1  0  0  0
 22 36  1  0  0  0
 22 37  1  0  0  0
 23 38  1  0  0  0
 23 39  1  0  0  0
 23 40  1  0  0  0
 24 25  1  0  0  0
 24 41  1  0  0  0
 24 42  1  0  0  0
 25 26  1  0  0  0
 25 43  1  0  0  0
 25 44  1  0  0  0
 26 45  1  0  0  0
 26 46  1  0  0  0
M  END
>  <Activity>
8.20761

>  <set>
1

>  <Min_dist>
999.9

>  <Avg_dist>
999.9

$$$$
RO16-7082
  Cerius2 12110214493D 1   1.00000                          
 
 46 49  0  0  0  0  0  0  0  0999 V2000
    2.2228    1.3130    0.1696 C   0  0  0  0  0  0
    2.7188    0.0099    0.2086 C   0  0  0  0  0  0
    4.1079   -0.1941    0.1291 C   0  0  0  0  0  0
    4.9669    0.8771    0.0236 C   0  0  0  0  0  0
    4.4676    2.1677   -0.0046 C   0  0  0  0  0  0
    3.1077    2.3844    0.0679 C   0  0  0  0  0  0
    4.7448   -1.8086    0.1647 Cl  0  0  0  0  0  0
    1.8673   -1.1778    0.3429 C   0  0  0  0  0  0
    2.2618   -2.0759    1.0614 O   0  0  0  0  0  0
    0.6893   -1.3440   -0.2669 N   0  0  0  0  0  0
    0.0323   -0.3683   -1.1535 C   0  0  0  0  0  0
   -0.1459    0.9068   -0.3746 C   0  0  0  0  0  0
    0.8590    1.6089    0.2119 N   0  0  0  0  0  0
    0.2901    2.6766    0.8413 C   0  0  0  0  0  0
   -0.9954    2.6542    0.6378 N   0  0  0  0  0  0
   -1.3063    1.5681   -0.1191 C   0  0  0  0  0  0
   -2.6500    1.1804   -0.5773 C   0  0  0  0  0  0
   -2.9740    1.3638   -1.7344 O   0  0  0  0  0  0
   -3.5215    0.6219    0.2861 O   0  0  0  0  0  0
   -4.8472    0.2394   -0.1660 C   0  0  0  0  0  0
   -5.6293   -0.3657    1.0015 C   0  0  0  0  0  0
   -7.0263   -0.7688    0.5251 C   0  0  0  0  0  0
   -4.8924   -1.6008    1.5235 C   0  0  0  0  0  0
   -1.3415   -0.9494   -1.5374 C   0  0  0  0  0  0
   -1.1197   -2.4771   -1.3736 C   0  0  0  0  0  0
   -0.1849   -2.5257   -0.1405 C   0  0  0  0  0  0
    6.0321    0.7098   -0.0369 H   0  0  0  0  0  0
    5.1440    3.0060   -0.0831 H   0  0  0  0  0  0
    2.7250    3.3941    0.0453 H   0  0  0  0  0  0
    0.6418   -0.1896   -2.0393 H   0  0  0  0  0  0
    0.8208    3.4210    1.4162 H   0  0  0  0  0  0
   -5.3722    1.1192   -0.5378 H   0  0  0  0  0  0
   -4.7602   -0.4966   -0.9653 H   0  0  0  0  0  0
   -5.7163    0.3702    1.8008 H   0  0  0  0  0  0
   -7.5835   -1.1999    1.3569 H   0  0  0  0  0  0
   -7.5513    0.1111    0.1533 H   0  0  0  0  0  0
   -6.9393   -1.5048   -0.2742 H   0  0  0  0  0  0
   -4.8054   -2.3368    0.7242 H   0  0  0  0  0  0
   -3.8972   -1.3136    1.8629 H   0  0  0  0  0  0
   -5.4496   -2.0319    2.3552 H   0  0  0  0  0  0
   -2.1153   -0.5956   -0.8561 H   0  0  0  0  0  0
   -1.5911   -0.7031   -2.5695 H   0  0  0  0  0  0
   -2.0605   -2.9890   -1.1710 H   0  0  0  0  0  0
   -0.6296   -2.8970   -2.2521 H   0  0  0  0  0  0
    0.4102   -3.4388   -0.1535 H   0  0  0  0  0  0
   -0.7684   -2.4673    0.7783 H   0  0  0  0  0  0
  1  2  1  0  0  0
  1  6  2  0  0  0
  1 13  1  0  0  0
  2  3  2  0  0  0
  2  8  1  0  0  0
  3  4  1  0  0  0
  3  7  1  0  0  0
  4  5  2  0  0  0
  4 27  1  0  0  0
  5  6  1  0  0  0
  5 28  1  0  0  0
  6 29  1  0  0  0
  8  9  2  0  0  0
  8 10  1  0  0  0
 10 11  1  0  0  0
 10 26  1  0  0  0
 11 12  1  0  0  0
 11 24  1  0  0  0
 11 30  1  0  0  0
 12 13  1  0  0  0
 12 16  2  0  0  0
 13 14  1  0  0  0
 14 15  2  0  0  0
 14 31  1  0  0  0
 15 16  1  0  0  0
 16 17  1  0  0  0
 17 18  2  0  0  0
 17 19  1  0  0  0
 19 20  1  0  0  0
 20 21  1  0  0  0
 20 32  1  0  0  0
 20 33  1  0  0  0
 21 22  1  0  0  0
 21 23  1  0  0  0
 21 34  1  0  0  0
 22 35  1  0  0  0
 22 36  1  0  0  0
 22 37  1  0  0  0
 23 38  1  0  0  0
 23 39  1  0  0  0
 23 40  1  0  0  0
 24 25  1  0  0  0
 24 41  1  0  0  0
 24 42  1  0  0  0
 25 26  1  0  0  0
 25 43  1  0  0  0
 25 44  1  0  0  0
 26 45  1  0  0  0
 26 46  1  0  0  0
M  END
>  <Activity>
8.20066

>  <set>
1

>  <Min_dist>
999.9

>  <Avg_dist>
999.9

$$$$
RO14-5974
  Cerius2 12110214493D 1   1.00000                          
 
 40 43  0  0  0  0  0  0  0  0999 V2000
    2.2770    0.8766    0.0727 C   0  0  0  0  0  0
    2.6966   -0.4461    0.2118 C   0  0  0  0  0  0
    4.0632   -0.7451    0.0833 C   0  0  0  0  0  0
    4.9766    0.2523   -0.1663 C   0  0  0  0  0  0
    4.5551    1.5652   -0.2936 C   0  0  0  0  0  0
    3.2171    1.8752   -0.1753 C   0  0  0  0  0  0
    1.7845   -1.5598    0.5017 C   0  0  0  0  0  0
    2.1644   -2.4110    1.2823 O   0  0  0  0  0  0
    0.5666   -1.7055   -0.0300 N   0  0  0  0  0  0
   -0.0796   -0.7759   -0.9723 C   0  0  0  0  0  0
   -0.1381    0.5747   -0.3114 C   0  0  0  0  0  0
    0.9377    1.2620    0.1544 N   0  0  0  0  0  0
    0.4689    2.4179    0.7059 C   0  0  0  0  0  0
   -0.8249    2.4594    0.5696 N   0  0  0  0  0  0
   -1.2413    1.3301   -0.0631 C   0  0  0  0  0  0
   -2.6291    0.9886   -0.4144 C   0  0  0  0  0  0
   -3.0056    1.0843   -1.5661 O   0  0  0  0  0  0
   -3.4826    0.5698    0.5412 O   0  0  0  0  0  0
   -4.8518    0.2329    0.1947 C   0  0  0  0  0  0
   -5.6020   -0.2098    1.4525 C   0  0  0  0  0  0
   -1.5047   -1.3003   -1.2300 C   0  0  0  0  0  0
   -1.3652   -2.8175   -0.9317 C   0  0  0  0  0  0
   -0.3678   -2.8117    0.2524 C   0  0  0  0  0  0
    4.3994   -1.7667    0.1817 H   0  0  0  0  0  0
    6.0249    0.0111   -0.2629 H   0  0  0  0  0  0
    5.2752    2.3469   -0.4853 H   0  0  0  0  0  0
    2.8945    2.9011   -0.2752 H   0  0  0  0  0  0
    0.4893   -0.7196   -1.9004 H   0  0  0  0  0  0
    1.0740    3.1766    1.1800 H   0  0  0  0  0  0
   -5.3437    1.1064   -0.2333 H   0  0  0  0  0  0
   -4.8532   -0.5781   -0.5336 H   0  0  0  0  0  0
   -6.6298   -0.4627    1.1924 H   0  0  0  0  0  0
   -5.1101   -1.0832    1.8805 H   0  0  0  0  0  0
   -5.6006    0.6013    2.1807 H   0  0  0  0  0  0
   -2.2170   -0.8359   -0.5481 H   0  0  0  0  0  0
   -1.7961   -1.1352   -2.2672 H   0  0  0  0  0  0
   -2.3220   -3.2467   -0.6344 H   0  0  0  0  0  0
   -0.9505   -3.3476   -1.7890 H   0  0  0  0  0  0
    0.1704   -3.7585    0.2975 H   0  0  0  0  0  0
   -0.8949   -2.6310    1.1893 H   0  0  0  0  0  0
  1  2  1  0  0  0
  1  6  2  0  0  0
  1 12  1  0  0  0
  2  3  2  0  0  0
  2  7  1  0  0  0
  3  4  1  0  0  0
  3 24  1  0  0  0
  4  5  2  0  0  0
  4 25  1  0  0  0
  5  6  1  0  0  0
  5 26  1  0  0  0
  6 27  1  0  0  0
  7  8  2  0  0  0
  7  9  1  0  0  0
  9 10  1  0  0  0
  9 23  1  0  0  0
 10 11  1  0  0  0
 10 21  1  0  0  0
 10 28  1  0  0  0
 11 12  1  0  0  0
 11 15  2  0  0  0
 12 13  1  0  0  0
 13 14  2  0  0  0
 13 29  1  0  0  0
 14 15  1  0  0  0
 15 16  1  0  0  0
 16 17  2  0  0  0
 16 18  1  0  0  0
 18 19  1  0  0  0
 19 20  1  0  0  0
 19 30  1  0  0  0
 19 31  1  0  0  0
 20 32  1  0  0  0
 20 33  1  0  0  0
 20 34  1  0  0  0
 21 22  1  0  0  0
 21 35  1  0  0  0
 21 36  1  0  0  0
 22 23  1  0  0  0
 22 37  1  0  0  0
 22 38  1  0  0  0
 23 39  1  0  0  0
 23 40  1  0  0  0
M  END
>  <Activity>
8.19382

>  <set>
1

>  <Min_dist>
999.9

>  <Avg_dist>
999.9

$$$$
RO16-4261
  Cerius2 12110214493D 1   1.00000                          
 
 46 49  0  0  0  0  0  0  0  0999 V2000
    2.3559    0.9010    0.0966 C   0  0  0  0  0  0
    2.8018   -0.4128    0.2380 C   0  0  0  0  0  0
    4.1715   -0.6881    0.0900 C   0  0  0  0  0  0
    5.0637    0.3256   -0.1811 C   0  0  0  0  0  0
    4.6143    1.6311   -0.3101 C   0  0  0  0  0  0
    3.2726    1.9155   -0.1729 C   0  0  0  0  0  0
    6.3784    0.0477   -0.3212 F   0  0  0  0  0  0
    1.9150   -1.5408    0.5498 C   0  0  0  0  0  0
    2.3227   -2.3793    1.3302 O   0  0  0  0  0  0
    0.6919   -1.7128    0.0386 N   0  0  0  0  0  0
    0.0138   -0.8020   -0.8997 C   0  0  0  0  0  0
   -0.0595    0.5519   -0.2470 C   0  0  0  0  0  0
    1.0103    1.2622    0.1968 N   0  0  0  0  0  0
    0.5291    2.4129    0.7480 C   0  0  0  0  0  0
   -0.7674    2.4297    0.6320 N   0  0  0  0  0  0
   -1.1726    1.2885    0.0136 C   0  0  0  0  0  0
   -2.5591    0.9189   -0.3131 C   0  0  0  0  0  0
   -2.9542    0.9952   -1.4601 O   0  0  0  0  0  0
   -3.3910    0.4958    0.6595 O   0  0  0  0  0  0
   -4.7589    0.1312    0.3371 C   0  0  0  0  0  0
   -5.4827   -0.3106    1.6106 C   0  0  0  0  0  0
   -5.4797    1.3382   -0.2666 C   0  0  0  0  0  0
   -4.7559   -1.0184   -0.6726 C   0  0  0  0  0  0
   -1.4052   -1.3545   -1.1311 C   0  0  0  0  0  0
   -1.2329   -2.8667   -0.8248 C   0  0  0  0  0  0
   -0.2173   -2.8341    0.3433 C   0  0  0  0  0  0
    4.5277   -1.7028    0.1900 H   0  0  0  0  0  0
    5.3159    2.4254   -0.5185 H   0  0  0  0  0  0
    2.9286    2.9341   -0.2745 H   0  0  0  0  0  0
    0.5668   -0.7417   -1.8370 H   0  0  0  0  0  0
    1.1274    3.1861    1.2069 H   0  0  0  0  0  0
   -6.5096   -0.5843    1.3686 H   0  0  0  0  0  0
   -4.9692   -1.1705    2.0407 H   0  0  0  0  0  0
   -5.4849    0.5084    2.3299 H   0  0  0  0  0  0
   -5.4819    2.1572    0.4527 H   0  0  0  0  0  0
   -4.9641    1.6529   -1.1739 H   0  0  0  0  0  0
   -6.5067    1.0645   -0.5086 H   0  0  0  0  0  0
   -4.2424   -1.8783   -0.2425 H   0  0  0  0  0  0
   -5.7828   -1.2921   -0.9146 H   0  0  0  0  0  0
   -4.2403   -0.7037   -1.5799 H   0  0  0  0  0  0
   -2.1153   -0.8985   -0.4412 H   0  0  0  0  0  0
   -1.7160   -1.2021   -2.1647 H   0  0  0  0  0  0
   -2.1767   -3.3114   -0.5095 H   0  0  0  0  0  0
   -0.8220   -3.3951   -1.6850 H   0  0  0  0  0  0
    0.3390   -3.7704    0.3863 H   0  0  0  0  0  0
   -0.7328   -2.6565    1.2871 H   0  0  0  0  0  0
  1  2  1  0  0  0
  1  6  2  0  0  0
  1 13  1  0  0  0
  2  3  2  0  0  0
  2  8  1  0  0  0
  3  4  1  0  0  0
  3 27  1  0  0  0
  4  5  2  0  0  0
  4  7  1  0  0  0
  5  6  1  0  0  0
  5 28  1  0  0  0
  6 29  1  0  0  0
  8  9  2  0  0  0
  8 10  1  0  0  0
 10 11  1  0  0  0
 10 26  1  0  0  0
 11 12  1  0  0  0
 11 24  1  0  0  0
 11 30  1  0  0  0
 12 13  1  0  0  0
 12 16  2  0  0  0
 13 14  1  0  0  0
 14 15  2  0  0  0
 14 31  1  0  0  0
 15 16  1  0  0  0
 16 17  1  0  0  0
 17 18  2  0  0  0
 17 19  1  0  0  0
 19 20  1  0  0  0
 20 21  1  0  0  0
 20 22  1  0  0  0
 20 23  1  0  0  0
 21 32  1  0  0  0
 21 33  1  0  0  0
 21 34  1  0  0  0
 22 35  1  0  0  0
 22 36  1  0  0  0
 22 37  1  0  0  0
 23 38  1  0  0  0
 23 39  1  0  0  0
 23 40  1  0  0  0
 24 25  1  0  0  0
 24 41  1  0  0  0
 24 42  1  0  0  0
 25 26  1  0  0  0
 25 43  1  0  0  0
 25 44  1  0  0  0
 26 45  1  0  0  0
 26 46  1  0  0  0
M  END
>  <Activity>
8.11351

>  <set>
1

>  <Min_dist>
999.9

>  <Avg_dist>
999.9

$$$$
RO16-6624
  Cerius2 12110214493D 1   1.00000                          
 
 52 55  0  0  0  0  0  0  0  0999 V2000
    2.1694    1.3144   -0.0236 C   0  0  0  0  0  0
    2.7553    0.0493    0.0147 C   0  0  0  0  0  0
    4.1374   -0.0691   -0.2076 C   0  0  0  0  0  0
    4.9046    1.0463   -0.4501 C   0  0  0  0  0  0
    4.3187    2.3008   -0.4771 C   0  0  0  0  0  0
    2.9629    2.4342   -0.2658 C   0  0  0  0  0  0
    4.7849   -1.4296   -0.1797 C   0  0  0  0  0  0
    5.2439   -1.7469    1.2449 C   0  0  0  0  0  0
    2.0062   -1.1831    0.2906 C   0  0  0  0  0  0
    2.5357   -2.0183    0.9979 O   0  0  0  0  0  0
    0.7842   -1.4534   -0.1792 N   0  0  0  0  0  0
   -0.0289   -0.5657   -1.0282 C   0  0  0  0  0  0
   -0.2101    0.7317   -0.2879 C   0  0  0  0  0  0
    0.8009    1.5241    0.1556 N   0  0  0  0  0  0
    0.2302    2.5827    0.7987 C   0  0  0  0  0  0
   -1.0650    2.4685    0.7381 N   0  0  0  0  0  0
   -1.3795    1.3294    0.0655 C   0  0  0  0  0  0
   -2.7345    0.8347   -0.2262 C   0  0  0  0  0  0
   -3.1901    0.9364   -1.3485 O   0  0  0  0  0  0
   -3.4703    0.2690    0.7512 O   0  0  0  0  0  0
   -4.8073   -0.2191    0.4634 C   0  0  0  0  0  0
   -5.4193   -0.8097    1.7352 C   0  0  0  0  0  0
   -5.6771    0.9383   -0.0313 C   0  0  0  0  0  0
   -4.7340   -1.3000   -0.6169 C   0  0  0  0  0  0
   -1.3926   -1.2511   -1.2351 C   0  0  0  0  0  0
   -1.0503   -2.7518   -1.0335 C   0  0  0  0  0  0
    0.0115   -2.6808    0.0908 C   0  0  0  0  0  0
    5.9663    0.9437   -0.6194 H   0  0  0  0  0  0
    4.9244    3.1753   -0.6635 H   0  0  0  0  0  0
    2.5118    3.4152   -0.2879 H   0  0  0  0  0  0
    4.0656   -2.1810   -0.5055 H   0  0  0  0  0  0
    5.6454   -1.4363   -0.8487 H   0  0  0  0  0  0
    5.7122   -2.7309    1.2651 H   0  0  0  0  0  0
    5.9632   -0.9955    1.5707 H   0  0  0  0  0  0
    4.3834   -1.7402    1.9139 H   0  0  0  0  0  0
    0.4692   -0.3917   -1.9820 H   0  0  0  0  0  0
    0.7667    3.3864    1.2811 H   0  0  0  0  0  0
   -6.4229   -1.1760    1.5192 H   0  0  0  0  0  0
   -4.7996   -1.6342    2.0877 H   0  0  0  0  0  0
   -5.4715   -0.0396    2.5049 H   0  0  0  0  0  0
   -5.7293    1.7084    0.7384 H   0  0  0  0  0  0
   -5.2411    1.3591   -0.9373 H   0  0  0  0  0  0
   -6.6808    0.5719   -0.2473 H   0  0  0  0  0  0
   -4.1143   -2.1245   -0.2644 H   0  0  0  0  0  0
   -5.7376   -1.6664   -0.8329 H   0  0  0  0  0  0
   -4.2980   -0.8793   -1.5229 H   0  0  0  0  0  0
   -2.1119   -0.9146   -0.4885 H   0  0  0  0  0  0
   -1.7669   -1.0716   -2.2430 H   0  0  0  0  0  0
   -1.9269   -3.3121   -0.7082 H   0  0  0  0  0  0
   -0.6290   -3.1818   -1.9422 H   0  0  0  0  0  0
    0.6631   -3.5537    0.0506 H   0  0  0  0  0  0
   -0.4735   -2.6152    1.0648 H   0  0  0  0  0  0
  1  2  1  0  0  0
  1  6  2  0  0  0
  1 14  1  0  0  0
  2  3  2  0  0  0
  2  9  1  0  0  0
  3  4  1  0  0  0
  3  7  1  0  0  0
  4  5  2  0  0  0
  4 28  1  0  0  0
  5  6  1  0  0  0
  5 29  1  0  0  0
  6 30  1  0  0  0
  7  8  1  0  0  0
  7 31  1  0  0  0
  7 32  1  0  0  0
  8 33  1  0  0  0
  8 34  1  0  0  0
  8 35  1  0  0  0
  9 10  2  0  0  0
  9 11  1  0  0  0
 11 12  1  0  0  0
 11 27  1  0  0  0
 12 13  1  0  0  0
 12 25  1  0  0  0
 12 36  1  0  0  0
 13 14  1  0  0  0
 13 17  2  0  0  0
 14 15  1  0  0  0
 15 16  2  0  0  0
 15 37  1  0  0  0
 16 17  1  0  0  0
 17 18  1  0  0  0
 18 19  2  0  0  0
 18 20  1  0  0  0
 20 21  1  0  0  0
 21 22  1  0  0  0
 21 23  1  0  0  0
 21 24  1  0  0  0
 22 38  1  0  0  0
 22 39  1  0  0  0
 22 40  1  0  0  0
 23 41  1  0  0  0
 23 42  1  0  0  0
 23 43  1  0  0  0
 24 44  1  0  0  0
 24 45  1  0  0  0
 24 46  1  0  0  0
 25 26  1  0  0  0
 25 47  1  0  0  0
 25 48  1  0  0  0
 26 27  1  0  0  0
 26 49  1  0  0  0
 26 50  1  0  0  0
 27 51  1  0  0  0
 27 52  1  0  0  0
M  END
>  <Activity>
8

>  <set>
1

>  <Min_dist>
999.9

>  <Avg_dist>
999.9

$$$$
RO16-3607
  Cerius2 12110214493D 1   1.00000                          
 
 50 53  0  0  0  0  0  0  0  0999 V2000
    2.1200    1.2667    0.0447 C   0  0  0  0  0  0
    2.6889   -0.0006    0.1796 C   0  0  0  0  0  0
    4.0820   -0.1454    0.0135 C   0  0  0  0  0  0
    4.8707    0.9545   -0.2697 C   0  0  0  0  0  0
    4.2965    2.2057   -0.3907 C   0  0  0  0  0  0
    2.9339    2.3612   -0.2353 C   0  0  0  0  0  0
    4.6515   -1.3708    0.1327 O   0  0  0  0  0  0
    6.0531   -1.1978   -0.0856 C   0  0  0  0  0  0
    1.9178   -1.2043    0.5004 C   0  0  0  0  0  0
    2.4124   -2.0004    1.2754 O   0  0  0  0  0  0
    0.7102   -1.4916    0.0041 N   0  0  0  0  0  0
   -0.0631   -0.6486   -0.9239 C   0  0  0  0  0  0
   -0.2551    0.6923   -0.2689 C   0  0  0  0  0  0
    0.7485    1.5001    0.1619 N   0  0  0  0  0  0
    0.1681    2.6009    0.7198 C   0  0  0  0  0  0
   -1.1255    2.4953    0.6206 N   0  0  0  0  0  0
   -1.4290    1.3211    0.0071 C   0  0  0  0  0  0
   -2.7785    0.8221   -0.3020 C   0  0  0  0  0  0
   -3.1940    0.8604   -1.4437 O   0  0  0  0  0  0
   -3.5539    0.3225    0.6809 O   0  0  0  0  0  0
   -4.8854   -0.1698    0.3759 C   0  0  0  0  0  0
   -5.5476   -0.6776    1.6583 C   0  0  0  0  0  0
   -5.7248    0.9636   -0.2171 C   0  0  0  0  0  0
   -4.7869   -1.3142   -0.6348 C   0  0  0  0  0  0
   -1.4263   -1.3328   -1.1380 C   0  0  0  0  0  0
   -1.1074   -2.8221   -0.8372 C   0  0  0  0  0  0
   -0.0842   -2.6945    0.3177 C   0  0  0  0  0  0
    5.9366    0.8357   -0.3960 H   0  0  0  0  0  0
    4.9154    3.0638   -0.6075 H   0  0  0  0  0  0
    2.4942    3.3429   -0.3312 H   0  0  0  0  0  0
    6.5559   -2.1611    0.0006 H   0  0  0  0  0  0
    6.2180   -0.7899   -1.0828 H   0  0  0  0  0  0
    6.4547   -0.5105    0.6591 H   0  0  0  0  0  0
    0.4695   -0.5364   -1.8683 H   0  0  0  0  0  0
    0.6967    3.4271    1.1717 H   0  0  0  0  0  0
   -6.5471   -1.0472    1.4294 H   0  0  0  0  0  0
   -4.9495   -1.4851    2.0808 H   0  0  0  0  0  0
   -5.6177    0.1377    2.3784 H   0  0  0  0  0  0
   -5.7950    1.7789    0.5030 H   0  0  0  0  0  0
   -5.2531    1.3254   -1.1307 H   0  0  0  0  0  0
   -6.7244    0.5940   -0.4461 H   0  0  0  0  0  0
   -4.1889   -2.1216   -0.2123 H   0  0  0  0  0  0
   -5.7865   -1.6838   -0.8638 H   0  0  0  0  0  0
   -4.3152   -0.9524   -1.5485 H   0  0  0  0  0  0
   -2.1672   -0.9468   -0.4378 H   0  0  0  0  0  0
   -1.7638   -1.2096   -2.1671 H   0  0  0  0  0  0
   -2.0006   -3.3547   -0.5107 H   0  0  0  0  0  0
   -0.6595   -3.3084   -1.7038 H   0  0  0  0  0  0
    0.5590   -3.5738    0.3512 H   0  0  0  0  0  0
   -0.6019   -2.5679    1.2685 H   0  0  0  0  0  0
  1  2  1  0  0  0
  1  6  2  0  0  0
  1 14  1  0  0  0
  2  3  2  0  0  0
  2  9  1  0  0  0
  3  4  1  0  0  0
  3  7  1  0  0  0
  4  5  2  0  0  0
  4 28  1  0  0  0
  5  6  1  0  0  0
  5 29  1  0  0  0
  6 30  1  0  0  0
  7  8  1  0  0  0
  8 31  1  0  0  0
  8 32  1  0  0  0
  8 33  1  0  0  0
  9 10  2  0  0  0
  9 11  1  0  0  0
 11 12  1  0  0  0
 11 27  1  0  0  0
 12 13  1  0  0  0
 12 25  1  0  0  0
 12 34  1  0  0  0
 13 14  1  0  0  0
 13 17  2  0  0  0
 14 15  1  0  0  0
 15 16  2  0  0  0
 15 35  1  0  0  0
 16 17  1  0  0  0
 17 18  1  0  0  0
 18 19  2  0  0  0
 18 20  1  0  0  0
 20 21  1  0  0  0
 21 22  1  0  0  0
 21 23  1  0  0  0
 21 24  1  0  0  0
 22 36  1  0  0  0
 22 37  1  0  0  0
 22 38  1  0  0  0
 23 39  1  0  0  0
 23 40  1  0  0  0
 23 41  1  0  0  0
 24 42  1  0  0  0
 24 43  1  0  0  0
 24 44  1  0  0  0
 25 26  1  0  0  0
 25 45  1  0  0  0
 25 46  1  0  0  0
 26 27  1  0  0  0
 26 47  1  0  0  0
 26 48  1  0  0  0
 27 49  1  0  0  0
 27 50  1  0  0  0
M  END
>  <Activity>
7.33724

>  <set>
1

>  <Min_dist>
999.9

>  <Avg_dist>
999.9

$$$$
RO14-5975
  Cerius2 12110214493D 1   1.00000                          
 
 40 43  0  0  0  0  0  0  0  0999 V2000
    1.6015    0.9051    0.1322 C   0  0  0  0  0  0
    2.0303   -0.4136    0.2806 C   0  0  0  0  0  0
    3.4016   -0.7008    0.1769 C   0  0  0  0  0  0
    4.3111    0.3052   -0.0581 C   0  0  0  0  0  0
    3.8792    1.6149   -0.1947 C   0  0  0  0  0  0
    2.5365    1.9121   -0.1005 C   0  0  0  0  0  0
    6.0021   -0.0671   -0.1829 Cl  0  0  0  0  0  0
    1.1232   -1.5350    0.5558 C   0  0  0  0  0  0
    1.4968   -2.3817    1.3443 O   0  0  0  0  0  0
   -0.0836   -1.6925    0.0029 N   0  0  0  0  0  0
   -0.7214   -0.7699   -0.9521 C   0  0  0  0  0  0
   -0.8038    0.5809   -0.2942 C   0  0  0  0  0  0
    0.2572    1.2785    0.1894 N   0  0  0  0  0  0
   -0.2316    2.4307    0.7310 C   0  0  0  0  0  0
   -1.5232    2.4604    0.5718 N   0  0  0  0  0  0
   -1.9181    1.3266   -0.0666 C   0  0  0  0  0  0
   -3.2963    0.9721   -0.4419 C   0  0  0  0  0  0
   -3.6532    1.0629   -1.6002 O   0  0  0  0  0  0
   -4.1627    0.5467    0.4990 O   0  0  0  0  0  0
   -5.5225    0.1969    0.1288 C   0  0  0  0  0  0
   -6.2908   -0.2509    1.3737 C   0  0  0  0  0  0
   -2.1369   -1.3076   -1.2342 C   0  0  0  0  0  0
   -1.9890   -2.8230   -0.9313 C   0  0  0  0  0  0
   -1.0129   -2.8067    0.2702 C   0  0  0  0  0  0
    3.7450   -1.7193    0.2827 H   0  0  0  0  0  0
    4.5951    2.4033   -0.3748 H   0  0  0  0  0  0
    2.2060    2.9347   -0.2079 H   0  0  0  0  0  0
   -0.1366   -0.7096   -1.8701 H   0  0  0  0  0  0
    0.3581    3.1954    1.2146 H   0  0  0  0  0  0
   -6.0146    1.0654   -0.3091 H   0  0  0  0  0  0
   -5.5036   -0.6150   -0.5982 H   0  0  0  0  0  0
   -7.3116   -0.5135    1.0958 H   0  0  0  0  0  0
   -5.7987   -1.1193    1.8116 H   0  0  0  0  0  0
   -6.3096    0.5610    2.1007 H   0  0  0  0  0  0
   -2.8654   -0.8487   -0.5658 H   0  0  0  0  0  0
   -2.4113   -1.1464   -2.2767 H   0  0  0  0  0  0
   -2.9470   -3.2605   -0.6504 H   0  0  0  0  0  0
   -1.5544   -3.3505   -1.7805 H   0  0  0  0  0  0
   -0.4671   -3.7485    0.3263 H   0  0  0  0  0  0
   -1.5581   -2.6296    1.1973 H   0  0  0  0  0  0
  1  2  1  0  0  0
  1  6  2  0  0  0
  1 13  1  0  0  0
  2  3  2  0  0  0
  2  8  1  0  0  0
  3  4  1  0  0  0
  3 25  1  0  0  0
  4  5  2  0  0  0
  4  7  1  0  0  0
  5  6  1  0  0  0
  5 26  1  0  0  0
  6 27  1  0  0  0
  8  9  2  0  0  0
  8 10  1  0  0  0
 10 11  1  0  0  0
 10 24  1  0  0  0
 11 12  1  0  0  0
 11 22  1  0  0  0
 11 28  1  0  0  0
 12 13  1  0  0  0
 12 16  2  0  0  0
 13 14  1  0  0  0
 14 15  2  0  0  0
 14 29  1  0  0  0
 15 16  1  0  0  0
 16 17  1  0  0  0
 17 18  2  0  0  0
 17 19  1  0  0  0
 19 20  1  0  0  0
 20 21  1  0  0  0
 20 30  1  0  0  0
 20 31  1  0  0  0
 21 32  1  0  0  0
 21 33  1  0  0  0
 21 34  1  0  0  0
 22 23  1  0  0  0
 22 35  1  0  0  0
 22 36  1  0  0  0
 23 24  1  0  0  0
 23 37  1  0  0  0
 23 38  1  0  0  0
 24 39  1  0  0  0
 24 40  1  0  0  0
M  END
>  <Activity>
7.20761

>  <set>
1

>  <Min_dist>
999.9

>  <Avg_dist>
999.9

$$$$
RO15-3505
  Cerius2 12110214493D 1   1.00000                          
 
 36 38  0  0  0  0  0  0  0  0999 V2000
    1.3333    1.2934    0.0429 C   0  0  0  0  0  0
    2.1508    0.1619    0.0810 C   0  0  0  0  0  0
    3.5282    0.3127   -0.1594 C   0  0  0  0  0  0
    4.0628    1.5576   -0.4056 C   0  0  0  0  0  0
    3.2474    2.6760   -0.4190 C   0  0  0  0  0  0
    1.8921    2.5449   -0.1965 C   0  0  0  0  0  0
    4.5627   -1.0814   -0.1450 Cl  0  0  0  0  0  0
    1.6553   -1.1801    0.3892 C   0  0  0  0  0  0
    2.3511   -1.8607    1.1179 O   0  0  0  0  0  0
    0.5240   -1.7370   -0.0418 N   0  0  0  0  0  0
   -0.3840   -1.0290   -0.9508 C   0  0  0  0  0  0
   -0.8511    0.2206   -0.2503 C   0  0  0  0  0  0
   -0.0517    1.2160    0.2058 N   0  0  0  0  0  0
   -0.8495    2.1329    0.8201 C   0  0  0  0  0  0
   -2.0899    1.7493    0.7160 N   0  0  0  0  0  0
   -2.1334    0.5652    0.0500 C   0  0  0  0  0  0
   -3.3434   -0.2024   -0.2856 C   0  0  0  0  0  0
   -3.2485   -1.2537   -0.8883 O   0  0  0  0  0  0
   -4.5568    0.2603    0.0754 O   0  0  0  0  0  0
   -5.7506   -0.4971   -0.2557 C   0  0  0  0  0  0
   -6.9847    0.2431    0.2640 C   0  0  0  0  0  0
    0.1789   -3.0897    0.4026 C   0  0  0  0  0  0
    5.1221    1.6618   -0.5884 H   0  0  0  0  0  0
    3.6723    3.6516   -0.6034 H   0  0  0  0  0  0
    1.2601    3.4205   -0.2083 H   0  0  0  0  0  0
    0.1433   -0.7636   -1.8671 H   0  0  0  0  0  0
   -1.2393   -1.6623   -1.1860 H   0  0  0  0  0  0
   -0.5092    3.0315    1.3132 H   0  0  0  0  0  0
   -5.8222   -0.6078   -1.3377 H   0  0  0  0  0  0
   -5.6960   -1.4823    0.2075 H   0  0  0  0  0  0
   -7.8808   -0.3255    0.0154 H   0  0  0  0  0  0
   -6.9131    0.3538    1.3460 H   0  0  0  0  0  0
   -7.0393    1.2283   -0.1992 H   0  0  0  0  0  0
    0.9574   -3.4633    1.0677 H   0  0  0  0  0  0
   -0.7725   -3.0658    0.9341 H   0  0  0  0  0  0
    0.0949   -3.7463   -0.4634 H   0  0  0  0  0  0
  1  2  1  0  0  0
  1  6  2  0  0  0
  1 13  1  0  0  0
  2  3  2  0  0  0
  2  8  1  0  0  0
  3  4  1  0  0  0
  3  7  1  0  0  0
  4  5  2  0  0  0
  4 23  1  0  0  0
  5  6  1  0  0  0
  5 24  1  0  0  0
  6 25  1  0  0  0
  8  9  2  0  0  0
  8 10  1  0  0  0
 10 11  1  0  0  0
 10 22  1  0  0  0
 11 12  1  0  0  0
 11 26  1  0  0  0
 11 27  1  0  0  0
 12 13  1  0  0  0
 12 16  2  0  0  0
 13 14  1  0  0  0
 14 15  2  0  0  0
 14 28  1  0  0  0
 15 16  1  0  0  0
 16 17  1  0  0  0
 17 18  2  0  0  0
 17 19  1  0  0  0
 19 20  1  0  0  0
 20 21  1  0  0  0
 20 29  1  0  0  0
 20 30  1  0  0  0
 21 31  1  0  0  0
 21 32  1  0  0  0
 21 33  1  0  0  0
 22 34  1  0  0  0
 22 35  1  0  0  0
 22 36  1  0  0  0
M  END
>  <Activity>
8.56864

>  <set>
1

>  <Min_dist>
999.9

>  <Avg_dist>
999.9

$$$$
RO14-7437
  Cerius2 12110214493D 1   1.00000                          
 
 36 38  0  0  0  0  0  0  0  0999 V2000
    1.9882    0.9752    0.0208 C   0  0  0  0  0  0
    2.6942   -0.2292    0.0343 C   0  0  0  0  0  0
    4.0760   -0.2072   -0.2188 C   0  0  0  0  0  0
    4.7248    0.9824   -0.4540 C   0  0  0  0  0  0
    4.0208    2.1749   -0.4434 C   0  0  0  0  0  0
    2.6619    2.1713   -0.2076 C   0  0  0  0  0  0
    2.0753   -1.5230    0.3296 C   0  0  0  0  0  0
    2.7099   -2.2776    1.0410 O   0  0  0  0  0  0
    0.8919   -1.9628   -0.0965 N   0  0  0  0  0  0
    0.0471   -1.1578   -0.9856 C   0  0  0  0  0  0
   -0.2915    0.1202   -0.2629 C   0  0  0  0  0  0
    0.6038    1.0278    0.1979 N   0  0  0  0  0  0
   -0.0967    2.0077    0.8335 C   0  0  0  0  0  0
   -1.3690    1.7459    0.7377 N   0  0  0  0  0  0
   -1.5320    0.5813    0.0560 C   0  0  0  0  0  0
   -2.8131   -0.0621   -0.2771 C   0  0  0  0  0  0
   -2.8249   -1.1087   -0.8951 O   0  0  0  0  0  0
   -3.9732    0.5092    0.1032 O   0  0  0  0  0  0
   -5.2370   -0.1256   -0.2255 C   0  0  0  0  0  0
   -6.3896    0.7216    0.3175 C   0  0  0  0  0  0
    0.4231   -3.2826    0.3330 C   0  0  0  0  0  0
    4.6335   -1.1322   -0.2284 H   0  0  0  0  0  0
    5.7873    0.9866   -0.6473 H   0  0  0  0  0  0
    4.5359    3.1076   -0.6195 H   0  0  0  0  0  0
    2.1167    3.1036   -0.2001 H   0  0  0  0  0  0
    0.5886   -0.9306   -1.9040 H   0  0  0  0  0  0
   -0.8671   -1.7030   -1.2202 H   0  0  0  0  0  0
    0.3327    2.8620    1.3356 H   0  0  0  0  0  0
   -5.3290   -0.2130   -1.3081 H   0  0  0  0  0  0
   -5.2727   -1.1181    0.2236 H   0  0  0  0  0  0
   -7.3384    0.2451    0.0708 H   0  0  0  0  0  0
   -6.2976    0.8091    1.4001 H   0  0  0  0  0  0
   -6.3539    1.7141   -0.1315 H   0  0  0  0  0  0
    1.1686   -3.7387    0.9843 H   0  0  0  0  0  0
   -0.5165   -3.1757    0.8752 H   0  0  0  0  0  0
    0.2683   -3.9153   -0.5410 H   0  0  0  0  0  0
  1  2  1  0  0  0
  1  6  2  0  0  0
  1 12  1  0  0  0
  2  3  2  0  0  0
  2  7  1  0  0  0
  3  4  1  0  0  0
  3 22  1  0  0  0
  4  5  2  0  0  0
  4 23  1  0  0  0
  5  6  1  0  0  0
  5 24  1  0  0  0
  6 25  1  0  0  0
  7  8  2  0  0  0
  7  9  1  0  0  0
  9 10  1  0  0  0
  9 21  1  0  0  0
 10 11  1  0  0  0
 10 26  1  0  0  0
 10 27  1  0  0  0
 11 12  1  0  0  0
 11 15  2  0  0  0
 12 13  1  0  0  0
 13 14  2  0  0  0
 13 28  1  0  0  0
 14 15  1  0  0  0
 15 16  1  0  0  0
 16 17  2  0  0  0
 16 18  1  0  0  0
 18 19  1  0  0  0
 19 20  1  0  0  0
 19 29  1  0  0  0
 19 30  1  0  0  0
 20 31  1  0  0  0
 20 32  1  0  0  0
 20 33  1  0  0  0
 21 34  1  0  0  0
 21 35  1  0  0  0
 21 36  1  0  0  0
M  END
>  <Activity>
8.52288

>  <set>
1

>  <Min_dist>
999.9

>  <Avg_dist>
999.9

$$$$
RO17-9741
  Cerius2 12110214493D 1   1.00000                          
 
 34 37  0  0  0  0  0  0  0  0999 V2000
    1.1675    1.2765   -0.0181 C   0  0  0  0  0  0
    1.9547    0.1329    0.1053 C   0  0  0  0  0  0
    3.3426    0.2262   -0.0972 C   0  0  0  0  0  0
    3.9247    1.4342   -0.4108 C   0  0  0  0  0  0
    3.1404    2.5687   -0.5284 C   0  0  0  0  0  0
    1.7787    2.4918   -0.3346 C   0  0  0  0  0  0
    4.3313   -1.1932    0.0498 Cl  0  0  0  0  0  0
    1.4177   -1.1974    0.4465 C   0  0  0  0  0  0
    2.0593   -1.9318    1.1728 O   0  0  0  0  0  0
    0.2313   -1.6127   -0.0305 N   0  0  0  0  0  0
   -0.7548   -0.9378   -0.9001 C   0  0  0  0  0  0
   -1.1273    0.3717   -0.2475 C   0  0  0  0  0  0
   -0.2183    1.3052    0.1473 N   0  0  0  0  0  0
   -0.9257    2.3184    0.7290 C   0  0  0  0  0  0
   -2.1966    2.0454    0.6653 N   0  0  0  0  0  0
   -2.3624    0.8401    0.0565 C   0  0  0  0  0  0
   -3.6433    0.1705   -0.2209 C   0  0  0  0  0  0
   -3.7765   -0.4919   -1.2313 O   0  0  0  0  0  0
   -4.6687    0.2917    0.6456 O   0  0  0  0  0  0
   -5.9324   -0.3689    0.3719 C   0  0  0  0  0  0
   -1.7506   -2.0676   -0.6797 C   0  0  0  0  0  0
   -0.6407   -2.7714    0.1011 C   0  0  0  0  0  0
    4.9919    1.4964   -0.5645 H   0  0  0  0  0  0
    3.5972    3.5164   -0.7728 H   0  0  0  0  0  0
    1.1758    3.3829   -0.4291 H   0  0  0  0  0  0
   -0.4259   -0.8214   -1.9328 H   0  0  0  0  0  0
   -0.4980    3.2058    1.1718 H   0  0  0  0  0  0
   -6.6349   -0.1575    1.1780 H   0  0  0  0  0  0
   -6.3386   -0.0003   -0.5700 H   0  0  0  0  0  0
   -5.7723   -1.4448    0.3023 H   0  0  0  0  0  0
   -2.6057   -1.7842   -0.0661 H   0  0  0  0  0  0
   -2.0368   -2.5841   -1.5959 H   0  0  0  0  0  0
   -0.2552   -3.6537   -0.4100 H   0  0  0  0  0  0
   -0.9155   -2.9813    1.1348 H   0  0  0  0  0  0
  1  2  1  0  0  0
  1  6  2  0  0  0
  1 13  1  0  0  0
  2  3  2  0  0  0
  2  8  1  0  0  0
  3  4  1  0  0  0
  3  7  1  0  0  0
  4  5  2  0  0  0
  4 23  1  0  0  0
  5  6  1  0  0  0
  5 24  1  0  0  0
  6 25  1  0  0  0
  8  9  2  0  0  0
  8 10  1  0  0  0
 10 11  1  0  0  0
 10 22  1  0  0  0
 11 12  1  0  0  0
 11 21  1  0  0  0
 11 26  1  0  0  0
 12 13  1  0  0  0
 12 16  2  0  0  0
 13 14  1  0  0  0
 14 15  2  0  0  0
 14 27  1  0  0  0
 15 16  1  0  0  0
 16 17  1  0  0  0
 17 18  2  0  0  0
 17 19  1  0  0  0
 19 20  1  0  0  0
 20 28  1  0  0  0
 20 29  1  0  0  0
 20 30  1  0  0  0
 21 22  1  0  0  0
 21 31  1  0  0  0
 21 32  1  0  0  0
 22 33  1  0  0  0
 22 34  1  0  0  0
M  END
>  <Activity>
8.61979

>  <set>
1

>  <Min_dist>
999.9

>  <Avg_dist>
999.9

$$$$
LORAZEPAM
  Cerius2 12110214493D 1   1.00000                          
 
 31 33  0  0  0  0  0  0  0  0999 V2000
   -3.4717   -0.8584    0.1811 C   0  0  0  0  0  0
   -2.4523   -1.6722   -0.2881 C   0  0  0  0  0  0
   -1.1542   -1.2144   -0.2957 C   0  0  0  0  0  0
   -0.8502    0.0743    0.1693 C   0  0  0  0  0  0
   -1.8769    0.8894    0.6411 C   0  0  0  0  0  0
   -3.1880    0.4087    0.6403 C   0  0  0  0  0  0
   -1.6696    2.1728    1.1237 N   0  0  0  0  0  0
   -0.8372    3.0654    0.5927 C   0  0  0  0  0  0
   -0.7774    4.1769    1.0743 O   0  0  0  0  0  0
    0.0318    2.7312   -0.5890 C   0  0  0  0  0  0
    0.9644    1.6718   -0.2064 N   0  0  0  0  0  0
    0.5581    0.4988    0.1303 C   0  0  0  0  0  0
    1.5848   -0.4992    0.5089 C   0  0  0  0  0  0
    1.3550   -1.3716    1.5730 C   0  0  0  0  0  0
    2.3149   -2.2993    1.9205 C   0  0  0  0  0  0
    3.5046   -2.3661    1.2166 C   0  0  0  0  0  0
    3.7396   -1.5048    0.1607 C   0  0  0  0  0  0
    2.7841   -0.5749   -0.2012 C   0  0  0  0  0  0
    3.0798    0.5056   -1.5274 Cl  0  0  0  0  0  0
   -0.7851    2.2817   -1.6719 O   0  0  0  0  0  0
   -2.8128   -3.2691   -0.8657 Cl  0  0  0  0  0  0
   -4.4904   -1.2169    0.1825 H   0  0  0  0  0  0
   -0.3633   -1.8521   -0.6622 H   0  0  0  0  0  0
   -3.9879    1.0370    1.0035 H   0  0  0  0  0  0
   -2.1707    2.4411    1.9097 H   0  0  0  0  0  0
    0.5900    3.6165   -0.8935 H   0  0  0  0  0  0
    0.4275   -1.3204    2.1239 H   0  0  0  0  0  0
    2.1376   -2.9749    2.7442 H   0  0  0  0  0  0
    4.2529   -3.0940    1.4935 H   0  0  0  0  0  0
    4.6700   -1.5620   -0.3846 H   0  0  0  0  0  0
   -0.1892    2.0791   -2.4060 H   0  0  0  0  0  0
  1  2  1  0  0  0
  1  6  2  0  0  0
  1 22  1  0  0  0
  2  3  2  0  0  0
  2 21  1  0  0  0
  3  4  1  0  0  0
  3 23  1  0  0  0
  4  5  2  0  0  0
  4 12  1  0  0  0
  5  6  1  0  0  0
  5  7  1  0  0  0
  6 24  1  0  0  0
  7  8  1  0  0  0
  7 25  1  0  0  0
  8  9  2  0  0  0
  8 10  1  0  0  0
 10 11  1  0  0  0
 10 20  1  0  0  0
 10 26  1  0  0  0
 11 12  2  0  0  0
 12 13  1  0  0  0
 13 14  1  0  0  0
 13 18  2  0  0  0
 14 15  2  0  0  0
 14 27  1  0  0  0
 15 16  1  0  0  0
 15 28  1  0  0  0
 16 17  2  0  0  0
 16 29  1  0  0  0
 17 18  1  0  0  0
 17 30  1  0  0  0
 18 19  1  0  0  0
 20 31  1  0  0  0
M  END
>  <Activity>
8.45593

>  <set>
2

>  <Min_dist>
0.0625

>  <Avg_dist>
0.441965

$$$$
RO14-3074
  Cerius2 12110214493D 1   1.00000                          
 
 32 34  0  0  0  0  0  0  0  0999 V2000
   -3.2067    0.3748    0.2563 C   0  0  0  0  0  0
   -2.4836   -0.7963   -0.2425 C   0  0  0  0  0  0
   -1.0777   -0.7252   -0.3689 C   0  0  0  0  0  0
   -0.4006    0.4409   -0.0222 C   0  0  0  0  0  0
   -1.1132    1.5501    0.4559 C   0  0  0  0  0  0
   -2.5129    1.4927    0.5846 C   0  0  0  0  0  0
   -0.5056    2.7311    0.8220 N   0  0  0  0  0  0
    0.4988    3.3152    0.1755 C   0  0  0  0  0  0
    0.9130    4.3839    0.5716 O   0  0  0  0  0  0
    1.1358    2.6863   -1.0338 C   0  0  0  0  0  0
    1.7574    1.4238   -0.6345 N   0  0  0  0  0  0
    1.0640    0.4395   -0.1844 C   0  0  0  0  0  0
    1.7929   -0.7902    0.2004 C   0  0  0  0  0  0
    1.4158   -1.5007    1.3404 C   0  0  0  0  0  0
    2.0983   -2.6459    1.6936 C   0  0  0  0  0  0
    3.1561   -3.0924    0.9204 C   0  0  0  0  0  0
    3.5367   -2.3949   -0.2107 C   0  0  0  0  0  0
    2.8578   -1.2479   -0.5796 C   0  0  0  0  0  0
    3.2296   -0.5666   -1.6854 F   0  0  0  0  0  0
   -3.1352   -1.9029   -0.5691 N   0  0  0  0  0  0
   -4.2533   -1.9484   -0.4642 N   0  3  0  0  0  0
   -5.3715   -1.9939   -0.3593 N   0  5  0  0  0  0
   -4.2817    0.3502    0.3576 H   0  0  0  0  0  0
   -0.5266   -1.5786   -0.7353 H   0  0  0  0  0  0
   -3.0460    2.3570    0.9523 H   0  0  0  0  0  0
   -0.8388    3.1740    1.6181 H   0  0  0  0  0  0
    0.3747    2.4957   -1.7904 H   0  0  0  0  0  0
    1.8953    3.3562   -1.4368 H   0  0  0  0  0  0
    0.5910   -1.1542    1.9455 H   0  0  0  0  0  0
    1.8067   -3.1957    2.5762 H   0  0  0  0  0  0
    3.6868   -3.9897    1.2025 H   0  0  0  0  0  0
    4.3629   -2.7486   -0.8096 H   0  0  0  0  0  0
  1  2  1  0  0  0
  1  6  2  0  0  0
  1 23  1  0  0  0
  2  3  2  0  0  0
  2 20  1  0  0  0
  3  4  1  0  0  0
  3 24  1  0  0  0
  4  5  2  0  0  0
  4 12  1  0  0  0
  5  6  1  0  0  0
  5  7  1  0  0  0
  6 25  1  0  0  0
  7  8  1  0  0  0
  7 26  1  0  0  0
  8  9  2  0  0  0
  8 10  1  0  0  0
 10 11  1  0  0  0
 10 27  1  0  0  0
 10 28  1  0  0  0
 11 12  2  0  0  0
 12 13  1  0  0  0
 13 14  1  0  0  0
 13 18  2  0  0  0
 14 15  2  0  0  0
 14 29  1  0  0  0
 15 16  1  0  0  0
 15 30  1  0  0  0
 16 17  2  0  0  0
 16 31  1  0  0  0
 17 18  1  0  0  0
 17 32  1  0  0  0
 18 19  1  0  0  0
 20 21  2  0  0  0
 21 22  2  0  0  0
M  CHG  2  21   1  22  -1
M  END
>  <Activity>
8.27572

>  <set>
2

>  <Min_dist>
0.151163

>  <Avg_dist>
0.460941

$$$$
RO11-6896
  Cerius2 12110214493D 1   1.00000                          
 
 38 40  0  0  0  0  0  0  0  0999 V2000
    2.9628   -1.1999   -0.2604 C   0  0  0  0  0  0
    1.8516   -1.9203    0.1460 C   0  0  0  0  0  0
    0.6337   -1.2939    0.2730 C   0  0  0  0  0  0
    0.5035    0.0751   -0.0066 C   0  0  0  0  0  0
    1.6225    0.7972   -0.4161 C   0  0  0  0  0  0
    2.8510    0.1445   -0.5382 C   0  0  0  0  0  0
    1.5871    2.1496   -0.7183 N   0  0  0  0  0  0
    0.9058    3.0687   -0.0382 C   0  0  0  0  0  0
    0.9917    4.2324   -0.3689 O   0  0  0  0  0  0
    0.0315    2.7016    1.1297 C   0  0  0  0  0  0
   -1.0534    1.8423    0.6574 N   0  0  0  0  0  0
   -0.8283    0.6802    0.1525 C   0  0  0  0  0  0
   -1.9969   -0.1067   -0.3028 C   0  0  0  0  0  0
   -1.9248   -0.8508   -1.4808 C   0  0  0  0  0  0
   -3.0166   -1.5818   -1.8998 C   0  0  0  0  0  0
   -4.1837   -1.5790   -1.1555 C   0  0  0  0  0  0
   -4.2641   -0.8447    0.0128 C   0  0  0  0  0  0
   -3.1749   -0.1120    0.4482 C   0  0  0  0  0  0
   -3.2535    0.6053    1.5903 F   0  0  0  0  0  0
    0.8605    1.9525    2.1749 C   0  0  0  0  0  0
    2.3608    2.6028   -1.8769 C   0  0  0  0  0  0
    1.9749   -3.3651    0.4433 N   0  3  0  0  0  0
    3.0532   -3.9202    0.3306 O   0  0  0  0  0  0
    0.9981   -3.9988    0.8007 O   0  5  0  0  0  0
    3.9193   -1.6923   -0.3552 H   0  0  0  0  0  0
   -0.2295   -1.8603    0.5901 H   0  0  0  0  0  0
    3.7222    0.6995   -0.8533 H   0  0  0  0  0  0
   -0.3856    3.6063    1.5721 H   0  0  0  0  0  0
   -1.0156   -0.8541   -2.0637 H   0  0  0  0  0  0
   -2.9609   -2.1578   -2.8117 H   0  0  0  0  0  0
   -5.0354   -2.1529   -1.4894 H   0  0  0  0  0  0
   -5.1776   -0.8467    0.5890 H   0  0  0  0  0  0
    0.2257    1.6873    3.0203 H   0  0  0  0  0  0
    1.2717    1.0460    1.7309 H   0  0  0  0  0  0
    1.6749    2.5906    2.5182 H   0  0  0  0  0  0
    2.2414    3.6798   -1.9948 H   0  0  0  0  0  0
    3.4143    2.3686   -1.7245 H   0  0  0  0  0  0
    2.0022    2.0972   -2.7735 H   0  0  0  0  0  0
  1  2  1  0  0  0
  1  6  2  0  0  0
  1 25  1  0  0  0
  2  3  2  0  0  0
  2 22  1  0  0  0
  3  4  1  0  0  0
  3 26  1  0  0  0
  4  5  2  0  0  0
  4 12  1  0  0  0
  5  6  1  0  0  0
  5  7  1  0  0  0
  6 27  1  0  0  0
  7  8  1  0  0  0
  7 21  1  0  0  0
  8  9  2  0  0  0
  8 10  1  0  0  0
 10 11  1  0  0  0
 10 20  1  0  0  0
 10 28  1  0  0  0
 11 12  2  0  0  0
 12 13  1  0  0  0
 13 14  1  0  0  0
 13 18  2  0  0  0
 14 15  2  0  0  0
 14 29  1  0  0  0
 15 16  1  0  0  0
 15 30  1  0  0  0
 16 17  2  0  0  0
 16 31  1  0  0  0
 17 18  1  0  0  0
 17 32  1  0  0  0
 18 19  1  0  0  0
 20 33  1  0  0  0
 20 34  1  0  0  0
 20 35  1  0  0  0
 21 36  1  0  0  0
 21 37  1  0  0  0
 21 38  1  0  0  0
 22 23  2  0  0  0
 22 24  1  0  0  0
M  CHG  2  22   1  24  -1
M  END
>  <Activity>
8.1549

>  <set>
2

>  <Min_dist>
0.098039

>  <Avg_dist>
0.490508

$$$$
NITRAZEPAM
  Cerius2 12110214493D 1   1.00000                          
 
 32 34  0  0  0  0  0  0  0  0999 V2000
   -2.6939    1.4048    0.4423 C   0  0  0  0  0  0
   -2.4611    0.1418   -0.0768 C   0  0  0  0  0  0
   -1.1739   -0.2728   -0.3279 C   0  0  0  0  0  0
   -0.0872    0.5745   -0.0618 C   0  0  0  0  0  0
   -0.3241    1.8439    0.4615 C   0  0  0  0  0  0
   -1.6379    2.2480    0.7085 C   0  0  0  0  0  0
    0.6860    2.7451    0.7599 N   0  0  0  0  0  0
    1.7681    2.9567    0.0142 C   0  0  0  0  0  0
    2.5615    3.8091    0.3532 O   0  0  0  0  0  0
    2.0329    2.1657   -1.2378 C   0  0  0  0  0  0
    2.2105    0.7589   -0.8804 N   0  0  0  0  0  0
    1.2618    0.0667   -0.3565 C   0  0  0  0  0  0
    1.5490   -1.3482   -0.0241 C   0  0  0  0  0  0
    0.7997   -2.0040    0.9525 C   0  0  0  0  0  0
    1.0716   -3.3219    1.2573 C   0  0  0  0  0  0
    2.0851   -3.9928    0.5965 C   0  0  0  0  0  0
    2.8322   -3.3476   -0.3728 C   0  0  0  0  0  0
    2.5660   -2.0315   -0.6905 C   0  0  0  0  0  0
   -3.5981   -0.7623   -0.3608 N   0  3  0  0  0  0
   -4.7381   -0.3957   -0.1382 O   0  0  0  0  0  0
   -3.3938   -1.8730   -0.8172 O   0  5  0  0  0  0
   -3.7055    1.7306    0.6343 H   0  0  0  0  0  0
   -0.9980   -1.2584   -0.7329 H   0  0  0  0  0  0
   -1.8277    3.2314    1.1126 H   0  0  0  0  0  0
    0.5972    3.2621    1.5757 H   0  0  0  0  0  0
    1.1873    2.2655   -1.9183 H   0  0  0  0  0  0
    2.9373    2.5369   -1.7197 H   0  0  0  0  0  0
    0.0085   -1.4812    1.4692 H   0  0  0  0  0  0
    0.4923   -3.8307    2.0136 H   0  0  0  0  0  0
    2.2942   -5.0244    0.8386 H   0  0  0  0  0  0
    3.6226   -3.8763   -0.8847 H   0  0  0  0  0  0
    3.1498   -1.5288   -1.4473 H   0  0  0  0  0  0
  1  2  1  0  0  0
  1  6  2  0  0  0
  1 22  1  0  0  0
  2  3  2  0  0  0
  2 19  1  0  0  0
  3  4  1  0  0  0
  3 23  1  0  0  0
  4  5  2  0  0  0
  4 12  1  0  0  0
  5  6  1  0  0  0
  5  7  1  0  0  0
  6 24  1  0  0  0
  7  8  1  0  0  0
  7 25  1  0  0  0
  8  9  2  0  0  0
  8 10  1  0  0  0
 10 11  1  0  0  0
 10 26  1  0  0  0
 10 27  1  0  0  0
 11 12  2  0  0  0
 12 13  1  0  0  0
 13 14  1  0  0  0
 13 18  2  0  0  0
 14 15  2  0  0  0
 14 28  1  0  0  0
 15 16  1  0  0  0
 15 29  1  0  0  0
 16 17  2  0  0  0
 16 30  1  0  0  0
 17 18  1  0  0  0
 17 31  1  0  0  0
 18 32  1  0  0  0
 19 20  2  0  0  0
 19 21  1  0  0  0
M  CHG  2  19   1  21  -1
M  END
>  <Activity>
8

>  <set>
2

>  <Min_dist>
0.097561

>  <Avg_dist>
0.465004

$$$$
BROMAZEPAM
  Cerius2 12110214493D 1   1.00000                          
 
 29 31  0  0  0  0  0  0  0  0999 V2000
   -1.8987    1.9456    0.5810 C   0  0  0  0  0  0
   -1.9517    0.6662    0.0505 C   0  0  0  0  0  0
   -0.7876   -0.0030   -0.2507 C   0  0  0  0  0  0
    0.4598    0.5996   -0.0253 C   0  0  0  0  0  0
    0.5098    1.8856    0.5091 C   0  0  0  0  0  0
   -0.6818    2.5496    0.8078 C   0  0  0  0  0  0
    1.6950    2.5562    0.7697 N   0  0  0  0  0  0
    2.7686    2.5470   -0.0172 C   0  0  0  0  0  0
    3.7332    3.2140    0.2919 O   0  0  0  0  0  0
    2.8166    1.7305   -1.2798 C   0  0  0  0  0  0
    2.7129    0.3139   -0.9318 N   0  0  0  0  0  0
    1.6628   -0.1724   -0.3727 C   0  0  0  0  0  0
    1.6639   -1.6210   -0.0542 C   0  0  0  0  0  0
    2.7798   -2.3955   -0.3640 C   0  0  0  0  0  0
    2.7661   -3.7468   -0.0606 C   0  0  0  0  0  0
    1.6360   -4.2782    0.5428 C   0  0  0  0  0  0
    0.5629   -3.4496    0.8223 C   0  0  0  0  0  0
    0.6044   -2.1673    0.5282 N   0  0  0  0  0  0
   -3.6242   -0.1602   -0.2588 Br  0  0  0  0  0  0
   -2.8131    2.4715    0.8128 H   0  0  0  0  0  0
   -0.8342   -0.9999   -0.6635 H   0  0  0  0  0  0
   -0.6489    3.5470    1.2208 H   0  0  0  0  0  0
    1.7457    3.0726    1.5892 H   0  0  0  0  0  0
    1.9848    2.0093   -1.9267 H   0  0  0  0  0  0
    3.7594    1.9115   -1.7960 H   0  0  0  0  0  0
    3.6431   -1.9485   -0.8345 H   0  0  0  0  0  0
    3.6161   -4.3727   -0.2891 H   0  0  0  0  0  0
    1.5936   -5.3282    0.7919 H   0  0  0  0  0  0
   -0.3189   -3.8601    1.2918 H   0  0  0  0  0  0
  1  2  1  0  0  0
  1  6  2  0  0  0
  1 20  1  0  0  0
  2  3  2  0  0  0
  2 19  1  0  0  0
  3  4  1  0  0  0
  3 21  1  0  0  0
  4  5  2  0  0  0
  4 12  1  0  0  0
  5  6  1  0  0  0
  5  7  1  0  0  0
  6 22  1  0  0  0
  7  8  1  0  0  0
  7 23  1  0  0  0
  8  9  2  0  0  0
  8 10  1  0  0  0
 10 11  1  0  0  0
 10 24  1  0  0  0
 10 25  1  0  0  0
 11 12  2  0  0  0
 12 13  1  0  0  0
 13 14  1  0  0  0
 13 18  2  0  0  0
 14 15  2  0  0  0
 14 26  1  0  0  0
 15 16  1  0  0  0
 15 27  1  0  0  0
 16 17  2  0  0  0
 16 28  1  0  0  0
 17 18  1  0  0  0
 17 29  1  0  0  0
M  END
>  <Activity>
7.74473

>  <set>
2

>  <Min_dist>
0.1

>  <Avg_dist>
0.439552

$$$$
RO20-3053
  Cerius2 12110214493D 1   1.00000                          
 
 35 37  0  0  0  0  0  0  0  0999 V2000
   -3.2634    0.4596    0.3055 C   0  0  0  0  0  0
   -2.5820   -0.6804   -0.1443 C   0  0  0  0  0  0
   -1.1968   -0.6424   -0.2920 C   0  0  0  0  0  0
   -0.4852    0.5236    0.0064 C   0  0  0  0  0  0
   -1.1732    1.6527    0.4563 C   0  0  0  0  0  0
   -2.5652    1.6032    0.5988 C   0  0  0  0  0  0
   -0.5481    2.8414    0.7788 N   0  0  0  0  0  0
    0.4551    3.3904    0.0986 C   0  0  0  0  0  0
    0.8891    4.4662    0.4524 O   0  0  0  0  0  0
    1.0657    2.7120   -1.0973 C   0  0  0  0  0  0
    1.6760    1.4546   -0.6668 N   0  0  0  0  0  0
    0.9754    0.4935   -0.1755 C   0  0  0  0  0  0
    1.6920   -0.7342    0.2379 C   0  0  0  0  0  0
    1.3212   -1.4027    1.4050 C   0  0  0  0  0  0
    1.9925   -2.5458    1.7851 C   0  0  0  0  0  0
    3.0332   -3.0316    1.0124 C   0  0  0  0  0  0
    3.4075   -2.3759   -0.1454 C   0  0  0  0  0  0
    2.7389   -1.2319   -0.5418 C   0  0  0  0  0  0
    3.1048   -0.5910   -1.6735 F   0  0  0  0  0  0
   -3.3244   -1.9085   -0.4579 C   0  0  0  0  0  0
   -2.7318   -2.8928   -0.8468 O   0  0  0  0  0  0
   -4.8222   -1.9455   -0.2963 C   0  0  0  0  0  0
   -4.3375    0.4386    0.4167 H   0  0  0  0  0  0
   -0.6697   -1.5190   -0.6387 H   0  0  0  0  0  0
   -3.0965    2.4776    0.9446 H   0  0  0  0  0  0
   -0.8662    3.3140    1.5639 H   0  0  0  0  0  0
    0.2909    2.5077   -1.8363 H   0  0  0  0  0  0
    1.8280    3.3575   -1.5336 H   0  0  0  0  0  0
    0.5100   -1.0253    2.0100 H   0  0  0  0  0  0
    1.7055   -3.0635    2.6885 H   0  0  0  0  0  0
    3.5554   -3.9269    1.3158 H   0  0  0  0  0  0
    4.2205   -2.7598   -0.7437 H   0  0  0  0  0  0
   -5.1934   -2.9320   -0.5742 H   0  0  0  0  0  0
   -5.0809   -1.7393    0.7423 H   0  0  0  0  0  0
   -5.2758   -1.1920   -0.9402 H   0  0  0  0  0  0
  1  2  1  0  0  0
  1  6  2  0  0  0
  1 23  1  0  0  0
  2  3  2  0  0  0
  2 20  1  0  0  0
  3  4  1  0  0  0
  3 24  1  0  0  0
  4  5  2  0  0  0
  4 12  1  0  0  0
  5  6  1  0  0  0
  5  7  1  0  0  0
  6 25  1  0  0  0
  7  8  1  0  0  0
  7 26  1  0  0  0
  8  9  2  0  0  0
  8 10  1  0  0  0
 10 11  1  0  0  0
 10 27  1  0  0  0
 10 28  1  0  0  0
 11 12  2  0  0  0
 12 13  1  0  0  0
 13 14  1  0  0  0
 13 18  2  0  0  0
 14 15  2  0  0  0
 14 29  1  0  0  0
 15 16  1  0  0  0
 15 30  1  0  0  0
 16 17  2  0  0  0
 16 31  1  0  0  0
 17 18  1  0  0  0
 17 32  1  0  0  0
 18 19  1  0  0  0
 20 21  2  0  0  0
 20 22  1  0  0  0
 22 33  1  0  0  0
 22 34  1  0  0  0
 22 35  1  0  0  0
M  END
>  <Activity>
7.74473

>  <set>
2

>  <Min_dist>
0.160494

>  <Avg_dist>
0.428575

$$$$
RO20-2541
  Cerius2 12110214493D 1   1.00000                          
 
 34 36  0  0  0  0  0  0  0  0999 V2000
    2.4877   -2.3672   -0.0338 C   0  0  0  0  0  0
    1.1682   -2.6628    0.3273 C   0  0  0  0  0  0
    0.2335   -1.6375    0.4220 C   0  0  0  0  0  0
    0.6043   -0.3140    0.1578 C   0  0  0  0  0  0
    1.9219   -0.0294   -0.2033 C   0  0  0  0  0  0
    2.8532   -1.0695   -0.2934 C   0  0  0  0  0  0
    2.3713    1.2478   -0.4869 N   0  0  0  0  0  0
    2.0306    2.3471    0.1811 C   0  0  0  0  0  0
    2.5308    3.4067   -0.1316 O   0  0  0  0  0  0
    1.0411    2.3103    1.3137 C   0  0  0  0  0  0
   -0.2580    1.8865    0.7927 N   0  0  0  0  0  0
   -0.4358    0.7205    0.2798 C   0  0  0  0  0  0
   -1.7881    0.3945   -0.2268 C   0  0  0  0  0  0
   -1.9375   -0.3264   -1.4120 C   0  0  0  0  0  0
   -3.1998   -0.6276   -1.8787 C   0  0  0  0  0  0
   -4.3188   -0.2168   -1.1749 C   0  0  0  0  0  0
   -4.1803    0.4978    0.0002 C   0  0  0  0  0  0
   -2.9204    0.8022    0.4826 C   0  0  0  0  0  0
   -2.7852    1.5002    1.6314 F   0  0  0  0  0  0
    3.2965    1.4024   -1.6122 C   0  0  0  0  0  0
    0.7823   -4.0150    0.5977 C   0  0  0  0  0  0
    0.4761   -5.0877    0.8122 N   0  0  0  0  0  0
    3.2190   -3.1588   -0.1039 H   0  0  0  0  0  0
   -0.7850   -1.8639    0.7008 H   0  0  0  0  0  0
    3.8734   -0.8486   -0.5707 H   0  0  0  0  0  0
    1.3791    1.6030    2.0711 H   0  0  0  0  0  0
    0.9519    3.3038    1.7530 H   0  0  0  0  0  0
   -1.0661   -0.6477   -1.9632 H   0  0  0  0  0  0
   -3.3157   -1.1853   -2.7963 H   0  0  0  0  0  0
   -5.3046   -0.4555   -1.5458 H   0  0  0  0  0  0
   -5.0573    0.8153    0.5446 H   0  0  0  0  0  0
    3.5657    2.4532   -1.7195 H   0  0  0  0  0  0
    4.1953    0.8142   -1.4271 H   0  0  0  0  0  0
    2.8170    1.0549   -2.5273 H   0  0  0  0  0  0
  1  2  1  0  0  0
  1  6  2  0  0  0
  1 23  1  0  0  0
  2  3  2  0  0  0
  2 21  1  0  0  0
  3  4  1  0  0  0
  3 24  1  0  0  0
  4  5  2  0  0  0
  4 12  1  0  0  0
  5  6  1  0  0  0
  5  7  1  0  0  0
  6 25  1  0  0  0
  7  8  1  0  0  0
  7 20  1  0  0  0
  8  9  2  0  0  0
  8 10  1  0  0  0
 10 11  1  0  0  0
 10 26  1  0  0  0
 10 27  1  0  0  0
 11 12  2  0  0  0
 12 13  1  0  0  0
 13 14  1  0  0  0
 13 18  2  0  0  0
 14 15  2  0  0  0
 14 28  1  0  0  0
 15 16  1  0  0  0
 15 29  1  0  0  0
 16 17  2  0  0  0
 16 30  1  0  0  0
 17 18  1  0  0  0
 17 31  1  0  0  0
 18 19  1  0  0  0
 20 32  1  0  0  0
 20 33  1  0  0  0
 20 34  1  0  0  0
 21 22  3  0  0  0
M  END
>  <Activity>
7.52288

>  <set>
2

>  <Min_dist>
0.083333

>  <Avg_dist>
0.434562

$$$$
TETRAZEPAM
  Cerius2 12110214493D 1   1.00000                          
 
 37 39  0  0  0  0  0  0  0  0999 V2000
    1.7184   -2.6361   -0.3913 C   0  0  0  0  0  0
    0.4030   -2.6532    0.0456 C   0  0  0  0  0  0
   -0.2395   -1.4723    0.3413 C   0  0  0  0  0  0
    0.4262   -0.2449    0.2035 C   0  0  0  0  0  0
    1.7475   -0.2309   -0.2373 C   0  0  0  0  0  0
    2.3842   -1.4387   -0.5309 C   0  0  0  0  0  0
    2.4812    0.9334   -0.4079 N   0  0  0  0  0  0
    2.4594    1.9801    0.4140 C   0  0  0  0  0  0
    3.1849    2.9250    0.1862 O   0  0  0  0  0  0
    1.5582    2.0220    1.6178 C   0  0  0  0  0  0
    0.1668    1.9904    1.1689 N   0  0  0  0  0  0
   -0.3214    0.9781    0.5393 C   0  0  0  0  0  0
   -1.7345    1.0501    0.1230 C   0  0  0  0  0  0
   -2.6409    0.5287    0.9181 C   0  0  0  0  0  0
   -4.1114    0.5225    0.6177 C   0  0  0  0  0  0
   -4.4302    1.5455   -0.4745 C   0  0  0  0  0  0
   -3.4607    1.3283   -1.6428 C   0  0  0  0  0  0
   -2.0537    1.7203   -1.1815 C   0  0  0  0  0  0
    3.3489    1.0179   -1.5853 C   0  0  0  0  0  0
   -0.4343   -4.1640    0.2195 Cl  0  0  0  0  0  0
    2.2232   -3.5635   -0.6183 H   0  0  0  0  0  0
   -1.2643   -1.4906    0.6816 H   0  0  0  0  0  0
    3.4092   -1.4336   -0.8712 H   0  0  0  0  0  0
    1.7567    1.1585    2.2527 H   0  0  0  0  0  0
    1.7402    2.9389    2.1783 H   0  0  0  0  0  0
   -2.3085    0.0778    1.8415 H   0  0  0  0  0  0
   -4.4071   -0.4707    0.2799 H   0  0  0  0  0  0
   -4.6659    0.7745    1.5217 H   0  0  0  0  0  0
   -5.4552    1.4066   -0.8185 H   0  0  0  0  0  0
   -4.3071    2.5538   -0.0791 H   0  0  0  0  0  0
   -3.4737    0.2794   -1.9393 H   0  0  0  0  0  0
   -3.7563    1.9536   -2.4852 H   0  0  0  0  0  0
   -2.0015    2.8023   -1.0607 H   0  0  0  0  0  0
   -1.3272    1.4069   -1.9312 H   0  0  0  0  0  0
    3.8607    1.9802   -1.5912 H   0  0  0  0  0  0
    4.0852    0.2149   -1.5524 H   0  0  0  0  0  0
    2.7462    0.9214   -2.4884 H   0  0  0  0  0  0
  1  2  1  0  0  0
  1  6  2  0  0  0
  1 21  1  0  0  0
  2  3  2  0  0  0
  2 20  1  0  0  0
  3  4  1  0  0  0
  3 22  1  0  0  0
  4  5  2  0  0  0
  4 12  1  0  0  0
  5  6  1  0  0  0
  5  7  1  0  0  0
  6 23  1  0  0  0
  7  8  1  0  0  0
  7 19  1  0  0  0
  8  9  2  0  0  0
  8 10  1  0  0  0
 10 11  1  0  0  0
 10 24  1  0  0  0
 10 25  1  0  0  0
 11 12  2  0  0  0
 12 13  1  0  0  0
 13 14  2  0  0  0
 13 18  1  0  0  0
 14 15  1  0  0  0
 14 26  1  0  0  0
 15 16  1  0  0  0
 15 27  1  0  0  0
 15 28  1  0  0  0
 16 17  1  0  0  0
 16 29  1  0  0  0
 16 30  1  0  0  0
 17 18  1  0  0  0
 17 31  1  0  0  0
 17 32  1  0  0  0
 18 33  1  0  0  0
 18 34  1  0  0  0
 19 35  1  0  0  0
 19 36  1  0  0  0
 19 37  1  0  0  0
M  END
>  <Activity>
7.46852

>  <set>
2

>  <Min_dist>
0.13253

>  <Avg_dist>
0.470545

$$$$
RO05-2750
  Cerius2 12110214493D 1   1.00000                          
 
 30 32  0  0  0  0  0  0  0  0999 V2000
    2.7770   -1.0992   -0.0819 C   0  0  0  0  0  0
    1.6555   -1.7767    0.3703 C   0  0  0  0  0  0
    0.4499   -1.1204    0.4737 C   0  0  0  0  0  0
    0.3436    0.2359    0.1230 C   0  0  0  0  0  0
    1.4731    0.9137   -0.3323 C   0  0  0  0  0  0
    2.6874    0.2323   -0.4295 C   0  0  0  0  0  0
    1.4610    2.2489   -0.7050 N   0  0  0  0  0  0
    0.8026    3.2154   -0.0693 C   0  0  0  0  0  0
    0.9077    4.3583   -0.4612 O   0  0  0  0  0  0
   -0.0690    2.9268    1.1224 C   0  0  0  0  0  0
   -1.1732    2.0643    0.7037 N   0  0  0  0  0  0
   -0.9740    0.8740    0.2600 C   0  0  0  0  0  0
   -2.1615    0.0864   -0.1459 C   0  0  0  0  0  0
   -3.3659    0.2307    0.5424 C   0  0  0  0  0  0
   -4.4685   -0.5052    0.1594 C   0  0  0  0  0  0
   -4.3810   -1.3846   -0.9050 C   0  0  0  0  0  0
   -3.1890   -1.5320   -1.5916 C   0  0  0  0  0  0
   -2.0810   -0.7978   -1.2214 C   0  0  0  0  0  0
   -0.9502   -1.9755    1.0413 Cl  0  0  0  0  0  0
    4.2984   -1.9263   -0.2043 Cl  0  0  0  0  0  0
    1.7275   -2.8196    0.6413 H   0  0  0  0  0  0
    3.5660    0.7533   -0.7803 H   0  0  0  0  0  0
    1.9726    2.4984   -1.4904 H   0  0  0  0  0  0
    0.5176    2.4221    1.8901 H   0  0  0  0  0  0
   -0.4659    3.8612    1.5193 H   0  0  0  0  0  0
   -3.4353    0.9166    1.3737 H   0  0  0  0  0  0
   -5.4016   -0.3947    0.6918 H   0  0  0  0  0  0
   -5.2466   -1.9587   -1.2008 H   0  0  0  0  0  0
   -3.1268   -2.2201   -2.4217 H   0  0  0  0  0  0
   -1.1510   -0.9137   -1.7582 H   0  0  0  0  0  0
  1  2  1  0  0  0
  1  6  2  0  0  0
  1 20  1  0  0  0
  2  3  2  0  0  0
  2 21  1  0  0  0
  3  4  1  0  0  0
  3 19  1  0  0  0
  4  5  2  0  0  0
  4 12  1  0  0  0
  5  6  1  0  0  0
  5  7  1  0  0  0
  6 22  1  0  0  0
  7  8  1  0  0  0
  7 23  1  0  0  0
  8  9  2  0  0  0
  8 10  1  0  0  0
 10 11  1  0  0  0
 10 24  1  0  0  0
 10 25  1  0  0  0
 11 12  2  0  0  0
 12 13  1  0  0  0
 13 14  1  0  0  0
 13 18  2  0  0  0
 14 15  2  0  0  0
 14 26  1  0  0  0
 15 16  1  0  0  0
 15 27  1  0  0  0
 16 17  2  0  0  0
 16 28  1  0  0  0
 17 18  1  0  0  0
 17 29  1  0  0  0
 18 30  1  0  0  0
M  END
>  <Activity>
7.4318

>  <set>
2

>  <Min_dist>
0.043478

>  <Avg_dist>
0.450612

$$$$
CLORAZEPATE
  Cerius2 12110214493D 1   1.00000                          
 
 33 35  0  0  0  0  0  0  0  0999 V2000
    0.8097   -2.9684   -0.8081 C   0  0  0  0  0  0
   -0.3201   -2.6811   -0.0580 C   0  0  0  0  0  0
   -0.6600   -1.3727    0.2011 C   0  0  0  0  0  0
    0.1293   -0.3208   -0.2890 C   0  0  0  0  0  0
    1.2636   -0.6130   -1.0435 C   0  0  0  0  0  0
    1.5937   -1.9463   -1.2953 C   0  0  0  0  0  0
    2.0981    0.3603   -1.5719 N   0  0  0  0  0  0
    2.4692    1.4738   -0.9440 C   0  0  0  0  0  0
    3.2452    2.2291   -1.4902 O   0  0  0  0  0  0
    1.9509    1.8198    0.4252 C   0  0  0  0  0  0
    0.5031    2.0108    0.3490 N   0  0  0  0  0  0
   -0.2921    1.0528    0.0279 C   0  0  0  0  0  0
   -1.7414    1.3550   -0.0282 C   0  0  0  0  0  0
   -2.5901    0.5721   -0.8104 C   0  0  0  0  0  0
   -3.9391    0.8583   -0.8582 C   0  0  0  0  0  0
   -4.4500    1.9196   -0.1326 C   0  0  0  0  0  0
   -3.6131    2.7001    0.6448 C   0  0  0  0  0  0
   -2.2633    2.4200    0.7056 C   0  0  0  0  0  0
    2.2624    0.6974    1.3813 C   0  0  0  0  0  0
    1.4724   -0.2042    1.5325 O   0  0  0  0  0  0
    3.4175    0.6993    2.0651 O   0  0  0  0  0  0
   -1.3068   -3.9716    0.5541 Cl  0  0  0  0  0  0
    1.0780   -3.9955   -1.0069 H   0  0  0  0  0  0
   -1.5412   -1.1538    0.7859 H   0  0  0  0  0  0
    2.4727   -2.1783   -1.8784 H   0  0  0  0  0  0
    2.4382    0.2184   -2.4691 H   0  0  0  0  0  0
    2.4226    2.7391    0.7725 H   0  0  0  0  0  0
   -2.1922   -0.2562   -1.3779 H   0  0  0  0  0  0
   -4.5973    0.2527   -1.4635 H   0  0  0  0  0  0
   -5.5065    2.1399   -0.1734 H   0  0  0  0  0  0
   -4.0177    3.5275    1.2088 H   0  0  0  0  0  0
   -1.6110    3.0298    1.3130 H   0  0  0  0  0  0
    3.6173   -0.0209    2.6786 H   0  0  0  0  0  0
  1  2  1  0  0  0
  1  6  2  0  0  0
  1 23  1  0  0  0
  2  3  2  0  0  0
  2 22  1  0  0  0
  3  4  1  0  0  0
  3 24  1  0  0  0
  4  5  2  0  0  0
  4 12  1  0  0  0
  5  6  1  0  0  0
  5  7  1  0  0  0
  6 25  1  0  0  0
  7  8  1  0  0  0
  7 26  1  0  0  0
  8  9  2  0  0  0
  8 10  1  0  0  0
 10 11  1  0  0  0
 10 19  1  0  0  0
 10 27  1  0  0  0
 11 12  2  0  0  0
 12 13  1  0  0  0
 13 14  1  0  0  0
 13 18  2  0  0  0
 14 15  2  0  0  0
 14 28  1  0  0  0
 15 16  1  0  0  0
 15 29  1  0  0  0
 16 17  2  0  0  0
 16 30  1  0  0  0
 17 18  1  0  0  0
 17 31  1  0  0  0
 18 32  1  0  0  0
 19 20  2  0  0  0
 19 21  1  0  0  0
 21 33  1  0  0  0
M  END
>  <Activity>
7.22915

>  <set>
2

>  <Min_dist>
0.175824

>  <Avg_dist>
0.49534

$$$$
RO05-3328
  Cerius2 12110214493D 1   1.00000                          
 
 36 38  0  0  0  0  0  0  0  0999 V2000
   -3.2880   -0.1377    0.5566 C   0  0  0  0  0  0
   -2.5876   -1.1421   -0.0936 C   0  0  0  0  0  0
   -1.2718   -0.9472   -0.4458 C   0  0  0  0  0  0
   -0.6270    0.2659   -0.1512 C   0  0  0  0  0  0
   -1.3350    1.2737    0.5032 C   0  0  0  0  0  0
   -2.6696    1.0570    0.8516 C   0  0  0  0  0  0
   -0.7804    2.4996    0.8367 N   0  0  0  0  0  0
    0.0435    3.2014    0.0609 C   0  0  0  0  0  0
    0.4271    4.2888    0.4367 O   0  0  0  0  0  0
    0.5106    2.6783   -1.2702 C   0  0  0  0  0  0
    1.2925    1.4620   -1.0525 N   0  0  0  0  0  0
    0.7751    0.4060   -0.5552 C   0  0  0  0  0  0
    1.6754   -0.7880   -0.3685 C   0  0  0  0  0  0
    3.0872   -0.4418   -0.8458 C   0  0  0  0  0  0
    4.0012   -1.6541   -0.6563 C   0  0  0  0  0  0
    4.0426   -2.0350    0.8250 C   0  0  0  0  0  0
    2.6308   -2.3812    1.3022 C   0  0  0  0  0  0
    1.7168   -1.1689    1.1127 C   0  0  0  0  0  0
   -3.3710   -2.6466   -0.4632 Cl  0  0  0  0  0  0
   -4.3219   -0.2909    0.8284 H   0  0  0  0  0  0
   -0.7304   -1.7327   -0.9521 H   0  0  0  0  0  0
   -3.2229    1.8346    1.3573 H   0  0  0  0  0  0
   -1.0102    2.8751    1.7011 H   0  0  0  0  0  0
   -0.3522    2.4505   -1.8961 H   0  0  0  0  0  0
    1.1313    3.4286   -1.7599 H   0  0  0  0  0  0
    1.2912   -1.6270   -0.9488 H   0  0  0  0  0  0
    3.0577   -0.1705   -1.9010 H   0  0  0  0  0  0
    3.4714    0.3971   -0.2655 H   0  0  0  0  0  0
    3.6170   -2.4930   -1.2365 H   0  0  0  0  0  0
    5.0070   -1.4074   -0.9962 H   0  0  0  0  0  0
    4.6938   -2.8986    0.9600 H   0  0  0  0  0  0
    4.4268   -1.1961    1.4053 H   0  0  0  0  0  0
    2.2466   -3.2201    0.7219 H   0  0  0  0  0  0
    2.6603   -2.6526    2.3575 H   0  0  0  0  0  0
    2.1009   -0.3300    1.6930 H   0  0  0  0  0  0
    0.7109   -1.4156    1.4527 H   0  0  0  0  0  0
  1  2  1  0  0  0
  1  6  2  0  0  0
  1 20  1  0  0  0
  2  3  2  0  0  0
  2 19  1  0  0  0
  3  4  1  0  0  0
  3 21  1  0  0  0
  4  5  2  0  0  0
  4 12  1  0  0  0
  5  6  1  0  0  0
  5  7  1  0  0  0
  6 22  1  0  0  0
  7  8  1  0  0  0
  7 23  1  0  0  0
  8  9  2  0  0  0
  8 10  1  0  0  0
 10 11  1  0  0  0
 10 24  1  0  0  0
 10 25  1  0  0  0
 11 12  2  0  0  0
 12 13  1  0  0  0
 13 14  1  0  0  0
 13 18  1  0  0  0
 13 26  1  0  0  0
 14 15  1  0  0  0
 14 27  1  0  0  0
 14 28  1  0  0  0
 15 16  1  0  0  0
 15 29  1  0  0  0
 15 30  1  0  0  0
 16 17  1  0  0  0
 16 31  1  0  0  0
 16 32  1  0  0  0
 17 18  1  0  0  0
 17 33  1  0  0  0
 17 34  1  0  0  0
 18 35  1  0  0  0
 18 36  1  0  0  0
M  END
>  <Activity>
7.06048

>  <set>
2

>  <Min_dist>
0.070423

>  <Avg_dist>
0.454732

$$$$
PRAZEPAM
  Cerius2 12110214493D 1   1.00000                          
 
 40 43  0  0  0  0  0  0  0  0999 V2000
    0.3945   -3.0645    0.2026 C   0  0  0  0  0  0
   -0.9345   -2.6774    0.2767 C   0  0  0  0  0  0
   -1.2559   -1.3541    0.4769 C   0  0  0  0  0  0
   -0.2470   -0.3873    0.6070 C   0  0  0  0  0  0
    1.0878   -0.7795    0.5309 C   0  0  0  0  0  0
    1.3952   -2.1266    0.3288 C   0  0  0  0  0  0
    2.1491    0.1059    0.6429 N   0  0  0  0  0  0
    2.2128    1.1198    1.5029 C   0  0  0  0  0  0
    3.2172    1.7985    1.5425 O   0  0  0  0  0  0
    1.0712    1.4462    2.4267 C   0  0  0  0  0  0
   -0.0906    1.8307    1.6261 N   0  0  0  0  0  0
   -0.6628    1.0077    0.8210 C   0  0  0  0  0  0
   -1.8277    1.5013    0.0502 C   0  0  0  0  0  0
   -2.1844    0.8869   -1.1500 C   0  0  0  0  0  0
   -3.2707    1.3509   -1.8631 C   0  0  0  0  0  0
   -4.0053    2.4235   -1.3901 C   0  0  0  0  0  0
   -3.6561    3.0374   -0.2004 C   0  0  0  0  0  0
   -2.5757    2.5786    0.5248 C   0  0  0  0  0  0
    3.2897   -0.0903   -0.2553 C   0  0  0  0  0  0
    3.0681    0.7063   -1.5426 C   0  0  0  0  0  0
    4.1561    0.6315   -2.6157 C   0  0  0  0  0  0
    2.8208   -0.0843   -2.8289 C   0  0  0  0  0  0
   -2.1936   -3.8618    0.1165 Cl  0  0  0  0  0  0
    0.6457   -4.1038    0.0501 H   0  0  0  0  0  0
   -2.2928   -1.0573    0.5338 H   0  0  0  0  0  0
    2.4282   -2.4362    0.2705 H   0  0  0  0  0  0
    0.8265    0.5707    3.0281 H   0  0  0  0  0  0
    1.3543    2.2720    3.0793 H   0  0  0  0  0  0
   -1.6113    0.0499   -1.5206 H   0  0  0  0  0  0
   -3.5479    0.8759   -2.7926 H   0  0  0  0  0  0
   -4.8545    2.7834   -1.9519 H   0  0  0  0  0  0
   -4.2332    3.8746    0.1636 H   0  0  0  0  0  0
   -2.3042    3.0584    1.4535 H   0  0  0  0  0  0
    4.2007    0.2551    0.2335 H   0  0  0  0  0  0
    3.3853   -1.1493   -0.4952 H   0  0  0  0  0  0
    2.5419    1.6535   -1.4246 H   0  0  0  0  0  0
    4.3453    1.5294   -3.2040 H   0  0  0  0  0  0
    5.0297    0.0148   -2.4047 H   0  0  0  0  0  0
    2.8159   -1.1720   -2.7580 H   0  0  0  0  0  0
    2.1315    0.3426   -3.5574 H   0  0  0  0  0  0
  1  2  1  0  0  0
  1  6  2  0  0  0
  1 24  1  0  0  0
  2  3  2  0  0  0
  2 23  1  0  0  0
  3  4  1  0  0  0
  3 25  1  0  0  0
  4  5  2  0  0  0
  4 12  1  0  0  0
  5  6  1  0  0  0
  5  7  1  0  0  0
  6 26  1  0  0  0
  7  8  1  0  0  0
  7 19  1  0  0  0
  8  9  2  0  0  0
  8 10  1  0  0  0
 10 11  1  0  0  0
 10 27  1  0  0  0
 10 28  1  0  0  0
 11 12  2  0  0  0
 12 13  1  0  0  0
 13 14  1  0  0  0
 13 18  2  0  0  0
 14 15  2  0  0  0
 14 29  1  0  0  0
 15 16  1  0  0  0
 15 30  1  0  0  0
 16 17  2  0  0  0
 16 31  1  0  0  0
 17 18  1  0  0  0
 17 32  1  0  0  0
 18 33  1  0  0  0
 19 20  1  0  0  0
 19 34  1  0  0  0
 19 35  1  0  0  0
 20 21  1  0  0  0
 20 22  1  0  0  0
 20 36  1  0  0  0
 21 22  1  0  0  0
 21 37  1  0  0  0
 21 38  1  0  0  0
 22 39  1  0  0  0
 22 40  1  0  0  0
M  END
>  <Activity>
6.95861

>  <set>
2

>  <Min_dist>
0.141304

>  <Avg_dist>
0.472389

$$$$
RO10-3580
  Cerius2 12110214493D 1   1.00000                          
 
 41 43  0  0  0  0  0  0  0  0999 V2000
    0.0772   -3.3626    0.2009 C   0  0  0  0  0  0
   -1.2213   -2.9041    0.0416 C   0  0  0  0  0  0
   -1.5045   -1.5673    0.2073 C   0  0  0  0  0  0
   -0.4871   -0.6588    0.5372 C   0  0  0  0  0  0
    0.8170   -1.1226    0.6957 C   0  0  0  0  0  0
    1.0856   -2.4823    0.5248 C   0  0  0  0  0  0
    1.8849   -0.2979    1.0157 N   0  0  0  0  0  0
    1.8443    0.7016    1.8936 C   0  0  0  0  0  0
    2.8589    1.3235    2.1280 O   0  0  0  0  0  0
    0.5726    1.0805    2.6024 C   0  0  0  0  0  0
   -0.4028    1.5372    1.6131 N   0  0  0  0  0  0
   -0.8619    0.7547    0.7009 C   0  0  0  0  0  0
   -1.8398    1.3190   -0.2568 C   0  0  0  0  0  0
   -1.7792    0.9716   -1.6067 C   0  0  0  0  0  0
   -2.6932    1.5002   -2.4940 C   0  0  0  0  0  0
   -3.6699    2.3745   -2.0494 C   0  0  0  0  0  0
   -3.7372    2.7246   -0.7139 C   0  0  0  0  0  0
   -2.8309    2.1973    0.1881 C   0  0  0  0  0  0
   -2.8970    2.5393    1.4934 F   0  0  0  0  0  0
    3.1578   -0.5467    0.3343 C   0  0  0  0  0  0
    3.2150    0.2747   -0.9552 C   0  0  0  0  0  0
    3.1070    1.6643   -0.6401 O   0  0  0  0  0  0
    4.5443    0.0149   -1.6668 C   0  0  0  0  0  0
    4.5977    0.7821   -2.8712 O   0  0  0  0  0  0
   -2.4902   -4.0159   -0.3675 Cl  0  0  0  0  0  0
    0.2975   -4.4124    0.0752 H   0  0  0  0  0  0
   -2.5176   -1.2148    0.0820 H   0  0  0  0  0  0
    2.0945   -2.8474    0.6484 H   0  0  0  0  0  0
    0.1773    0.2134    3.1315 H   0  0  0  0  0  0
    0.7753    1.8824    3.3123 H   0  0  0  0  0  0
   -1.0177    0.2902   -1.9562 H   0  0  0  0  0  0
   -2.6465    1.2314   -3.5389 H   0  0  0  0  0  0
   -4.3825    2.7853   -2.7492 H   0  0  0  0  0  0
   -4.5012    3.4079   -0.3735 H   0  0  0  0  0  0
    3.9817   -0.2570    0.9865 H   0  0  0  0  0  0
    3.2401   -1.6067    0.0939 H   0  0  0  0  0  0
    2.3911   -0.0150   -1.6074 H   0  0  0  0  0  0
    3.8528    1.8788   -0.0631 H   0  0  0  0  0  0
    5.3682    0.3046   -1.0146 H   0  0  0  0  0  0
    4.6266   -1.0451   -1.9072 H   0  0  0  0  0  0
    5.4490    0.5897   -3.2876 H   0  0  0  0  0  0
  1  2  1  0  0  0
  1  6  2  0  0  0
  1 26  1  0  0  0
  2  3  2  0  0  0
  2 25  1  0  0  0
  3  4  1  0  0  0
  3 27  1  0  0  0
  4  5  2  0  0  0
  4 12  1  0  0  0
  5  6  1  0  0  0
  5  7  1  0  0  0
  6 28  1  0  0  0
  7  8  1  0  0  0
  7 20  1  0  0  0
  8  9  2  0  0  0
  8 10  1  0  0  0
 10 11  1  0  0  0
 10 29  1  0  0  0
 10 30  1  0  0  0
 11 12  2  0  0  0
 12 13  1  0  0  0
 13 14  1  0  0  0
 13 18  2  0  0  0
 14 15  2  0  0  0
 14 31  1  0  0  0
 15 16  1  0  0  0
 15 32  1  0  0  0
 16 17  2  0  0  0
 16 33  1  0  0  0
 17 18  1  0  0  0
 17 34  1  0  0  0
 18 19  1  0  0  0
 20 21  1  0  0  0
 20 35  1  0  0  0
 20 36  1  0  0  0
 21 22  1  0  0  0
 21 23  1  0  0  0
 21 37  1  0  0  0
 22 38  1  0  0  0
 23 24  1  0  0  0
 23 39  1  0  0  0
 23 40  1  0  0  0
 24 41  1  0  0  0
M  END
>  <Activity>
6.85387

>  <set>
2

>  <Min_dist>
0.117647

>  <Avg_dist>
0.494849

$$$$
RO13-0882
  Cerius2 12110214493D 1   1.00000                          
 
 33 35  0  0  0  0  0  0  0  0999 V2000
    2.8054   -1.3814    0.0943 C   0  0  0  0  0  0
    1.6218   -2.0263    0.4175 C   0  0  0  0  0  0
    0.4399   -1.3214    0.4478 C   0  0  0  0  0  0
    0.4205    0.0519    0.1522 C   0  0  0  0  0  0
    1.6122    0.6968   -0.1737 C   0  0  0  0  0  0
    2.8014   -0.0337   -0.1979 C   0  0  0  0  0  0
    1.6876    2.0458   -0.4841 N   0  0  0  0  0  0
    1.0169    3.0132    0.1370 C   0  0  0  0  0  0
    1.2029    4.1658   -0.1916 O   0  0  0  0  0  0
    0.0339    2.7143    1.2358 C   0  0  0  0  0  0
   -1.0645    1.9210    0.6855 N   0  0  0  0  0  0
   -0.8768    0.7423    0.2056 C   0  0  0  0  0  0
   -2.0554    0.0273   -0.3347 C   0  0  0  0  0  0
   -1.9412   -0.7317   -1.4998 C   0  0  0  0  0  0
   -3.0425   -1.3954   -1.9983 C   0  0  0  0  0  0
   -4.2606   -1.3108   -1.3463 C   0  0  0  0  0  0
   -4.3831   -0.5608   -0.1917 C   0  0  0  0  0  0
   -3.2854    0.1050    0.3228 C   0  0  0  0  0  0
   -3.4053    0.8380    1.4513 F   0  0  0  0  0  0
    2.5754    2.4373   -1.5818 C   0  0  0  0  0  0
   -1.0385   -2.1359    0.8539 Cl  0  0  0  0  0  0
    4.2963   -2.2702    0.0643 Cl  0  0  0  0  0  0
    1.6269   -3.0820    0.6453 H   0  0  0  0  0  0
    3.7279    0.4617   -0.4479 H   0  0  0  0  0  0
    0.5301    2.1516    2.0265 H   0  0  0  0  0  0
   -0.3570    3.6480    1.6400 H   0  0  0  0  0  0
   -0.9920   -0.7990   -2.0106 H   0  0  0  0  0  0
   -2.9544   -1.9827   -2.9004 H   0  0  0  0  0  0
   -5.1193   -1.8329   -1.7417 H   0  0  0  0  0  0
   -5.3365   -0.4982    0.3119 H   0  0  0  0  0  0
    2.5352    3.5185   -1.7136 H   0  0  0  0  0  0
    3.5969    2.1375   -1.3474 H   0  0  0  0  0  0
    2.2547    1.9470   -2.5009 H   0  0  0  0  0  0
  1  2  1  0  0  0
  1  6  2  0  0  0
  1 22  1  0  0  0
  2  3  2  0  0  0
  2 23  1  0  0  0
  3  4  1  0  0  0
  3 21  1  0  0  0
  4  5  2  0  0  0
  4 12  1  0  0  0
  5  6  1  0  0  0
  5  7  1  0  0  0
  6 24  1  0  0  0
  7  8  1  0  0  0
  7 20  1  0  0  0
  8  9  2  0  0  0
  8 10  1  0  0  0
 10 11  1  0  0  0
 10 25  1  0  0  0
 10 26  1  0  0  0
 11 12  2  0  0  0
 12 13  1  0  0  0
 13 14  1  0  0  0
 13 18  2  0  0  0
 14 15  2  0  0  0
 14 27  1  0  0  0
 15 16  1  0  0  0
 15 28  1  0  0  0
 16 17  2  0  0  0
 16 29  1  0  0  0
 17 18  1  0  0  0
 17 30  1  0  0  0
 18 19  1  0  0  0
 20 31  1  0  0  0
 20 32  1  0  0  0
 20 33  1  0  0  0
M  END
>  <Activity>
6.52288

>  <set>
2

>  <Min_dist>
0.035294

>  <Avg_dist>
0.440627

$$$$
RO22-4683
  Cerius2 12110214493D 1   1.00000                          
 
 44 46  0  0  0  0  0  0  0  0999 V2000
    1.7395   -2.6783    0.3202 C   0  0  0  0  0  0
    0.3606   -2.7827    0.4001 C   0  0  0  0  0  0
   -0.4181   -1.6491    0.3781 C   0  0  0  0  0  0
    0.1726   -0.3803    0.2751 C   0  0  0  0  0  0
    1.5598   -0.2781    0.1939 C   0  0  0  0  0  0
    2.3341   -1.4401    0.2184 C   0  0  0  0  0  0
    2.2291    0.9309    0.0846 N   0  0  0  0  0  0
    1.9137    2.0430    0.7445 C   0  0  0  0  0  0
    2.6055    3.0292    0.6043 O   0  0  0  0  0  0
    0.7213    2.1086    1.6594 C   0  0  0  0  0  0
   -0.4923    1.8977    0.8713 N   0  0  0  0  0  0
   -0.7207    0.7888    0.2598 C   0  0  0  0  0  0
   -1.9763    0.6815   -0.5182 C   0  0  0  0  0  0
   -1.9818    0.0333   -1.7534 C   0  0  0  0  0  0
   -3.1544   -0.0634   -2.4734 C   0  0  0  0  0  0
   -4.3244    0.4812   -1.9736 C   0  0  0  0  0  0
   -4.3267    1.1256   -0.7502 C   0  0  0  0  0  0
   -3.1605    1.2235   -0.0159 C   0  0  0  0  0  0
   -3.1645    2.0323    1.5202 Cl  0  0  0  0  0  0
    3.3733    0.9890   -0.8283 C   0  0  0  0  0  0
    3.2258   -0.0925   -1.9005 C   0  0  0  0  0  0
    3.4242    2.3649   -1.4954 C   0  0  0  0  0  0
    4.6651    0.7551   -0.0425 C   0  0  0  0  0  0
   -0.2753   -4.1149    0.5087 N   0  3  0  0  0  0
    0.4139   -5.1190    0.5278 O   0  0  0  0  0  0
   -1.4878   -4.2071    0.5790 O   0  5  0  0  0  0
    2.3497   -3.5691    0.3422 H   0  0  0  0  0  0
   -1.4928   -1.7362    0.4402 H   0  0  0  0  0  0
    3.4099   -1.3670    0.1573 H   0  0  0  0  0  0
    0.8019    1.3324    2.4204 H   0  0  0  0  0  0
    0.6810    3.0876    2.1369 H   0  0  0  0  0  0
   -1.0696   -0.3917   -2.1454 H   0  0  0  0  0  0
   -3.1594   -0.5651   -3.4298 H   0  0  0  0  0  0
   -5.2396    0.4029   -2.5417 H   0  0  0  0  0  0
   -5.2429    1.5489   -0.3656 H   0  0  0  0  0  0
    3.8829    0.1358   -2.7396 H   0  0  0  0  0  0
    3.4969   -1.0607   -1.4796 H   0  0  0  0  0  0
    2.1925   -0.1230   -2.2460 H   0  0  0  0  0  0
    2.4120    2.6892   -1.7370 H   0  0  0  0  0  0
    3.8827    3.0821   -0.8146 H   0  0  0  0  0  0
    4.0141    2.3038   -2.4099 H   0  0  0  0  0  0
    4.6754   -0.2637    0.3449 H   0  0  0  0  0  0
    5.5220    0.9026   -0.6998 H   0  0  0  0  0  0
    4.7182    1.4599    0.7874 H   0  0  0  0  0  0
  1  2  1  0  0  0
  1  6  2  0  0  0
  1 27  1  0  0  0
  2  3  2  0  0  0
  2 24  1  0  0  0
  3  4  1  0  0  0
  3 28  1  0  0  0
  4  5  2  0  0  0
  4 12  1  0  0  0
  5  6  1  0  0  0
  5  7  1  0  0  0
  6 29  1  0  0  0
  7  8  1  0  0  0
  7 20  1  0  0  0
  8  9  2  0  0  0
  8 10  1  0  0  0
 10 11  1  0  0  0
 10 30  1  0  0  0
 10 31  1  0  0  0
 11 12  2  0  0  0
 12 13  1  0  0  0
 13 14  1  0  0  0
 13 18  2  0  0  0
 14 15  2  0  0  0
 14 32  1  0  0  0
 15 16  1  0  0  0
 15 33  1  0  0  0
 16 17  2  0  0  0
 16 34  1  0  0  0
 17 18  1  0  0  0
 17 35  1  0  0  0
 18 19  1  0  0  0
 20 21  1  0  0  0
 20 22  1  0  0  0
 20 23  1  0  0  0
 21 36  1  0  0  0
 21 37  1  0  0  0
 21 38  1  0  0  0
 22 39  1  0  0  0
 22 40  1  0  0  0
 22 41  1  0  0  0
 23 42  1  0  0  0
 23 43  1  0  0  0
 23 44  1  0  0  0
 24 25  2  0  0  0
 24 26  1  0  0  0
M  CHG  2  24   1  26  -1
M  END
>  <Activity>
6.52288

>  <set>
2

>  <Min_dist>
0.071429

>  <Avg_dist>
0.468578

$$$$
RO06-9098
  Cerius2 12110214493D 1   1.00000                          
 
 39 41  0  0  0  0  0  0  0  0999 V2000
   -0.8062    2.9393    0.1290 C   0  0  0  0  0  0
   -1.8087    2.0180   -0.1262 C   0  0  0  0  0  0
   -1.4872    0.7097   -0.4031 C   0  0  0  0  0  0
   -0.1467    0.2951   -0.4293 C   0  0  0  0  0  0
    0.8596    1.2235   -0.1710 C   0  0  0  0  0  0
    0.5141    2.5478    0.1066 C   0  0  0  0  0  0
    2.2085    0.9038   -0.1702 N   0  0  0  0  0  0
    2.8039    0.0941   -1.0429 C   0  0  0  0  0  0
    4.0032   -0.0717   -0.9717 O   0  0  0  0  0  0
    2.0278   -0.6211   -2.1150 C   0  0  0  0  0  0
    1.0819   -1.5394   -1.4821 N   0  0  0  0  0  0
    0.1243   -1.1185   -0.7343 C   0  0  0  0  0  0
   -0.7733   -2.1330   -0.1343 C   0  0  0  0  0  0
   -1.4871   -1.8373    1.0267 C   0  0  0  0  0  0
   -2.3218   -2.7862    1.5806 C   0  0  0  0  0  0
   -2.4514   -4.0289    0.9865 C   0  0  0  0  0  0
   -1.7455   -4.3283   -0.1651 C   0  0  0  0  0  0
   -0.9121   -3.3857   -0.7316 C   0  0  0  0  0  0
    3.0441    1.5044    0.8724 C   0  0  0  0  0  0
    3.0663    0.6489    2.0168 O   0  0  0  0  0  0
    4.1674   -0.2451    1.8428 C   0  0  0  0  0  0
   -3.2267    2.4417   -0.1004 N   0  3  0  0  0  0
   -3.5118    3.6002    0.1451 O   0  0  0  0  0  0
   -4.1085    1.6320   -0.3247 O   0  5  0  0  0  0
   -1.0601    3.9673    0.3414 H   0  0  0  0  0  0
   -2.2727   -0.0045   -0.6015 H   0  0  0  0  0  0
    1.2899    3.2722    0.3060 H   0  0  0  0  0  0
    1.4833    0.1056   -2.7179 H   0  0  0  0  0  0
    2.7137   -1.1832   -2.7488 H   0  0  0  0  0  0
   -1.3865   -0.8677    1.4916 H   0  0  0  0  0  0
   -2.8748   -2.5585    2.4798 H   0  0  0  0  0  0
   -3.1059   -4.7684    1.4236 H   0  0  0  0  0  0
   -1.8502   -5.3004   -0.6240 H   0  0  0  0  0  0
   -0.3616   -3.6206   -1.6305 H   0  0  0  0  0  0
    4.0587    1.6334    0.4954 H   0  0  0  0  0  0
    2.6344    2.4750    1.1522 H   0  0  0  0  0  0
    4.2250   -0.9210    2.6960 H   0  0  0  0  0  0
    4.0250   -0.8236    0.9300 H   0  0  0  0  0  0
    5.0922    0.3272    1.7697 H   0  0  0  0  0  0
  1  2  1  0  0  0
  1  6  2  0  0  0
  1 25  1  0  0  0
  2  3  2  0  0  0
  2 22  1  0  0  0
  3  4  1  0  0  0
  3 26  1  0  0  0
  4  5  2  0  0  0
  4 12  1  0  0  0
  5  6  1  0  0  0
  5  7  1  0  0  0
  6 27  1  0  0  0
  7  8  1  0  0  0
  7 19  1  0  0  0
  8  9  2  0  0  0
  8 10  1  0  0  0
 10 11  1  0  0  0
 10 28  1  0  0  0
 10 29  1  0  0  0
 11 12  2  0  0  0
 12 13  1  0  0  0
 13 14  1  0  0  0
 13 18  2  0  0  0
 14 15  2  0  0  0
 14 30  1  0  0  0
 15 16  1  0  0  0
 15 31  1  0  0  0
 16 17  2  0  0  0
 16 32  1  0  0  0
 17 18  1  0  0  0
 17 33  1  0  0  0
 18 34  1  0  0  0
 19 20  1  0  0  0
 19 35  1  0  0  0
 19 36  1  0  0  0
 20 21  1  0  0  0
 21 37  1  0  0  0
 21 38  1  0  0  0
 21 39  1  0  0  0
 22 23  2  0  0  0
 22 24  1  0  0  0
M  CHG  2  22   1  24  -1
M  END
>  <Activity>
6.36653

>  <set>
2

>  <Min_dist>
0.229358

>  <Avg_dist>
0.524386

$$$$
RO12-6377
  Cerius2 12110214493D 1   1.00000                          
 
 42 44  0  0  0  0  0  0  0  0999 V2000
   -2.1815    1.6026   -0.1873 C   0  0  0  0  0  0
   -2.0020    0.2707   -0.5452 C   0  0  0  0  0  0
   -0.7314   -0.2708   -0.5671 C   0  0  0  0  0  0
    0.3822    0.5131   -0.2297 C   0  0  0  0  0  0
    0.1960    1.8463    0.1295 C   0  0  0  0  0  0
   -1.0948    2.3794    0.1450 C   0  0  0  0  0  0
    1.2380    2.6925    0.4825 N   0  0  0  0  0  0
    2.4259    2.7356   -0.1162 C   0  0  0  0  0  0
    3.2426    3.5541    0.2502 O   0  0  0  0  0  0
    2.7823    1.7955   -1.2353 C   0  0  0  0  0  0
    2.7774    0.4260   -0.7224 N   0  0  0  0  0  0
    1.7058   -0.1284   -0.2762 C   0  0  0  0  0  0
    1.8122   -1.5161    0.2285 C   0  0  0  0  0  0
    1.1111   -1.9019    1.3713 C   0  0  0  0  0  0
    1.2142   -3.1960    1.8368 C   0  0  0  0  0  0
    2.0111   -4.1131    1.1735 C   0  0  0  0  0  0
    2.7097   -3.7396    0.0407 C   0  0  0  0  0  0
    2.6107   -2.4469   -0.4407 C   0  0  0  0  0  0
    3.2932   -2.0821   -1.5481 F   0  0  0  0  0  0
    1.0125    3.6105    1.6017 C   0  0  0  0  0  0
   -3.1081   -0.5206   -0.8826 N   0  0  0  0  0  0
   -4.2753   -0.3616   -0.2279 C   0  0  0  0  0  0
   -4.3405    0.3917    0.7244 O   0  0  0  0  0  0
   -5.3703   -1.0374   -0.6286 N   0  0  0  0  0  0
   -6.6391   -0.8645    0.0831 C   0  0  0  0  0  0
   -3.1737    2.0289   -0.1744 H   0  0  0  0  0  0
   -0.5942   -1.3052   -0.8455 H   0  0  0  0  0  0
   -1.2420    3.4131    0.4213 H   0  0  0  0  0  0
    2.0495    1.8878   -2.0369 H   0  0  0  0  0  0
    3.7743    2.0396   -1.6152 H   0  0  0  0  0  0
    0.4889   -1.1882    1.8908 H   0  0  0  0  0  0
    0.6718   -3.4947    2.7216 H   0  0  0  0  0  0
    2.0877   -5.1250    1.5430 H   0  0  0  0  0  0
    3.3303   -4.4597   -0.4718 H   0  0  0  0  0  0
    1.9080    4.2097    1.7662 H   0  0  0  0  0  0
    0.1737    4.2667    1.3700 H   0  0  0  0  0  0
    0.7881    3.0379    2.5017 H   0  0  0  0  0  0
   -3.0337   -1.1829   -1.5874 H   0  0  0  0  0  0
   -5.3184   -1.6384   -1.3883 H   0  0  0  0  0  0
   -7.4040   -1.4867   -0.3815 H   0  0  0  0  0  0
   -6.5144   -1.1593    1.1250 H   0  0  0  0  0  0
   -6.9430    0.1812    0.0353 H   0  0  0  0  0  0
  1  2  1  0  0  0
  1  6  2  0  0  0
  1 26  1  0  0  0
  2  3  2  0  0  0
  2 21  1  0  0  0
  3  4  1  0  0  0
  3 27  1  0  0  0
  4  5  2  0  0  0
  4 12  1  0  0  0
  5  6  1  0  0  0
  5  7  1  0  0  0
  6 28  1  0  0  0
  7  8  1  0  0  0
  7 20  1  0  0  0
  8  9  2  0  0  0
  8 10  1  0  0  0
 10 11  1  0  0  0
 10 29  1  0  0  0
 10 30  1  0  0  0
 11 12  2  0  0  0
 12 13  1  0  0  0
 13 14  1  0  0  0
 13 18  2  0  0  0
 14 15  2  0  0  0
 14 31  1  0  0  0
 15 16  1  0  0  0
 15 32  1  0  0  0
 16 17  2  0  0  0
 16 33  1  0  0  0
 17 18  1  0  0  0
 17 34  1  0  0  0
 18 19  1  0  0  0
 20 35  1  0  0  0
 20 36  1  0  0  0
 20 37  1  0  0  0
 21 22  1  0  0  0
 21 38  1  0  0  0
 22 23  2  0  0  0
 22 24  1  0  0  0
 24 25  1  0  0  0
 24 39  1  0  0  0
 25 40  1  0  0  0
 25 41  1  0  0  0
 25 42  1  0  0  0
M  END
>  <Activity>
6.34199

>  <set>
2

>  <Min_dist>
0.201923

>  <Avg_dist>
0.496237

$$$$
RO20-1310
  Cerius2 12110214493D 1   1.00000                          
 
 42 44  0  0  0  0  0  0  0  0999 V2000
   -0.6370   -2.9402   -0.0789 C   0  0  0  0  0  0
    0.7023   -2.6814   -0.3260 C   0  0  0  0  0  0
    1.1310   -1.3861   -0.5075 C   0  0  0  0  0  0
    0.2217   -0.3189   -0.4445 C   0  0  0  0  0  0
   -1.1234   -0.5824   -0.1948 C   0  0  0  0  0  0
   -1.5405   -1.9028   -0.0144 C   0  0  0  0  0  0
   -2.0903    0.4080   -0.1101 N   0  0  0  0  0  0
   -2.1653    1.4746   -0.9028 C   0  0  0  0  0  0
   -3.0879    2.2496   -0.7645 O   0  0  0  0  0  0
   -1.1351    1.7442   -1.9654 C   0  0  0  0  0  0
    0.1608    1.9627   -1.3239 N   0  0  0  0  0  0
    0.7490    1.0392   -0.6499 C   0  0  0  0  0  0
    2.0554    1.3676   -0.0332 C   0  0  0  0  0  0
    2.4966    0.6653    1.0881 C   0  0  0  0  0  0
    3.7145    0.9754    1.6577 C   0  0  0  0  0  0
    4.4972    1.9809    1.1191 C   0  0  0  0  0  0
    4.0648    2.6814    0.0072 C   0  0  0  0  0  0
    2.8516    2.3763   -0.5751 C   0  0  0  0  0  0
   -3.1093    0.2692    0.9333 C   0  0  0  0  0  0
   -2.6087   -0.6955    2.0101 C   0  0  0  0  0  0
   -3.3851    1.6366    1.5619 C   0  0  0  0  0  0
   -4.3985   -0.2783    0.3175 C   0  0  0  0  0  0
    1.8389   -3.9911   -0.4059 Cl  0  0  0  0  0  0
   -0.9731   -3.9573    0.0589 H   0  0  0  0  0  0
    2.1754   -1.1894   -0.6997 H   0  0  0  0  0  0
   -2.5824   -2.1127    0.1779 H   0  0  0  0  0  0
   -1.0703    0.8878   -2.6367 H   0  0  0  0  0  0
   -1.4172    2.6326   -2.5304 H   0  0  0  0  0  0
    1.8861   -0.1194    1.5099 H   0  0  0  0  0  0
    4.0572    0.4323    2.5261 H   0  0  0  0  0  0
    5.4496    2.2203    1.5687 H   0  0  0  0  0  0
    4.6801    3.4656   -0.4086 H   0  0  0  0  0  0
    2.5153    2.9236   -1.4432 H   0  0  0  0  0  0
   -3.1166   -0.4849    2.9512 H   0  0  0  0  0  0
   -2.8187   -1.7208    1.7054 H   0  0  0  0  0  0
   -1.5340   -0.5682    2.1407 H   0  0  0  0  0  0
   -2.4398    2.1251    1.7983 H   0  0  0  0  0  0
   -3.9468    2.2527    0.8598 H   0  0  0  0  0  0
   -3.9651    1.5061    2.4755 H   0  0  0  0  0  0
   -4.2208   -1.2843   -0.0627 H   0  0  0  0  0  0
   -5.1793   -0.3096    1.0773 H   0  0  0  0  0  0
   -4.7136    0.3690   -0.5009 H   0  0  0  0  0  0
  1  2  1  0  0  0
  1  6  2  0  0  0
  1 24  1  0  0  0
  2  3  2  0  0  0
  2 23  1  0  0  0
  3  4  1  0  0  0
  3 25  1  0  0  0
  4  5  2  0  0  0
  4 12  1  0  0  0
  5  6  1  0  0  0
  5  7  1  0  0  0
  6 26  1  0  0  0
  7  8  1  0  0  0
  7 19  1  0  0  0
  8  9  2  0  0  0
  8 10  1  0  0  0
 10 11  1  0  0  0
 10 27  1  0  0  0
 10 28  1  0  0  0
 11 12  2  0  0  0
 12 13  1  0  0  0
 13 14  1  0  0  0
 13 18  2  0  0  0
 14 15  2  0  0  0
 14 29  1  0  0  0
 15 16  1  0  0  0
 15 30  1  0  0  0
 16 17  2  0  0  0
 16 31  1  0  0  0
 17 18  1  0  0  0
 17 32  1  0  0  0
 18 33  1  0  0  0
 19 20  1  0  0  0
 19 21  1  0  0  0
 19 22  1  0  0  0
 20 34  1  0  0  0
 20 35  1  0  0  0
 20 36  1  0  0  0
 21 37  1  0  0  0
 21 38  1  0  0  0
 21 39  1  0  0  0
 22 40  1  0  0  0
 22 41  1  0  0  0
 22 42  1  0  0  0
M  END
>  <Activity>
6.20761

>  <set>
2

>  <Min_dist>
0.08642

>  <Avg_dist>
0.439447

$$$$
CLOBAZAM
  Cerius2 12110214493D 1   1.00000                          
 
 34 36  0  0  0  0  0  0  0  0999 V2000
    1.5077    0.8472   -0.2659 C   0  0  0  0  0  0
    0.2548    0.4316    0.1559 C   0  0  0  0  0  0
   -0.7499    1.3801    0.3579 C   0  0  0  0  0  0
   -0.5073    2.7207    0.1422 C   0  0  0  0  0  0
    0.7442    3.1353   -0.2784 C   0  0  0  0  0  0
    1.7426    2.2069   -0.4807 C   0  0  0  0  0  0
   -1.7692    3.8852    0.3975 Cl  0  0  0  0  0  0
   -0.0785   -0.8989    0.3963 N   0  0  0  0  0  0
    0.6952   -1.7938    1.0058 C   0  0  0  0  0  0
    0.2745   -2.9162    1.1913 O   0  0  0  0  0  0
    2.0843   -1.4388    1.4694 C   0  0  0  0  0  0
    2.9030   -1.0609    0.2622 C   0  0  0  0  0  0
    3.8811   -1.7189   -0.0234 O   0  0  0  0  0  0
    2.5716   -0.0191   -0.5010 N   0  0  0  0  0  0
    3.4018    0.2376   -1.6804 C   0  0  0  0  0  0
   -1.3362   -1.3323   -0.0403 C   0  0  0  0  0  0
   -1.5177   -1.7238   -1.3603 C   0  0  0  0  0  0
   -2.7595   -2.1508   -1.7880 C   0  0  0  0  0  0
   -3.8218   -2.1882   -0.9034 C   0  0  0  0  0  0
   -3.6446   -1.7985    0.4115 C   0  0  0  0  0  0
   -2.4036   -1.3769    0.8470 C   0  0  0  0  0  0
   -1.7279    1.0605    0.6862 H   0  0  0  0  0  0
    0.9380    4.1841   -0.4482 H   0  0  0  0  0  0
    2.7180    2.5349   -0.8084 H   0  0  0  0  0  0
    2.0373   -0.5967    2.1599 H   0  0  0  0  0  0
    2.5365   -2.2973    1.9661 H   0  0  0  0  0  0
    4.1941   -0.5089   -1.7366 H   0  0  0  0  0  0
    2.7856    0.1816   -2.5778 H   0  0  0  0  0  0
    3.8436    1.2312   -1.6045 H   0  0  0  0  0  0
   -0.6886   -1.6941   -2.0518 H   0  0  0  0  0  0
   -2.9013   -2.4554   -2.8144 H   0  0  0  0  0  0
   -4.7921   -2.5221   -1.2404 H   0  0  0  0  0  0
   -4.4763   -1.8285    1.0998 H   0  0  0  0  0  0
   -2.2658   -1.0726    1.8741 H   0  0  0  0  0  0
  1  2  1  0  0  0
  1  6  2  0  0  0
  1 14  1  0  0  0
  2  3  2  0  0  0
  2  8  1  0  0  0
  3  4  1  0  0  0
  3 22  1  0  0  0
  4  5  2  0  0  0
  4  7  1  0  0  0
  5  6  1  0  0  0
  5 23  1  0  0  0
  6 24  1  0  0  0
  8  9  1  0  0  0
  8 16  1  0  0  0
  9 10  2  0  0  0
  9 11  1  0  0  0
 11 12  1  0  0  0
 11 25  1  0  0  0
 11 26  1  0  0  0
 12 13  2  0  0  0
 12 14  1  0  0  0
 14 15  1  0  0  0
 15 27  1  0  0  0
 15 28  1  0  0  0
 15 29  1  0  0  0
 16 17  1  0  0  0
 16 21  2  0  0  0
 17 18  2  0  0  0
 17 30  1  0  0  0
 18 19  1  0  0  0
 18 31  1  0  0  0
 19 20  2  0  0  0
 19 32  1  0  0  0
 20 21  1  0  0  0
 20 33  1  0  0  0
 21 34  1  0  0  0
M  END
>  <Activity>
6.88606

>  <set>
2

>  <Min_dist>
0.071429

>  <Avg_dist>
0.634472

$$$$
RO11-5073
  Cerius2 12110214493D 1   1.00000                          
 
 38 41  0  0  0  0  0  0  0  0999 V2000
    1.3498    0.8885   -0.0118 C   0  0  0  0  0  0
    0.0224    0.5520    0.2629 C   0  0  0  0  0  0
   -0.8900    1.5780    0.5510 C   0  0  0  0  0  0
   -0.4885    2.8952    0.5402 C   0  0  0  0  0  0
    0.8248    3.2214    0.2432 C   0  0  0  0  0  0
    1.7376    2.2237   -0.0303 C   0  0  0  0  0  0
   -1.6319    4.1512    0.8993 Cl  0  0  0  0  0  0
   -0.4773   -0.8269    0.2352 C   0  0  0  0  0  0
    0.0964   -1.8851    0.6919 N   0  0  0  0  0  0
    1.3984   -1.8315    1.3660 C   0  0  0  0  0  0
    2.4039   -1.2924    0.3805 C   0  0  0  0  0  0
    2.3223   -0.0872   -0.2385 N   0  0  0  0  0  0
    3.3862   -0.0235   -1.0818 C   0  0  0  0  0  0
    4.0690   -1.1263   -0.9158 N   0  0  0  0  0  0
    3.4892   -1.8741   -0.0423 N   0  0  0  0  0  0
    3.7156    1.1024   -2.0277 C   0  0  0  0  0  0
    1.8102   -3.2363    1.8108 C   0  0  0  0  0  0
   -1.8024   -1.0258   -0.3941 C   0  0  0  0  0  0
   -2.1411   -0.3240   -1.5515 C   0  0  0  0  0  0
   -3.3771   -0.5134   -2.1332 C   0  0  0  0  0  0
   -4.2827   -1.3973   -1.5720 C   0  0  0  0  0  0
   -3.9559   -2.0965   -0.4253 C   0  0  0  0  0  0
   -2.7175   -1.9213    0.1649 C   0  0  0  0  0  0
   -2.3982   -2.6048    1.2857 F   0  0  0  0  0  0
   -1.9159    1.3328    0.7829 H   0  0  0  0  0  0
    1.1339    4.2561    0.2259 H   0  0  0  0  0  0
    2.7606    2.4816   -0.2612 H   0  0  0  0  0  0
    1.3393   -1.1716    2.2316 H   0  0  0  0  0  0
    4.3506    1.8289   -1.5206 H   0  0  0  0  0  0
    4.2403    0.7052   -2.8966 H   0  0  0  0  0  0
    2.7943    1.5875   -2.3500 H   0  0  0  0  0  0
    1.0640   -3.6327    2.4994 H   0  0  0  0  0  0
    1.8822   -3.8868    0.9392 H   0  0  0  0  0  0
    2.7777   -3.1901    2.3107 H   0  0  0  0  0  0
   -1.4367    0.3667   -1.9909 H   0  0  0  0  0  0
   -3.6395    0.0297   -3.0290 H   0  0  0  0  0  0
   -5.2492   -1.5409   -2.0321 H   0  0  0  0  0  0
   -4.6671   -2.7844    0.0078 H   0  0  0  0  0  0
  1  2  1  0  0  0
  1  6  2  0  0  0
  1 12  1  0  0  0
  2  3  2  0  0  0
  2  8  1  0  0  0
  3  4  1  0  0  0
  3 25  1  0  0  0
  4  5  2  0  0  0
  4  7  1  0  0  0
  5  6  1  0  0  0
  5 26  1  0  0  0
  6 27  1  0  0  0
  8  9  2  0  0  0
  8 18  1  0  0  0
  9 10  1  0  0  0
 10 11  1  0  0  0
 10 17  1  0  0  0
 10 28  1  0  0  0
 11 12  1  0  0  0
 11 15  2  0  0  0
 12 13  1  0  0  0
 13 14  2  0  0  0
 13 16  1  0  0  0
 14 15  1  0  0  0
 16 29  1  0  0  0
 16 30  1  0  0  0
 16 31  1  0  0  0
 17 32  1  0  0  0
 17 33  1  0  0  0
 17 34  1  0  0  0
 18 19  1  0  0  0
 18 23  2  0  0  0
 19 20  2  0  0  0
 19 35  1  0  0  0
 20 21  1  0  0  0
 20 36  1  0  0  0
 21 22  2  0  0  0
 21 37  1  0  0  0
 22 23  1  0  0  0
 22 38  1  0  0  0
 23 24  1  0  0  0
M  END
>  <Activity>
8.48149

>  <set>
2

>  <Min_dist>
0.1

>  <Avg_dist>
0.522701

$$$$
ALPHA-HYDROXYTRIAZOL
  Cerius2 12110214493D 1   1.00000                          
 
 36 39  0  0  0  0  0  0  0  0999 V2000
    1.1088    0.4138    0.1886 C   0  0  0  0  0  0
   -0.2523    0.2412    0.4503 C   0  0  0  0  0  0
   -1.0662    1.3769    0.5773 C   0  0  0  0  0  0
   -0.5362    2.6386    0.4234 C   0  0  0  0  0  0
    0.8104    2.7995    0.1404 C   0  0  0  0  0  0
    1.6271    1.6936    0.0245 C   0  0  0  0  0  0
   -1.5590    4.0320    0.5841 Cl  0  0  0  0  0  0
   -0.8848   -1.0768    0.5695 C   0  0  0  0  0  0
   -0.4316   -2.1195    1.1723 N   0  0  0  0  0  0
    0.8508   -2.1069    1.8852 C   0  0  0  0  0  0
    1.9309   -1.7923    0.8816 C   0  0  0  0  0  0
    1.9858   -0.6703    0.1190 N   0  0  0  0  0  0
    3.0729   -0.8129   -0.6840 C   0  0  0  0  0  0
    3.6384   -1.9466   -0.3601 N   0  0  0  0  0  0
    2.9642   -2.5225    0.5747 N   0  0  0  0  0  0
    3.5378    0.1511   -1.7450 C   0  0  0  0  0  0
    4.4427    1.0946   -1.1678 O   0  0  0  0  0  0
   -2.2064   -1.2255   -0.0831 C   0  0  0  0  0  0
   -2.5533   -0.4058   -1.1568 C   0  0  0  0  0  0
   -3.7856   -0.5495   -1.7608 C   0  0  0  0  0  0
   -4.6764   -1.5039   -1.3031 C   0  0  0  0  0  0
   -4.3380   -2.3200   -0.2385 C   0  0  0  0  0  0
   -3.1065   -2.1898    0.3701 C   0  0  0  0  0  0
   -2.1172    1.2607    0.7972 H   0  0  0  0  0  0
    1.2206    3.7901    0.0105 H   0  0  0  0  0  0
    2.6763    1.8228   -0.1964 H   0  0  0  0  0  0
    0.8341   -1.3423    2.6618 H   0  0  0  0  0  0
    1.0347   -3.0841    2.3317 H   0  0  0  0  0  0
    4.0435   -0.3985   -2.5389 H   0  0  0  0  0  0
    2.6782    0.6784   -2.1587 H   0  0  0  0  0  0
    4.7153    1.6912   -1.8783 H   0  0  0  0  0  0
   -1.8591    0.3401   -1.5145 H   0  0  0  0  0  0
   -4.0554    0.0847   -2.5924 H   0  0  0  0  0  0
   -5.6400   -1.6122   -1.7787 H   0  0  0  0  0  0
   -5.0375   -3.0633    0.1144 H   0  0  0  0  0  0
   -2.8434   -2.8275    1.2011 H   0  0  0  0  0  0
  1  2  1  0  0  0
  1  6  2  0  0  0
  1 12  1  0  0  0
  2  3  2  0  0  0
  2  8  1  0  0  0
  3  4  1  0  0  0
  3 24  1  0  0  0
  4  5  2  0  0  0
  4  7  1  0  0  0
  5  6  1  0  0  0
  5 25  1  0  0  0
  6 26  1  0  0  0
  8  9  2  0  0  0
  8 18  1  0  0  0
  9 10  1  0  0  0
 10 11  1  0  0  0
 10 27  1  0  0  0
 10 28  1  0  0  0
 11 12  1  0  0  0
 11 15  2  0  0  0
 12 13  1  0  0  0
 13 14  2  0  0  0
 13 16  1  0  0  0
 14 15  1  0  0  0
 16 17  1  0  0  0
 16 29  1  0  0  0
 16 30  1  0  0  0
 17 31  1  0  0  0
 18 19  1  0  0  0
 18 23  2  0  0  0
 19 20  2  0  0  0
 19 32  1  0  0  0
 20 21  1  0  0  0
 20 33  1  0  0  0
 21 22  2  0  0  0
 21 34  1  0  0  0
 22 23  1  0  0  0
 22 35  1  0  0  0
 23 36  1  0  0  0
M  END
>  <Activity>
8.37675

>  <set>
2

>  <Min_dist>
0.114943

>  <Avg_dist>
0.522011

$$$$
RO11-1465
  Cerius2 12110214493D 1   1.00000                          
 
 32 35  0  0  0  0  0  0  0  0999 V2000
    1.6233   -0.0182    0.0649 C   0  0  0  0  0  0
    0.2951    0.3744    0.2181 C   0  0  0  0  0  0
    0.1062    1.7970    0.4520 C   0  0  0  0  0  0
    1.1766    2.6089    0.4890 C   0  0  0  0  0  0
    2.5390    1.4925    0.2115 S   0  0  0  0  0  0
    1.2217    4.3255    0.7435 Cl  0  0  0  0  0  0
   -0.8286   -0.5835    0.1234 C   0  0  0  0  0  0
   -0.8156   -1.8083    0.5375 N   0  0  0  0  0  0
    0.2997   -2.3879    1.2874 C   0  0  0  0  0  0
    1.5336   -2.4055    0.4253 C   0  0  0  0  0  0
    2.1011   -1.2951   -0.1323 N   0  0  0  0  0  0
    3.1642   -1.7349   -0.8482 C   0  0  0  0  0  0
    3.2177   -3.0331   -0.6932 N   0  0  0  0  0  0
    2.2528   -3.4260    0.0645 N   0  0  0  0  0  0
    4.1054   -0.8898   -1.6673 C   0  0  0  0  0  0
   -2.0803   -0.0957   -0.5011 C   0  0  0  0  0  0
   -2.0272    0.7308   -1.6233 C   0  0  0  0  0  0
   -3.1961    1.1820   -2.2005 C   0  0  0  0  0  0
   -4.4204    0.8166   -1.6688 C   0  0  0  0  0  0
   -4.4810   -0.0024   -0.5564 C   0  0  0  0  0  0
   -3.3177   -0.4658    0.0276 C   0  0  0  0  0  0
   -3.3948   -1.4945    1.4238 Cl  0  0  0  0  0  0
   -0.8863    2.1981    0.5946 H   0  0  0  0  0  0
    0.4881   -1.7889    2.1784 H   0  0  0  0  0  0
    0.0483   -3.4067    1.5821 H   0  0  0  0  0  0
    4.9368   -0.5627   -1.0429 H   0  0  0  0  0  0
    4.4873   -1.4769   -2.5025 H   0  0  0  0  0  0
    3.5729   -0.0187   -2.0489 H   0  0  0  0  0  0
   -1.0727    1.0173   -2.0395 H   0  0  0  0  0  0
   -3.1556    1.8223   -3.0693 H   0  0  0  0  0  0
   -5.3324    1.1730   -2.1244 H   0  0  0  0  0  0
   -5.4394   -0.2842   -0.1460 H   0  0  0  0  0  0
  1  2  2  0  0  0
  1  5  1  0  0  0
  1 11  1  0  0  0
  2  3  1  0  0  0
  2  7  1  0  0  0
  3  4  2  0  0  0
  3 23  1  0  0  0
  4  5  1  0  0  0
  4  6  1  0  0  0
  7  8  2  0  0  0
  7 16  1  0  0  0
  8  9  1  0  0  0
  9 10  1  0  0  0
  9 24  1  0  0  0
  9 25  1  0  0  0
 10 11  1  0  0  0
 10 14  2  0  0  0
 11 12  1  0  0  0
 12 13  2  0  0  0
 12 15  1  0  0  0
 13 14  1  0  0  0
 15 26  1  0  0  0
 15 27  1  0  0  0
 15 28  1  0  0  0
 16 17  1  0  0  0
 16 21  2  0  0  0
 17 18  2  0  0  0
 17 29  1  0  0  0
 18 19  1  0  0  0
 18 30  1  0  0  0
 19 20  2  0  0  0
 19 31  1  0  0  0
 20 21  1  0  0  0
 20 32  1  0  0  0
 21 22  1  0  0  0
M  END
>  <Activity>
8.85387

>  <set>
2

>  <Min_dist>
0.04902

>  <Avg_dist>
0.549199

$$$$
ALPHA-HYDROXYMIDAZOL
  Cerius2 12110214493D 1   1.00000                          
 
 37 40  0  0  0  0  0  0  0  0999 V2000
    1.3347    0.3285    0.1836 C   0  0  0  0  0  0
   -0.0481    0.3522    0.3752 C   0  0  0  0  0  0
   -0.6872    1.5915    0.5342 C   0  0  0  0  0  0
    0.0339    2.7632    0.4793 C   0  0  0  0  0  0
    1.4024    2.7308    0.2656 C   0  0  0  0  0  0
    2.0481    1.5204    0.1194 C   0  0  0  0  0  0
   -0.7746    4.2865    0.6781 Cl  0  0  0  0  0  0
   -0.8793   -0.8561    0.3889 C   0  0  0  0  0  0
   -0.6246   -1.9865    0.9498 N   0  0  0  0  0  0
    0.6063   -2.2099    1.7170 C   0  0  0  0  0  0
    1.7705   -2.0157    0.7802 C   0  0  0  0  0  0
    2.0442   -0.8718    0.0853 N   0  0  0  0  0  0
    3.1411   -1.1179   -0.6740 C   0  0  0  0  0  0
    3.5467   -2.3358   -0.4283 N   0  0  0  0  0  0
    2.7213   -2.9090    0.4635 C   0  0  0  0  0  0
    3.7825   -0.1518   -1.6365 C   0  0  0  0  0  0
    4.7740    0.6158   -0.9511 O   0  0  0  0  0  0
   -2.1700   -0.7644   -0.3304 C   0  0  0  0  0  0
   -2.2466   -0.0904   -1.5496 C   0  0  0  0  0  0
   -3.4518   -0.0083   -2.2150 C   0  0  0  0  0  0
   -4.5856   -0.5920   -1.6766 C   0  0  0  0  0  0
   -4.5192   -1.2617   -0.4692 C   0  0  0  0  0  0
   -3.3158   -1.3572    0.2058 C   0  0  0  0  0  0
   -3.2510   -2.0118    1.3859 F   0  0  0  0  0  0
   -1.7537    1.6264    0.7007 H   0  0  0  0  0  0
    1.9634    3.6523    0.2142 H   0  0  0  0  0  0
    3.1150    1.4985   -0.0472 H   0  0  0  0  0  0
    0.6669   -1.4926    2.5355 H   0  0  0  0  0  0
    0.6159   -3.2254    2.1129 H   0  0  0  0  0  0
    2.8079   -3.9111    0.8568 H   0  0  0  0  0  0
    4.2504   -0.7062   -2.4500 H   0  0  0  0  0  0
    3.0222    0.5158   -2.0419 H   0  0  0  0  0  0
    5.1587    1.2196   -1.6012 H   0  0  0  0  0  0
   -1.3636    0.3665   -1.9715 H   0  0  0  0  0  0
   -3.5112    0.5134   -3.1588 H   0  0  0  0  0  0
   -5.5266   -0.5236   -2.2022 H   0  0  0  0  0  0
   -5.4075   -1.7147   -0.0544 H   0  0  0  0  0  0
  1  2  1  0  0  0
  1  6  2  0  0  0
  1 12  1  0  0  0
  2  3  2  0  0  0
  2  8  1  0  0  0
  3  4  1  0  0  0
  3 25  1  0  0  0
  4  5  2  0  0  0
  4  7  1  0  0  0
  5  6  1  0  0  0
  5 26  1  0  0  0
  6 27  1  0  0  0
  8  9  2  0  0  0
  8 18  1  0  0  0
  9 10  1  0  0  0
 10 11  1  0  0  0
 10 28  1  0  0  0
 10 29  1  0  0  0
 11 12  1  0  0  0
 11 15  2  0  0  0
 12 13  1  0  0  0
 13 14  2  0  0  0
 13 16  1  0  0  0
 14 15  1  0  0  0
 15 30  1  0  0  0
 16 17  1  0  0  0
 16 31  1  0  0  0
 16 32  1  0  0  0
 17 33  1  0  0  0
 18 19  1  0  0  0
 18 23  2  0  0  0
 19 20  2  0  0  0
 19 34  1  0  0  0
 20 21  1  0  0  0
 20 35  1  0  0  0
 21 22  2  0  0  0
 21 36  1  0  0  0
 22 23  1  0  0  0
 22 37  1  0  0  0
 23 24  1  0  0  0
M  END
>  <Activity>
8.34679

>  <set>
2

>  <Min_dist>
0.075

>  <Avg_dist>
0.472681

$$$$
RO22-1892
  Cerius2 12110214493D 1   1.00000                          
 
 46 49  0  0  0  0  0  0  0  0999 V2000
    0.7152    1.7614    0.2306 C   0  0  0  0  0  0
    1.5798    0.7318   -0.1432 C   0  0  0  0  0  0
    2.9140    1.0444   -0.4428 C   0  0  0  0  0  0
    3.3675    2.3415   -0.3479 C   0  0  0  0  0  0
    2.5078    3.3536    0.0463 C   0  0  0  0  0  0
    1.1895    3.0644    0.3333 C   0  0  0  0  0  0
    5.0221    2.7091   -0.7231 Cl  0  0  0  0  0  0
    1.1723   -0.6767   -0.2107 C   0  0  0  0  0  0
    0.0754   -1.1586   -0.6791 N   0  3  0  0  0  0
   -0.9597   -0.2978   -1.2630 C   0  0  0  0  0  0
   -1.4277    0.6500   -0.1892 C   0  0  0  0  0  0
   -0.6427    1.5323    0.4782 N   0  0  0  0  0  0
   -1.4231    2.1624    1.3973 C   0  0  0  0  0  0
   -2.6454    1.7260    1.2820 N   0  0  0  0  0  0
   -2.6911    0.7866    0.2988 C   0  0  0  0  0  0
   -3.8850    0.0545   -0.1531 C   0  0  0  0  0  0
   -3.7937   -0.7645   -1.0465 O   0  0  0  0  0  0
   -5.0798    0.2921    0.4239 O   0  0  0  0  0  0
   -6.2578   -0.4303   -0.0219 C   0  0  0  0  0  0
   -7.2327   -0.5868    1.1468 C   0  0  0  0  0  0
   -6.9361    0.3477   -1.1513 C   0  0  0  0  0  0
   -0.1388   -2.5574   -0.6303 O   0  5  0  0  0  0
    2.1406   -1.6615    0.3243 C   0  0  0  0  0  0
    2.8544   -1.3804    1.4891 C   0  0  0  0  0  0
    3.7546   -2.3015    1.9830 C   0  0  0  0  0  0
    3.9514   -3.5037    1.3261 C   0  0  0  0  0  0
    3.2481   -3.7906    0.1709 C   0  0  0  0  0  0
    2.3388   -2.8782   -0.3321 C   0  0  0  0  0  0
    1.6516   -3.1587   -1.4610 F   0  0  0  0  0  0
    3.5915    0.2614   -0.7501 H   0  0  0  0  0  0
    2.8690    4.3680    0.1290 H   0  0  0  0  0  0
    0.5214    3.8556    0.6401 H   0  0  0  0  0  0
   -0.5434    0.2662   -2.0977 H   0  0  0  0  0  0
   -1.7952   -0.9069   -1.6079 H   0  0  0  0  0  0
   -1.0847    2.9028    2.1070 H   0  0  0  0  0  0
   -5.9643   -1.4154   -0.3846 H   0  0  0  0  0  0
   -8.1170   -1.1291    0.8122 H   0  0  0  0  0  0
   -6.7495   -1.1410    1.9514 H   0  0  0  0  0  0
   -7.5262    0.3983    1.5095 H   0  0  0  0  0  0
   -7.2296    1.3328   -0.7886 H   0  0  0  0  0  0
   -6.2415    0.4592   -1.9839 H   0  0  0  0  0  0
   -7.8204   -0.1946   -1.4859 H   0  0  0  0  0  0
    2.7029   -0.4428    2.0033 H   0  0  0  0  0  0
    4.3077   -2.0839    2.8847 H   0  0  0  0  0  0
    4.6578   -4.2208    1.7174 H   0  0  0  0  0  0
    3.4064   -4.7303   -0.3373 H   0  0  0  0  0  0
  1  2  1  0  0  0
  1  6  2  0  0  0
  1 12  1  0  0  0
  2  3  2  0  0  0
  2  8  1  0  0  0
  3  4  1  0  0  0
  3 30  1  0  0  0
  4  5  2  0  0  0
  4  7  1  0  0  0
  5  6  1  0  0  0
  5 31  1  0  0  0
  6 32  1  0  0  0
  8  9  2  0  0  0
  8 23  1  0  0  0
  9 10  1  0  0  0
  9 22  1  0  0  0
 10 11  1  0  0  0
 10 33  1  0  0  0
 10 34  1  0  0  0
 11 12  1  0  0  0
 11 15  2  0  0  0
 12 13  1  0  0  0
 13 14  2  0  0  0
 13 35  1  0  0  0
 14 15  1  0  0  0
 15 16  1  0  0  0
 16 17  2  0  0  0
 16 18  1  0  0  0
 18 19  1  0  0  0
 19 20  1  0  0  0
 19 21  1  0  0  0
 19 36  1  0  0  0
 20 37  1  0  0  0
 20 38  1  0  0  0
 20 39  1  0  0  0
 21 40  1  0  0  0
 21 41  1  0  0  0
 21 42  1  0  0  0
 23 24  1  0  0  0
 23 28  2  0  0  0
 24 25  2  0  0  0
 24 43  1  0  0  0
 25 26  1  0  0  0
 25 44  1  0  0  0
 26 27  2  0  0  0
 26 45  1  0  0  0
 27 28  1  0  0  0
 27 46  1  0  0  0
 28 29  1  0  0  0
M  CHG  2   9   1  22  -1
M  END
>  <Activity>
7.92082

>  <set>
2

>  <Min_dist>
0.177419

>  <Avg_dist>
0.529378

$$$$
RO16-0529
  Cerius2 12110214493D 1   1.00000                          
 
 48 51  0  0  0  0  0  0  0  0999 V2000
   -0.9615    1.9017   -0.1835 C   0  0  0  0  0  0
   -1.8844    0.9355    0.2210 C   0  0  0  0  0  0
   -3.1910    1.3400    0.5409 C   0  0  0  0  0  0
   -3.5593    2.6631    0.4348 C   0  0  0  0  0  0
   -2.6433    3.6099    0.0110 C   0  0  0  0  0  0
   -1.3522    3.2314   -0.2961 C   0  0  0  0  0  0
   -4.3508    0.1632    1.0735 Cl  0  0  0  0  0  0
   -1.5690   -0.4943    0.3014 C   0  0  0  0  0  0
   -0.4965   -1.0412    0.7568 N   0  0  0  0  0  0
    0.6036   -0.2424    1.3089 C   0  0  0  0  0  0
    1.1115    0.6584    0.2130 C   0  0  0  0  0  0
    0.3725    1.5814   -0.4526 N   0  0  0  0  0  0
    1.1746    2.1470   -1.3951 C   0  0  0  0  0  0
    2.3678    1.6331   -1.2959 N   0  0  0  0  0  0
    2.3711    0.7058   -0.3001 C   0  0  0  0  0  0
    3.5234   -0.0968    0.1401 C   0  0  0  0  0  0
    3.3964   -0.8961    1.0469 O   0  0  0  0  0  0
    4.7197    0.0546   -0.4622 O   0  0  0  0  0  0
    5.8566   -0.7373   -0.0278 C   0  0  0  0  0  0
    7.0822   -0.3741   -0.8687 C   0  0  0  0  0  0
    6.1459   -0.4483    1.4465 C   0  0  0  0  0  0
    5.5398   -2.2237   -0.2036 C   0  0  0  0  0  0
   -2.6101   -1.4206   -0.2016 C   0  0  0  0  0  0
   -3.4097   -1.0541   -1.2840 C   0  0  0  0  0  0
   -4.3776   -1.9211   -1.7479 C   0  0  0  0  0  0
   -4.5558   -3.1518   -1.1416 C   0  0  0  0  0  0
   -3.7658   -3.5211   -0.0676 C   0  0  0  0  0  0
   -2.7907   -2.6650    0.4017 C   0  0  0  0  0  0
   -4.5668    2.9626    0.6830 H   0  0  0  0  0  0
   -2.9389    4.6447   -0.0797 H   0  0  0  0  0  0
   -0.6401    3.9733   -0.6262 H   0  0  0  0  0  0
    0.2413    0.3586    2.1429 H   0  0  0  0  0  0
    1.4043   -0.9002    1.6471 H   0  0  0  0  0  0
    0.8716    2.8986   -2.1090 H   0  0  0  0  0  0
    7.9356   -0.9686   -0.5426 H   0  0  0  0  0  0
    6.8761   -0.5800   -1.9191 H   0  0  0  0  0  0
    7.3079    0.6849   -0.7435 H   0  0  0  0  0  0
    6.3717    0.6107    1.5717 H   0  0  0  0  0  0
    5.2728   -0.7070    2.0456 H   0  0  0  0  0  0
    6.9994   -1.0427    1.7726 H   0  0  0  0  0  0
    5.3337   -2.4296   -1.2539 H   0  0  0  0  0  0
    6.3932   -2.8182    0.1225 H   0  0  0  0  0  0
    4.6667   -2.4824    0.3955 H   0  0  0  0  0  0
   -3.2717   -0.0934   -1.7578 H   0  0  0  0  0  0
   -4.9976   -1.6383   -2.5857 H   0  0  0  0  0  0
   -5.3150   -3.8270   -1.5080 H   0  0  0  0  0  0
   -3.9098   -4.4830    0.4018 H   0  0  0  0  0  0
   -2.1745   -2.9544    1.2402 H   0  0  0  0  0  0
  1  2  1  0  0  0
  1  6  2  0  0  0
  1 12  1  0  0  0
  2  3  2  0  0  0
  2  8  1  0  0  0
  3  4  1  0  0  0
  3  7  1  0  0  0
  4  5  2  0  0  0
  4 29  1  0  0  0
  5  6  1  0  0  0
  5 30  1  0  0  0
  6 31  1  0  0  0
  8  9  2  0  0  0
  8 23  1  0  0  0
  9 10  1  0  0  0
 10 11  1  0  0  0
 10 32  1  0  0  0
 10 33  1  0  0  0
 11 12  1  0  0  0
 11 15  2  0  0  0
 12 13  1  0  0  0
 13 14  2  0  0  0
 13 34  1  0  0  0
 14 15  1  0  0  0
 15 16  1  0  0  0
 16 17  2  0  0  0
 16 18  1  0  0  0
 18 19  1  0  0  0
 19 20  1  0  0  0
 19 21  1  0  0  0
 19 22  1  0  0  0
 20 35  1  0  0  0
 20 36  1  0  0  0
 20 37  1  0  0  0
 21 38  1  0  0  0
 21 39  1  0  0  0
 21 40  1  0  0  0
 22 41  1  0  0  0
 22 42  1  0  0  0
 22 43  1  0  0  0
 23 24  1  0  0  0
 23 28  2  0  0  0
 24 25  2  0  0  0
 24 44  1  0  0  0
 25 26  1  0  0  0
 25 45  1  0  0  0
 26 27  2  0  0  0
 26 46  1  0  0  0
 27 28  1  0  0  0
 27 47  1  0  0  0
 28 48  1  0  0  0
M  END
>  <Activity>
7.85387

>  <set>
2

>  <Min_dist>
0.131579

>  <Avg_dist>
0.514086

$$$$
RO21-8482
  Cerius2 12110214493D 1   1.00000                          
 
 48 51  0  0  0  0  0  0  0  0999 V2000
    0.4478    1.0933    0.7462 C   0  0  0  0  0  0
   -0.8359    0.5629    0.6078 C   0  0  0  0  0  0
   -1.9396    1.3764    0.9070 C   0  0  0  0  0  0
   -1.7590    2.6813    1.3079 C   0  0  0  0  0  0
   -0.4817    3.2062    1.4200 C   0  0  0  0  0  0
    0.6145    2.4162    1.1413 C   0  0  0  0  0  0
   -3.1366    3.6724    1.6734 Cl  0  0  0  0  0  0
   -1.0963   -0.8006    0.1335 C   0  0  0  0  0  0
   -0.4686   -1.8791    0.4491 N   0  0  0  0  0  0
    0.6439   -1.8738    1.4060 C   0  0  0  0  0  0
    1.7289   -0.9927    0.8431 C   0  0  0  0  0  0
    1.5931    0.3205    0.5302 N   0  0  0  0  0  0
    2.7751    0.7409    0.0040 C   0  0  0  0  0  0
    3.6214   -0.2497    0.0259 N   0  0  0  0  0  0
    3.0089   -1.3456    0.5478 C   0  0  0  0  0  0
    3.6190   -2.6703    0.7556 C   0  0  0  0  0  0
    2.9613   -3.5743    1.2345 O   0  0  0  0  0  0
    4.9061   -2.8803    0.4151 N   0  0  0  0  0  0
    3.0589    2.1253   -0.5194 C   0  0  0  0  0  0
    2.8827    2.1432   -1.9777 N   0  0  0  0  0  0
    2.7950    3.5547   -2.3751 C   0  0  0  0  0  0
    4.1248    1.6172   -2.5595 C   0  0  0  0  0  0
   -2.2162   -0.9549   -0.8232 C   0  0  0  0  0  0
   -2.4163   -0.0063   -1.8264 C   0  0  0  0  0  0
   -3.4611   -0.1554   -2.7144 C   0  0  0  0  0  0
   -4.3111   -1.2429   -2.6122 C   0  0  0  0  0  0
   -4.1195   -2.1870   -1.6203 C   0  0  0  0  0  0
   -3.0727   -2.0530   -0.7285 C   0  0  0  0  0  0
   -2.8327   -3.2391    0.5162 Cl  0  0  0  0  0  0
   -2.9390    0.9757    0.8218 H   0  0  0  0  0  0
   -0.3443    4.2329    1.7257 H   0  0  0  0  0  0
    1.6088    2.8282    1.2300 H   0  0  0  0  0  0
    0.3058   -1.4774    2.3634 H   0  0  0  0  0  0
    1.0225   -2.8874    1.5379 H   0  0  0  0  0  0
    5.3078   -3.7526    0.5520 H   0  0  0  0  0  0
    5.4306   -2.1593    0.0333 H   0  0  0  0  0  0
    2.3701    2.8352   -0.0615 H   0  0  0  0  0  0
    4.0838    2.4035   -0.2739 H   0  0  0  0  0  0
    2.6630    3.6206   -3.4550 H   0  0  0  0  0  0
    1.9452    4.0205   -1.8761 H   0  0  0  0  0  0
    3.7117    4.0703   -2.0890 H   0  0  0  0  0  0
    4.0846    1.7082   -3.6449 H   0  0  0  0  0  0
    4.9735    2.1852   -2.1785 H   0  0  0  0  0  0
    4.2379    0.5679   -2.2868 H   0  0  0  0  0  0
   -1.7545    0.8433   -1.9073 H   0  0  0  0  0  0
   -3.6166    0.5786   -3.4913 H   0  0  0  0  0  0
   -5.1278   -1.3544   -3.3100 H   0  0  0  0  0  0
   -4.7865   -3.0330   -1.5452 H   0  0  0  0  0  0
  1  2  1  0  0  0
  1  6  2  0  0  0
  1 12  1  0  0  0
  2  3  2  0  0  0
  2  8  1  0  0  0
  3  4  1  0  0  0
  3 30  1  0  0  0
  4  5  2  0  0  0
  4  7  1  0  0  0
  5  6  1  0  0  0
  5 31  1  0  0  0
  6 32  1  0  0  0
  8  9  2  0  0  0
  8 23  1  0  0  0
  9 10  1  0  0  0
 10 11  1  0  0  0
 10 33  1  0  0  0
 10 34  1  0  0  0
 11 12  1  0  0  0
 11 15  2  0  0  0
 12 13  1  0  0  0
 13 14  2  0  0  0
 13 19  1  0  0  0
 14 15  1  0  0  0
 15 16  1  0  0  0
 16 17  2  0  0  0
 16 18  1  0  0  0
 18 35  1  0  0  0
 18 36  1  0  0  0
 19 20  1  0  0  0
 19 37  1  0  0  0
 19 38  1  0  0  0
 20 21  1  0  0  0
 20 22  1  0  0  0
 21 39  1  0  0  0
 21 40  1  0  0  0
 21 41  1  0  0  0
 22 42  1  0  0  0
 22 43  1  0  0  0
 22 44  1  0  0  0
 23 24  1  0  0  0
 23 28  2  0  0  0
 24 25  2  0  0  0
 24 45  1  0  0  0
 25 26  1  0  0  0
 25 46  1  0  0  0
 26 27  2  0  0  0
 26 47  1  0  0  0
 27 28  1  0  0  0
 27 48  1  0  0  0
 28 29  1  0  0  0
M  END
>  <Activity>
7.58503

>  <set>
2

>  <Min_dist>
0.140351

>  <Avg_dist>
0.521313

$$$$
RO14-1359
  Cerius2 12110214493D 1   1.00000                          
 
 31 33  0  0  0  0  0  0  0  0999 V2000
    1.6858   -0.9315   -0.3870 C   0  0  0  0  0  0
    0.6879   -0.1365    0.1686 C   0  0  0  0  0  0
    0.9108    1.2383    0.3250 C   0  0  0  0  0  0
    2.1054    1.8038   -0.0644 C   0  0  0  0  0  0
    3.0980    1.0105   -0.6152 C   0  0  0  0  0  0
    2.8911   -0.3424   -0.7748 C   0  0  0  0  0  0
    2.3657    3.5085    0.1347 Cl  0  0  0  0  0  0
   -0.6154   -0.6670    0.6119 C   0  0  0  0  0  0
   -0.7792   -1.8183    1.2415 C   0  0  0  0  0  0
    0.3869   -2.7175    1.5532 C   0  0  0  0  0  0
    1.0077   -3.1647    0.2569 C   0  0  0  0  0  0
    1.0057   -4.3448   -0.0232 O   0  0  0  0  0  0
    1.5582   -2.2983   -0.5907 N   0  0  0  0  0  0
   -1.8235    0.1462    0.3329 C   0  0  0  0  0  0
   -2.2614    1.0899    1.2604 C   0  0  0  0  0  0
   -3.3863    1.8439    0.9958 C   0  0  0  0  0  0
   -4.0807    1.6655   -0.1877 C   0  0  0  0  0  0
   -3.6529    0.7315   -1.1130 C   0  0  0  0  0  0
   -2.5238   -0.0263   -0.8622 C   0  0  0  0  0  0
   -2.1057   -0.9386   -1.7666 F   0  0  0  0  0  0
    0.1391    1.8601    0.7542 H   0  0  0  0  0  0
    4.0349    1.4527   -0.9202 H   0  0  0  0  0  0
    3.6702   -0.9544   -1.2049 H   0  0  0  0  0  0
   -1.7726   -2.1204    1.5386 H   0  0  0  0  0  0
    1.1233   -2.1710    2.1423 H   0  0  0  0  0  0
    0.0396   -3.5868    2.1117 H   0  0  0  0  0  0
    1.9019   -2.6552   -1.4246 H   0  0  0  0  0  0
   -1.7213    1.2306    2.1850 H   0  0  0  0  0  0
   -3.7260    2.5750    1.7145 H   0  0  0  0  0  0
   -4.9607    2.2582   -0.3894 H   0  0  0  0  0  0
   -4.1989    0.5967   -2.0350 H   0  0  0  0  0  0
  1  2  1  0  0  0
  1  6  2  0  0  0
  1 13  1  0  0  0
  2  3  2  0  0  0
  2  8  1  0  0  0
  3  4  1  0  0  0
  3 21  1  0  0  0
  4  5  2  0  0  0
  4  7  1  0  0  0
  5  6  1  0  0  0
  5 22  1  0  0  0
  6 23  1  0  0  0
  8  9  2  0  0  0
  8 14  1  0  0  0
  9 10  1  0  0  0
  9 24  1  0  0  0
 10 11  1  0  0  0
 10 25  1  0  0  0
 10 26  1  0  0  0
 11 12  2  0  0  0
 11 13  1  0  0  0
 13 27  1  0  0  0
 14 15  1  0  0  0
 14 19  2  0  0  0
 15 16  2  0  0  0
 15 28  1  0  0  0
 16 17  1  0  0  0
 16 29  1  0  0  0
 17 18  2  0  0  0
 17 30  1  0  0  0
 18 19  1  0  0  0
 18 31  1  0  0  0
 19 20  1  0  0  0
M  END
>  <Activity>
7.1549

>  <set>
2

>  <Min_dist>
0.205128

>  <Avg_dist>
0.513691

$$$$
RO15-9270
  Cerius2 12110214493D 1   1.00000                          
 
 38 41  0  0  0  0  0  0  0  0999 V2000
    1.1342    1.0909    0.1167 C   0  0  0  0  0  0
   -0.0547    0.4784    0.5106 C   0  0  0  0  0  0
   -1.2460    1.2161    0.4580 C   0  0  0  0  0  0
   -1.2468    2.5154    0.0033 C   0  0  0  0  0  0
   -0.0665    3.1089   -0.4085 C   0  0  0  0  0  0
    1.1164    2.4010   -0.3513 C   0  0  0  0  0  0
   -2.5135    3.2795   -0.0458 N   0  3  0  0  0  0
   -2.5161    4.4292   -0.4478 O   0  0  0  0  0  0
   -3.5534    2.7586    0.3159 O   0  5  0  0  0  0
   -0.1357   -0.9207    0.9531 C   0  0  0  0  0  0
    0.7064   -1.5633    1.7470 C   0  0  0  0  0  0
    1.9147   -0.8725    2.3332 C   0  0  0  0  0  0
    2.7718   -0.4018    1.1850 C   0  0  0  0  0  0
    2.3701    0.4446    0.2049 N   0  0  0  0  0  0
    3.4225    0.5565   -0.6496 C   0  0  0  0  0  0
    4.3948   -0.1622   -0.1522 N   0  0  0  0  0  0
    4.0097   -0.7243    0.9404 N   0  0  0  0  0  0
    3.4603    1.3561   -1.9264 C   0  0  0  0  0  0
   -1.2932   -1.7015    0.4536 C   0  0  0  0  0  0
   -2.4838   -1.7290    1.1780 C   0  0  0  0  0  0
   -3.5578   -2.4569    0.7083 C   0  0  0  0  0  0
   -3.4552   -3.1594   -0.4793 C   0  0  0  0  0  0
   -2.2771   -3.1365   -1.2031 C   0  0  0  0  0  0
   -1.1968   -2.4067   -0.7459 C   0  0  0  0  0  0
    0.2815   -2.3782   -1.6556 Cl  0  0  0  0  0  0
   -2.1718    0.7605    0.7769 H   0  0  0  0  0  0
   -0.0712    4.1253   -0.7735 H   0  0  0  0  0  0
    2.0358    2.8672   -0.6735 H   0  0  0  0  0  0
    0.5256   -2.6022    1.9804 H   0  0  0  0  0  0
    1.5981   -0.0190    2.9327 H   0  0  0  0  0  0
    2.4768   -1.5721    2.9519 H   0  0  0  0  0  0
    3.8066    2.3671   -1.7119 H   0  0  0  0  0  0
    4.1413    0.8810   -2.6326 H   0  0  0  0  0  0
    2.4605    1.3984   -2.3584 H   0  0  0  0  0  0
   -2.5653   -1.1818    2.1056 H   0  0  0  0  0  0
   -4.4805   -2.4786    1.2691 H   0  0  0  0  0  0
   -4.2985   -3.7281   -0.8423 H   0  0  0  0  0  0
   -2.2028   -3.6868   -2.1295 H   0  0  0  0  0  0
  1  2  1  0  0  0
  1  6  2  0  0  0
  1 14  1  0  0  0
  2  3  2  0  0  0
  2 10  1  0  0  0
  3  4  1  0  0  0
  3 26  1  0  0  0
  4  5  2  0  0  0
  4  7  1  0  0  0
  5  6  1  0  0  0
  5 27  1  0  0  0
  6 28  1  0  0  0
  7  8  2  0  0  0
  7  9  1  0  0  0
 10 11  2  0  0  0
 10 19  1  0  0  0
 11 12  1  0  0  0
 11 29  1  0  0  0
 12 13  1  0  0  0
 12 30  1  0  0  0
 12 31  1  0  0  0
 13 14  1  0  0  0
 13 17  2  0  0  0
 14 15  1  0  0  0
 15 16  2  0  0  0
 15 18  1  0  0  0
 16 17  1  0  0  0
 18 32  1  0  0  0
 18 33  1  0  0  0
 18 34  1  0  0  0
 19 20  1  0  0  0
 19 24  2  0  0  0
 20 21  2  0  0  0
 20 35  1  0  0  0
 21 22  1  0  0  0
 21 36  1  0  0  0
 22 23  2  0  0  0
 22 37  1  0  0  0
 23 24  1  0  0  0
 23 38  1  0  0  0
 24 25  1  0  0  0
M  CHG  2   7   1   9  -1
M  END
>  <Activity>
8.30103

>  <set>
2

>  <Min_dist>
0.183908

>  <Avg_dist>
0.608362

$$$$
RO14-2652
  Cerius2 12110214493D 1   1.00000                          
 
 38 41  0  0  0  0  0  0  0  0999 V2000
    1.1429    0.7916    0.3059 C   0  0  0  0  0  0
   -0.1919    0.4853    0.5669 C   0  0  0  0  0  0
   -1.1500    1.5055    0.4817 C   0  0  0  0  0  0
   -0.7833    2.7842    0.1234 C   0  0  0  0  0  0
    0.5412    3.0750   -0.1574 C   0  0  0  0  0  0
    1.4973    2.0847   -0.0658 C   0  0  0  0  0  0
   -1.9844    4.0337    0.0232 Cl  0  0  0  0  0  0
   -0.6612   -0.8671    0.8995 C   0  0  0  0  0  0
   -0.0818   -1.7446    1.7037 C   0  0  0  0  0  0
    1.2044   -1.4185    2.4249 C   0  0  0  0  0  0
    2.2508   -1.1249    1.3792 C   0  0  0  0  0  0
    2.1637   -0.1543    0.4366 N   0  0  0  0  0  0
    3.2819   -0.2722   -0.3287 C   0  0  0  0  0  0
    3.9940   -1.2412    0.1845 N   0  0  0  0  0  0
    3.3844   -1.7413    1.2024 N   0  0  0  0  0  0
    3.6329    0.5558   -1.5380 C   0  0  0  0  0  0
    3.2264   -0.1587   -2.7554 N   0  0  0  0  0  0
   -1.9287   -1.2978    0.2618 C   0  0  0  0  0  0
   -3.1474   -1.0563    0.8937 C   0  0  0  0  0  0
   -4.3239   -1.4592    0.2958 C   0  0  0  0  0  0
   -4.2970   -2.1022   -0.9291 C   0  0  0  0  0  0
   -3.0923   -2.3459   -1.5623 C   0  0  0  0  0  0
   -1.9068   -1.9416   -0.9765 C   0  0  0  0  0  0
   -0.7298   -2.1794   -1.5955 F   0  0  0  0  0  0
   -2.1852    1.2868    0.6986 H   0  0  0  0  0  0
    0.8253    4.0757   -0.4477 H   0  0  0  0  0  0
    2.5294    2.3149   -0.2852 H   0  0  0  0  0  0
   -0.5382   -2.7129    1.8472 H   0  0  0  0  0  0
    1.0609   -0.5445    3.0602 H   0  0  0  0  0  0
    1.5152   -2.2699    3.0303 H   0  0  0  0  0  0
    3.1123    1.5121   -1.4870 H   0  0  0  0  0  0
    4.7088    0.7286   -1.5602 H   0  0  0  0  0  0
    3.3958    0.4667   -3.5289 H   0  0  0  0  0  0
    3.8642   -0.9330   -2.8637 H   0  0  0  0  0  0
   -3.1708   -0.5549    1.8500 H   0  0  0  0  0  0
   -5.2683   -1.2725    0.7854 H   0  0  0  0  0  0
   -5.2210   -2.4154   -1.3924 H   0  0  0  0  0  0
   -3.0775   -2.8488   -2.5179 H   0  0  0  0  0  0
  1  2  1  0  0  0
  1  6  2  0  0  0
  1 12  1  0  0  0
  2  3  2  0  0  0
  2  8  1  0  0  0
  3  4  1  0  0  0
  3 25  1  0  0  0
  4  5  2  0  0  0
  4  7  1  0  0  0
  5  6  1  0  0  0
  5 26  1  0  0  0
  6 27  1  0  0  0
  8  9  2  0  0  0
  8 18  1  0  0  0
  9 10  1  0  0  0
  9 28  1  0  0  0
 10 11  1  0  0  0
 10 29  1  0  0  0
 10 30  1  0  0  0
 11 12  1  0  0  0
 11 15  2  0  0  0
 12 13  1  0  0  0
 13 14  2  0  0  0
 13 16  1  0  0  0
 14 15  1  0  0  0
 16 17  1  0  0  0
 16 31  1  0  0  0
 16 32  1  0  0  0
 17 33  1  0  0  0
 17 34  1  0  0  0
 18 19  1  0  0  0
 18 23  2  0  0  0
 19 20  2  0  0  0
 19 35  1  0  0  0
 20 21  1  0  0  0
 20 36  1  0  0  0
 21 22  2  0  0  0
 21 37  1  0  0  0
 22 23  1  0  0  0
 22 38  1  0  0  0
 23 24  1  0  0  0
M  END
>  <Activity>
8.25181

>  <set>
2

>  <Min_dist>
0.109756

>  <Avg_dist>
0.587909

$$$$
RO14-7187
  Cerius2 12110214493D 1   1.00000                          
 
 36 39  0  0  0  0  0  0  0  0999 V2000
    1.2697    0.8391    0.2269 C   0  0  0  0  0  0
   -0.0820    0.7616    0.5592 C   0  0  0  0  0  0
   -0.7712    1.9423    0.8713 C   0  0  0  0  0  0
   -0.1311    3.1601    0.8283 C   0  0  0  0  0  0
    1.2049    3.2316    0.4749 C   0  0  0  0  0  0
    1.9005    2.0781    0.1761 C   0  0  0  0  0  0
   -0.8411   -0.4968    0.5711 C   0  0  0  0  0  0
   -0.4426   -1.6722    1.0311 C   0  0  0  0  0  0
    0.9242   -1.8512    1.6481 C   0  0  0  0  0  0
    1.9476   -1.4962    0.5987 C   0  0  0  0  0  0
    2.0403   -0.2982   -0.0295 N   0  0  0  0  0  0
    3.0512   -0.4238   -0.9309 C   0  0  0  0  0  0
    3.5394   -1.6284   -0.7898 N   0  0  0  0  0  0
    2.8884   -2.2611    0.1234 N   0  0  0  0  0  0
    3.5191    0.6254   -1.9062 C   0  0  0  0  0  0
   -2.2101   -0.4434    0.0033 C   0  0  0  0  0  0
   -3.3097   -0.7657    0.7969 C   0  0  0  0  0  0
   -4.5814   -0.7139    0.2633 C   0  0  0  0  0  0
   -4.7658   -0.3434   -1.0566 C   0  0  0  0  0  0
   -3.6783   -0.0225   -1.8490 C   0  0  0  0  0  0
   -2.4025   -0.0653   -1.3244 C   0  0  0  0  0  0
   -1.8142    1.8957    1.1476 H   0  0  0  0  0  0
   -0.6731    4.0623    1.0707 H   0  0  0  0  0  0
    1.7024    4.1892    0.4326 H   0  0  0  0  0  0
    2.9431    2.1375   -0.0994 H   0  0  0  0  0  0
   -1.1082   -2.5201    0.9642 H   0  0  0  0  0  0
    1.0313   -1.1900    2.5080 H   0  0  0  0  0  0
    1.0570   -2.8876    1.9586 H   0  0  0  0  0  0
    4.2985    1.2303   -1.4428 H   0  0  0  0  0  0
    3.9171    0.1409   -2.7978 H   0  0  0  0  0  0
    2.6802    1.2638   -2.1833 H   0  0  0  0  0  0
   -3.1668   -1.0557    1.8274 H   0  0  0  0  0  0
   -5.4341   -0.9634    0.8774 H   0  0  0  0  0  0
   -5.7628   -0.3049   -1.4702 H   0  0  0  0  0  0
   -3.8282    0.2660   -2.8788 H   0  0  0  0  0  0
   -1.5542    0.1858   -1.9439 H   0  0  0  0  0  0
  1  2  1  0  0  0
  1  6  2  0  0  0
  1 11  1  0  0  0
  2  3  2  0  0  0
  2  7  1  0  0  0
  3  4  1  0  0  0
  3 22  1  0  0  0
  4  5  2  0  0  0
  4 23  1  0  0  0
  5  6  1  0  0  0
  5 24  1  0  0  0
  6 25  1  0  0  0
  7  8  2  0  0  0
  7 16  1  0  0  0
  8  9  1  0  0  0
  8 26  1  0  0  0
  9 10  1  0  0  0
  9 27  1  0  0  0
  9 28  1  0  0  0
 10 11  1  0  0  0
 10 14  2  0  0  0
 11 12  1  0  0  0
 12 13  2  0  0  0
 12 15  1  0  0  0
 13 14  1  0  0  0
 15 29  1  0  0  0
 15 30  1  0  0  0
 15 31  1  0  0  0
 16 17  1  0  0  0
 16 21  2  0  0  0
 17 18  2  0  0  0
 17 32  1  0  0  0
 18 19  1  0  0  0
 18 33  1  0  0  0
 19 20  2  0  0  0
 19 34  1  0  0  0
 20 21  1  0  0  0
 20 35  1  0  0  0
 21 36  1  0  0  0
M  END
>  <Activity>
6.38722

>  <set>
2

>  <Min_dist>
0.102941

>  <Avg_dist>
0.645992

$$$$
RO14-0609
  Cerius2 12110214493D 1   1.00000                          
 
 38 41  0  0  0  0  0  0  0  0999 V2000
    1.3599    0.8963    0.0931 C   0  0  0  0  0  0
    0.0850    0.4329   -0.2144 C   0  0  0  0  0  0
   -0.9686    1.3226   -0.2616 C   0  0  0  0  0  0
   -0.7584    2.6565    0.0454 C   0  0  0  0  0  0
    0.5022    3.1039    0.3993 C   0  0  0  0  0  0
    1.5675    2.2206    0.4243 C   0  0  0  0  0  0
   -2.0849    3.7747   -0.0148 Cl  0  0  0  0  0  0
   -0.1260   -1.0355   -0.4179 C   0  0  0  0  0  0
    0.2313   -1.5091   -1.8334 C   0  0  0  0  0  0
    1.5513   -0.8425   -2.2553 C   0  0  0  0  0  0
    2.5214   -0.8388   -1.1102 C   0  0  0  0  0  0
    2.4163   -0.0193   -0.0273 N   0  0  0  0  0  0
    3.4591   -0.2979    0.7771 C   0  0  0  0  0  0
    4.1447   -1.2468    0.1871 N   0  0  0  0  0  0
    3.5847   -1.5643   -0.9304 N   0  0  0  0  0  0
    3.7768    0.3544    2.0980 C   0  0  0  0  0  0
   -1.5737   -1.3578   -0.1509 C   0  0  0  0  0  0
   -2.5541   -0.8981   -1.0100 C   0  0  0  0  0  0
   -3.8820   -1.1939   -0.7657 C   0  0  0  0  0  0
   -4.2313   -1.9495    0.3383 C   0  0  0  0  0  0
   -3.2530   -2.4097    1.1988 C   0  0  0  0  0  0
   -1.9218   -2.1191    0.9517 C   0  0  0  0  0  0
   -0.9644   -2.5689    1.7920 F   0  0  0  0  0  0
   -1.9548    0.9796   -0.5376 H   0  0  0  0  0  0
    0.6547    4.1416    0.6566 H   0  0  0  0  0  0
    2.5534    2.5645    0.7003 H   0  0  0  0  0  0
    0.4889   -1.5799    0.2988 H   0  0  0  0  0  0
    0.3508   -2.5925   -1.8375 H   0  0  0  0  0  0
   -0.5606   -1.2232   -2.5256 H   0  0  0  0  0  0
    1.9823   -1.3928   -3.0917 H   0  0  0  0  0  0
    1.3545    0.1839   -2.5649 H   0  0  0  0  0  0
    3.2894   -0.1970    2.9020 H   0  0  0  0  0  0
    4.8553    0.3492    2.2557 H   0  0  0  0  0  0
    3.4154    1.3827    2.0916 H   0  0  0  0  0  0
   -2.2825   -0.3073   -1.8723 H   0  0  0  0  0  0
   -4.6474   -0.8343   -1.4375 H   0  0  0  0  0  0
   -5.2692   -2.1797    0.5284 H   0  0  0  0  0  0
   -3.5261   -2.9996    2.0613 H   0  0  0  0  0  0
  1  2  1  0  0  0
  1  6  2  0  0  0
  1 12  1  0  0  0
  2  3  2  0  0  0
  2  8  1  0  0  0
  3  4  1  0  0  0
  3 24  1  0  0  0
  4  5  2  0  0  0
  4  7  1  0  0  0
  5  6  1  0  0  0
  5 25  1  0  0  0
  6 26  1  0  0  0
  8  9  1  0  0  0
  8 17  1  0  0  0
  8 27  1  0  0  0
  9 10  1  0  0  0
  9 28  1  0  0  0
  9 29  1  0  0  0
 10 11  1  0  0  0
 10 30  1  0  0  0
 10 31  1  0  0  0
 11 12  1  0  0  0
 11 15  2  0  0  0
 12 13  1  0  0  0
 13 14  2  0  0  0
 13 16  1  0  0  0
 14 15  1  0  0  0
 16 32  1  0  0  0
 16 33  1  0  0  0
 16 34  1  0  0  0
 17 18  1  0  0  0
 17 22  2  0  0  0
 18 19  2  0  0  0
 18 35  1  0  0  0
 19 20  1  0  0  0
 19 36  1  0  0  0
 20 21  2  0  0  0
 20 37  1  0  0  0
 21 22  1  0  0  0
 21 38  1  0  0  0
 22 23  1  0  0  0
M  END
>  <Activity>
7.61261

>  <set>
2

>  <Min_dist>
0.192308

>  <Avg_dist>
0.619978

$$$$
RO08-9212
  Cerius2 12110214493D 1   1.00000                          
 
 27 29  0  0  0  0  0  0  0  0999 V2000
    1.7353   -1.0786   -0.4153 C   0  0  0  0  0  0
    0.7441   -0.1730   -0.0572 C   0  0  0  0  0  0
    1.2265    1.1432    0.3346 C   0  0  0  0  0  0
    2.5468    1.3870    0.3354 C   0  0  0  0  0  0
    3.2432   -0.1627   -0.2036 S   0  0  0  0  0  0
    3.3739    2.8535    0.7582 Cl  0  0  0  0  0  0
   -0.6967   -0.5243   -0.0564 C   0  0  0  0  0  0
   -1.1279   -1.6995    0.2676 N   0  0  0  0  0  0
   -0.2484   -2.7597    0.7451 C   0  0  0  0  0  0
    0.6894   -3.2075   -0.3379 C   0  0  0  0  0  0
    0.6129   -4.3424   -0.7590 O   0  0  0  0  0  0
    1.6108   -2.3767   -0.8490 N   0  0  0  0  0  0
   -1.6817    0.5132   -0.4418 C   0  0  0  0  0  0
   -1.4060    1.3832   -1.4964 C   0  0  0  0  0  0
   -2.3269    2.3472   -1.8508 C   0  0  0  0  0  0
   -3.5229    2.4528   -1.1625 C   0  0  0  0  0  0
   -3.8030    1.5941   -0.1156 C   0  0  0  0  0  0
   -2.8916    0.6202    0.2451 C   0  0  0  0  0  0
   -3.2443   -0.4574    1.5596 Cl  0  0  0  0  0  0
    0.5291    1.9163    0.6216 H   0  0  0  0  0  0
    0.3314   -2.3903    1.5909 H   0  0  0  0  0  0
   -0.8524   -3.6074    1.0689 H   0  0  0  0  0  0
    2.2052   -2.7012   -1.5435 H   0  0  0  0  0  0
   -0.4730    1.3025   -2.0344 H   0  0  0  0  0  0
   -2.1139    3.0215   -2.6671 H   0  0  0  0  0  0
   -4.2403    3.2093   -1.4441 H   0  0  0  0  0  0
   -4.7379    1.6816    0.4179 H   0  0  0  0  0  0
  1  2  2  0  0  0
  1  5  1  0  0  0
  1 12  1  0  0  0
  2  3  1  0  0  0
  2  7  1  0  0  0
  3  4  2  0  0  0
  3 20  1  0  0  0
  4  5  1  0  0  0
  4  6  1  0  0  0
  7  8  2  0  0  0
  7 13  1  0  0  0
  8  9  1  0  0  0
  9 10  1  0  0  0
  9 21  1  0  0  0
  9 22  1  0  0  0
 10 11  2  0  0  0
 10 12  1  0  0  0
 12 23  1  0  0  0
 13 14  1  0  0  0
 13 18  2  0  0  0
 14 15  2  0  0  0
 14 24  1  0  0  0
 15 16  1  0  0  0
 15 25  1  0  0  0
 16 17  2  0  0  0
 16 26  1  0  0  0
 17 18  1  0  0  0
 17 27  1  0  0  0
 18 19  1  0  0  0
M  END
>  <Activity>
8.40893

>  <set>
2

>  <Min_dist>
0.084337

>  <Avg_dist>
0.475603

$$$$
RO15-2201
  Cerius2 12110214493D 1   1.00000                          
 
 40 43  0  0  0  0  0  0  0  0999 V2000
   -0.2956    1.8413   -0.0037 C   0  0  0  0  0  0
   -1.3582    1.0473    0.4221 C   0  0  0  0  0  0
   -2.5618    1.6673    0.7889 C   0  0  0  0  0  0
   -2.6991    3.0345    0.7085 C   0  0  0  0  0  0
   -1.6467    3.8145    0.2624 C   0  0  0  0  0  0
   -0.4522    3.2213   -0.0911 C   0  0  0  0  0  0
   -1.3022   -0.4202    0.4818 C   0  0  0  0  0  0
   -0.2966   -1.1679    0.9086 C   0  0  0  0  0  0
    0.9781   -0.5438    1.4251 C   0  0  0  0  0  0
    1.5700    0.2746    0.3062 C   0  0  0  0  0  0
    0.9584    1.3076   -0.3231 N   0  0  0  0  0  0
    1.7995    1.7469   -1.2998 C   0  0  0  0  0  0
    2.8979    1.0480   -1.2566 N   0  0  0  0  0  0
    2.7967    0.1228   -0.2646 C   0  0  0  0  0  0
    3.8232   -0.8586    0.1209 C   0  0  0  0  0  0
    3.6096   -1.6359    1.0307 O   0  0  0  0  0  0
    5.0003   -0.8956   -0.5348 O   0  0  0  0  0  0
    6.0131   -1.8640   -0.1544 C   0  0  0  0  0  0
   -2.5078   -1.1447    0.0117 C   0  0  0  0  0  0
   -3.2001   -1.9878    0.8793 C   0  0  0  0  0  0
   -4.3213   -2.6594    0.4362 C   0  0  0  0  0  0
   -4.7582   -2.4975   -0.8663 C   0  0  0  0  0  0
   -4.0751   -1.6621   -1.7317 C   0  0  0  0  0  0
   -2.9562   -0.9806   -1.2979 C   0  0  0  0  0  0
   -3.3886    1.0662    1.1373 H   0  0  0  0  0  0
   -3.6309    3.4998    0.9941 H   0  0  0  0  0  0
   -1.7603    4.8861    0.1910 H   0  0  0  0  0  0
    0.3673    3.8326   -0.4391 H   0  0  0  0  0  0
   -0.3895   -2.2437    0.8873 H   0  0  0  0  0  0
    0.7564    0.0994    2.2767 H   0  0  0  0  0  0
    1.6781   -1.3246    1.7226 H   0  0  0  0  0  0
    1.5899    2.5447   -1.9969 H   0  0  0  0  0  0
    6.8889   -1.7432   -0.7920 H   0  0  0  0  0  0
    6.2962   -1.7041    0.8859 H   0  0  0  0  0  0
    5.6145   -2.8717   -0.2718 H   0  0  0  0  0  0
   -2.8595   -2.1155    1.8962 H   0  0  0  0  0  0
   -4.8585   -3.3129    1.1076 H   0  0  0  0  0  0
   -5.6357   -3.0256   -1.2089 H   0  0  0  0  0  0
   -4.4207   -1.5395   -2.7476 H   0  0  0  0  0  0
   -2.4239   -0.3283   -1.9743 H   0  0  0  0  0  0
  1  2  1  0  0  0
  1  6  2  0  0  0
  1 11  1  0  0  0
  2  3  2  0  0  0
  2  7  1  0  0  0
  3  4  1  0  0  0
  3 25  1  0  0  0
  4  5  2  0  0  0
  4 26  1  0  0  0
  5  6  1  0  0  0
  5 27  1  0  0  0
  6 28  1  0  0  0
  7  8  2  0  0  0
  7 19  1  0  0  0
  8  9  1  0  0  0
  8 29  1  0  0  0
  9 10  1  0  0  0
  9 30  1  0  0  0
  9 31  1  0  0  0
 10 11  1  0  0  0
 10 14  2  0  0  0
 11 12  1  0  0  0
 12 13  2  0  0  0
 12 32  1  0  0  0
 13 14  1  0  0  0
 14 15  1  0  0  0
 15 16  2  0  0  0
 15 17  1  0  0  0
 17 18  1  0  0  0
 18 33  1  0  0  0
 18 34  1  0  0  0
 18 35  1  0  0  0
 19 20  1  0  0  0
 19 24  2  0  0  0
 20 21  2  0  0  0
 20 36  1  0  0  0
 21 22  1  0  0  0
 21 37  1  0  0  0
 22 23  2  0  0  0
 22 38  1  0  0  0
 23 24  1  0  0  0
 23 39  1  0  0  0
 24 40  1  0  0  0
M  END
>  <Activity>
8.82391

>  <set>
2

>  <Min_dist>
0.084211

>  <Avg_dist>
0.54654

$$$$
RO14-3930
  Cerius2 12110214493D 1   1.00000                          
 
 38 41  0  0  0  0  0  0  0  0999 V2000
   -0.2021    1.4828    0.2755 C   0  0  0  0  0  0
    0.7351    0.6064   -0.2671 C   0  0  0  0  0  0
    2.0449    1.0616   -0.4779 C   0  0  0  0  0  0
    2.4053    2.3457   -0.1335 C   0  0  0  0  0  0
    1.4735    3.2032    0.4271 C   0  0  0  0  0  0
    0.1781    2.7739    0.6293 C   0  0  0  0  0  0
    4.0317    2.8903   -0.4022 Cl  0  0  0  0  0  0
    0.4371   -0.7921   -0.6077 C   0  0  0  0  0  0
   -0.6531   -1.2601   -1.1950 C   0  0  0  0  0  0
   -1.7728   -0.3377   -1.6152 C   0  0  0  0  0  0
   -2.2833    0.3521   -0.3760 C   0  0  0  0  0  0
   -1.5446    1.1282    0.4548 N   0  0  0  0  0  0
   -2.3555    1.5208    1.4756 C   0  0  0  0  0  0
   -3.5512    1.0455    1.2710 N   0  0  0  0  0  0
   -3.5485    0.3158    0.1235 C   0  0  0  0  0  0
   -4.7018   -0.3831   -0.4692 C   0  0  0  0  0  0
   -4.5687   -1.0053   -1.5058 O   0  0  0  0  0  0
   -5.9045   -0.3332    0.1371 N   0  0  0  0  0  0
    1.4744   -1.7908   -0.2540 C   0  0  0  0  0  0
    2.4792   -2.1092   -1.1661 C   0  0  0  0  0  0
    3.4423   -3.0390   -0.8317 C   0  0  0  0  0  0
    3.4129   -3.6564    0.4063 C   0  0  0  0  0  0
    2.4197   -3.3461    1.3167 C   0  0  0  0  0  0
    1.4522   -2.4119    0.9958 C   0  0  0  0  0  0
    0.4817   -2.1089    1.8855 F   0  0  0  0  0  0
    2.7779    0.3990   -0.9141 H   0  0  0  0  0  0
    1.7604    4.2065    0.7055 H   0  0  0  0  0  0
   -0.5464    3.4448    1.0668 H   0  0  0  0  0  0
   -0.7433   -2.3208   -1.3773 H   0  0  0  0  0  0
   -1.3971    0.4020   -2.3222 H   0  0  0  0  0  0
   -2.5752   -0.9152   -2.0743 H   0  0  0  0  0  0
   -2.0563    2.1273    2.3177 H   0  0  0  0  0  0
   -6.6639   -0.7934   -0.2532 H   0  0  0  0  0  0
   -6.0106    0.1630    0.9638 H   0  0  0  0  0  0
    2.5036   -1.6292   -2.1333 H   0  0  0  0  0  0
    4.2209   -3.2859   -1.5382 H   0  0  0  0  0  0
    4.1689   -4.3839    0.6624 H   0  0  0  0  0  0
    2.4017   -3.8315    2.2813 H   0  0  0  0  0  0
  1  2  1  0  0  0
  1  6  2  0  0  0
  1 12  1  0  0  0
  2  3  2  0  0  0
  2  8  1  0  0  0
  3  4  1  0  0  0
  3 26  1  0  0  0
  4  5  2  0  0  0
  4  7  1  0  0  0
  5  6  1  0  0  0
  5 27  1  0  0  0
  6 28  1  0  0  0
  8  9  2  0  0  0
  8 19  1  0  0  0
  9 10  1  0  0  0
  9 29  1  0  0  0
 10 11  1  0  0  0
 10 30  1  0  0  0
 10 31  1  0  0  0
 11 12  1  0  0  0
 11 15  2  0  0  0
 12 13  1  0  0  0
 13 14  2  0  0  0
 13 32  1  0  0  0
 14 15  1  0  0  0
 15 16  1  0  0  0
 16 17  2  0  0  0
 16 18  1  0  0  0
 18 33  1  0  0  0
 18 34  1  0  0  0
 19 20  1  0  0  0
 19 24  2  0  0  0
 20 21  2  0  0  0
 20 35  1  0  0  0
 21 22  1  0  0  0
 21 36  1  0  0  0
 22 23  2  0  0  0
 22 37  1  0  0  0
 23 24  1  0  0  0
 23 38  1  0  0  0
 24 25  1  0  0  0
M  END
>  <Activity>
7.82391

>  <set>
2

>  <Min_dist>
0.133333

>  <Avg_dist>
0.523923

$$$$
RO14-5568
  Cerius2 12110214493D 1   1.00000                          
 
 34 37  0  0  0  0  0  0  0  0999 V2000
    1.4214    0.8876   -0.1522 C   0  0  0  0  0  0
    0.1679    0.5132    0.3280 C   0  0  0  0  0  0
   -0.8480    1.4783    0.3918 C   0  0  0  0  0  0
   -0.6182    2.7682   -0.0336 C   0  0  0  0  0  0
    0.6237    3.1260   -0.5309 C   0  0  0  0  0  0
    1.6364    2.1909   -0.5894 C   0  0  0  0  0  0
   -1.8888    3.9479    0.0535 Cl  0  0  0  0  0  0
   -0.1653   -0.8552    0.7476 C   0  0  0  0  0  0
    0.5831   -1.6848    1.4573 C   0  0  0  0  0  0
    1.9495   -1.2768    1.9553 C   0  0  0  0  0  0
    2.7930   -0.9511    0.7491 C   0  0  0  0  0  0
    2.5051    0.0024   -0.1845 N   0  0  0  0  0  0
    3.4845   -0.0501   -1.1230 C   0  0  0  0  0  0
    4.3501   -0.9614   -0.7649 N   0  0  0  0  0  0
    3.9483   -1.5305    0.3841 C   0  0  0  0  0  0
   -1.4930   -1.3651    0.3280 C   0  0  0  0  0  0
   -2.6057   -1.1759    1.1458 C   0  0  0  0  0  0
   -3.8388   -1.6525    0.7505 C   0  0  0  0  0  0
   -3.9735   -2.3176   -0.4553 C   0  0  0  0  0  0
   -2.8746   -2.5098   -1.2721 C   0  0  0  0  0  0
   -1.6347   -2.0316   -0.8902 C   0  0  0  0  0  0
   -0.5612   -2.2191   -1.6886 F   0  0  0  0  0  0
   -1.8196    1.2074    0.7777 H   0  0  0  0  0  0
    0.7991    4.1354   -0.8726 H   0  0  0  0  0  0
    2.6040    2.4729   -0.9775 H   0  0  0  0  0  0
    0.2095   -2.6722    1.6850 H   0  0  0  0  0  0
    1.8633   -0.3983    2.5948 H   0  0  0  0  0  0
    2.4010   -2.0980    2.5119 H   0  0  0  0  0  0
    3.5391    0.5578   -2.0140 H   0  0  0  0  0  0
    4.4636   -2.3142    0.9195 H   0  0  0  0  0  0
   -2.5028   -0.6573    2.0876 H   0  0  0  0  0  0
   -4.7011   -1.5063    1.3842 H   0  0  0  0  0  0
   -4.9411   -2.6885   -0.7596 H   0  0  0  0  0  0
   -2.9858   -3.0303   -2.2118 H   0  0  0  0  0  0
  1  2  1  0  0  0
  1  6  2  0  0  0
  1 12  1  0  0  0
  2  3  2  0  0  0
  2  8  1  0  0  0
  3  4  1  0  0  0
  3 23  1  0  0  0
  4  5  2  0  0  0
  4  7  1  0  0  0
  5  6  1  0  0  0
  5 24  1  0  0  0
  6 25  1  0  0  0
  8  9  2  0  0  0
  8 16  1  0  0  0
  9 10  1  0  0  0
  9 26  1  0  0  0
 10 11  1  0  0  0
 10 27  1  0  0  0
 10 28  1  0  0  0
 11 12  1  0  0  0
 11 15  2  0  0  0
 12 13  1  0  0  0
 13 14  2  0  0  0
 13 29  1  0  0  0
 14 15  1  0  0  0
 15 30  1  0  0  0
 16 17  1  0  0  0
 16 21  2  0  0  0
 17 18  2  0  0  0
 17 31  1  0  0  0
 18 19  1  0  0  0
 18 32  1  0  0  0
 19 20  2  0  0  0
 19 33  1  0  0  0
 20 21  1  0  0  0
 20 34  1  0  0  0
 21 22  1  0  0  0
M  END
>  <Activity>
6.63827

>  <set>
2

>  <Min_dist>
0.209877

>  <Avg_dist>
0.52164

$$$$
RO22-1274
  Cerius2 12110214493D 1   1.00000                          
 
 30 32  0  0  0  0  0  0  0  0999 V2000
    1.6662    1.4439    0.5623 C   0  0  0  0  0  0
    0.7246    0.5429    0.0512 C   0  0  0  0  0  0
    1.1434   -0.7360   -0.3389 C   0  0  0  0  0  0
    2.4660   -1.1055   -0.2228 C   0  0  0  0  0  0
    3.3977   -0.2124    0.2829 C   0  0  0  0  0  0
    3.0064    1.0494    0.6710 C   0  0  0  0  0  0
    2.9666   -2.6946   -0.7107 Cl  0  0  0  0  0  0
   -0.7008    0.8737   -0.1001 C   0  0  0  0  0  0
   -1.1557    2.0059   -0.5075 N   0  0  0  0  0  0
   -0.2775    3.1201   -0.8550 C   0  0  0  0  0  0
    0.4556    3.5728    0.3759 C   0  0  0  0  0  0
    1.3131    2.8009    1.0027 C   0  0  0  0  0  0
   -1.6868   -0.1764    0.2421 C   0  0  0  0  0  0
   -1.4827   -0.9936    1.3544 C   0  0  0  0  0  0
   -2.4049   -1.9698    1.6684 C   0  0  0  0  0  0
   -3.5319   -2.1415    0.8832 C   0  0  0  0  0  0
   -3.7420   -1.3368   -0.2209 C   0  0  0  0  0  0
   -2.8286   -0.3498   -0.5440 C   0  0  0  0  0  0
   -3.0343    0.4369   -1.6229 F   0  0  0  0  0  0
    0.4238   -1.4380   -0.7334 H   0  0  0  0  0  0
    4.4330   -0.5066    0.3720 H   0  0  0  0  0  0
    3.7380    1.7400    1.0638 H   0  0  0  0  0  0
    0.4407    2.7966   -1.6084 H   0  0  0  0  0  0
   -0.8729    3.9442   -1.2481 H   0  0  0  0  0  0
    0.2700    4.5653    0.7592 H   0  0  0  0  0  0
    1.7895    3.1889    1.8910 H   0  0  0  0  0  0
   -0.6039   -0.8621    1.9682 H   0  0  0  0  0  0
   -2.2471   -2.6024    2.5294 H   0  0  0  0  0  0
   -4.2501   -2.9079    1.1342 H   0  0  0  0  0  0
   -4.6230   -1.4763   -0.8299 H   0  0  0  0  0  0
  1  2  1  0  0  0
  1  6  2  0  0  0
  1 12  1  0  0  0
  2  3  2  0  0  0
  2  8  1  0  0  0
  3  4  1  0  0  0
  3 20  1  0  0  0
  4  5  2  0  0  0
  4  7  1  0  0  0
  5  6  1  0  0  0
  5 21  1  0  0  0
  6 22  1  0  0  0
  8  9  2  0  0  0
  8 13  1  0  0  0
  9 10  1  0  0  0
 10 11  1  0  0  0
 10 23  1  0  0  0
 10 24  1  0  0  0
 11 12  2  0  0  0
 11 25  1  0  0  0
 12 26  1  0  0  0
 13 14  1  0  0  0
 13 18  2  0  0  0
 14 15  2  0  0  0
 14 27  1  0  0  0
 15 16  1  0  0  0
 15 28  1  0  0  0
 16 17  2  0  0  0
 16 29  1  0  0  0
 17 18  1  0  0  0
 17 30  1  0  0  0
 18 19  1  0  0  0
M  END
>  <Activity>
7.12494

>  <set>
2

>  <Min_dist>
0.289855

>  <Avg_dist>
0.568293

$$$$
RO22-2038
  Cerius2 12110214493D 1   1.00000                          
 
 36 39  0  0  0  0  0  0  0  0999 V2000
    1.0644    1.0225    0.1531 C   0  0  0  0  0  0
   -0.2485    0.5769    0.3150 C   0  0  0  0  0  0
   -1.2874    1.5165    0.3695 C   0  0  0  0  0  0
   -1.0204    2.8645    0.2617 C   0  0  0  0  0  0
    0.2833    3.3044    0.0985 C   0  0  0  0  0  0
    1.3169    2.3953    0.0449 C   0  0  0  0  0  0
   -2.3202    4.0133    0.3299 Cl  0  0  0  0  0  0
   -0.6126   -0.8439    0.4310 C   0  0  0  0  0  0
    0.0338   -1.7272    1.1021 N   0  0  0  0  0  0
    1.2506   -1.4137    1.8435 C   0  0  0  0  0  0
    2.3347   -1.0199    0.8814 C   0  0  0  0  0  0
    2.2295    0.1127    0.0938 C   0  0  0  0  0  0
    3.2209    0.4002   -0.7566 N   0  0  0  0  0  0
    4.2874   -0.3774   -0.8348 C   0  0  0  0  0  0
    4.4169   -1.4615   -0.0832 N   0  0  0  0  0  0
    3.4718   -1.8066    0.7771 C   0  0  0  0  0  0
    5.2953   -0.0508   -1.7255 N   0  0  0  0  0  0
   -1.8271   -1.2929   -0.2865 C   0  0  0  0  0  0
   -2.1062   -0.8070   -1.5643 C   0  0  0  0  0  0
   -3.2393   -1.2289   -2.2277 C   0  0  0  0  0  0
   -4.1005   -2.1326   -1.6295 C   0  0  0  0  0  0
   -3.8323   -2.6190   -0.3637 C   0  0  0  0  0  0
   -2.6962   -2.2096    0.3105 C   0  0  0  0  0  0
   -2.4340   -2.6854    1.5474 F   0  0  0  0  0  0
   -2.3061    1.1812    0.4966 H   0  0  0  0  0  0
    0.4894    4.3611    0.0134 H   0  0  0  0  0  0
    2.3309    2.7446   -0.0821 H   0  0  0  0  0  0
    1.0561   -0.5890    2.5292 H   0  0  0  0  0  0
    1.5674   -2.2899    2.4092 H   0  0  0  0  0  0
    3.5829   -2.6918    1.3857 H   0  0  0  0  0  0
    6.0833   -0.6123   -1.7933 H   0  0  0  0  0  0
    5.2136    0.7396   -2.2818 H   0  0  0  0  0  0
   -1.4363   -0.1014   -2.0329 H   0  0  0  0  0  0
   -3.4554   -0.8529   -3.2168 H   0  0  0  0  0  0
   -4.9864   -2.4589   -2.1541 H   0  0  0  0  0  0
   -4.5087   -3.3233    0.0977 H   0  0  0  0  0  0
  1  2  1  0  0  0
  1  6  2  0  0  0
  1 12  1  0  0  0
  2  3  2  0  0  0
  2  8  1  0  0  0
  3  4  1  0  0  0
  3 25  1  0  0  0
  4  5  2  0  0  0
  4  7  1  0  0  0
  5  6  1  0  0  0
  5 26  1  0  0  0
  6 27  1  0  0  0
  8  9  2  0  0  0
  8 18  1  0  0  0
  9 10  1  0  0  0
 10 11  1  0  0  0
 10 28  1  0  0  0
 10 29  1  0  0  0
 11 12  2  0  0  0
 11 16  1  0  0  0
 12 13  1  0  0  0
 13 14  2  0  0  0
 14 15  1  0  0  0
 14 17  1  0  0  0
 15 16  2  0  0  0
 16 30  1  0  0  0
 17 31  1  0  0  0
 17 32  1  0  0  0
 18 19  1  0  0  0
 18 23  2  0  0  0
 19 20  2  0  0  0
 19 33  1  0  0  0
 20 21  1  0  0  0
 20 34  1  0  0  0
 21 22  2  0  0  0
 21 35  1  0  0  0
 22 23  1  0  0  0
 22 36  1  0  0  0
 23 24  1  0  0  0
M  END
>  <Activity>
8.55284

>  <set>
2

>  <Min_dist>
0.057971

>  <Avg_dist>
0.530222

$$$$
RO22-2466
  Cerius2 12110214493D 1   1.00000                          
 
 32 35  0  0  0  0  0  0  0  0999 V2000
    1.5803    0.8217   -0.1705 C   0  0  0  0  0  0
    0.2639    0.5064    0.2004 C   0  0  0  0  0  0
   -0.6395    1.5550    0.4226 C   0  0  0  0  0  0
   -0.2510    2.8648    0.2456 C   0  0  0  0  0  0
    1.0410    3.1655   -0.1553 C   0  0  0  0  0  0
    1.9519    2.1506   -0.3621 C   0  0  0  0  0  0
   -1.3873    4.1468    0.5262 Cl  0  0  0  0  0  0
   -0.2209   -0.8686    0.3374 C   0  0  0  0  0  0
    0.3543   -1.8818    0.8805 N   0  0  0  0  0  0
    1.6782   -1.7986    1.5076 C   0  0  0  0  0  0
    2.6649   -1.4095    0.4403 C   0  0  0  0  0  0
    2.5979   -0.2402   -0.3334 C   0  0  0  0  0  0
    3.6112   -0.2988   -1.1680 N   0  0  0  0  0  0
    4.2684   -1.3823   -0.9271 N   0  0  0  0  0  0
    5.0678   -1.6565   -1.4033 H   0  0  0  0  0  0
    3.7238   -2.0532    0.0306 N   0  0  0  0  0  0
   -1.5637   -1.1285   -0.2293 C   0  0  0  0  0  0
   -1.9363   -0.5494   -1.4428 C   0  0  0  0  0  0
   -3.1885   -0.7951   -1.9657 C   0  0  0  0  0  0
   -4.0769   -1.6140   -1.2901 C   0  0  0  0  0  0
   -3.7164   -2.1919   -0.0873 C   0  0  0  0  0  0
   -2.4616   -1.9591    0.4457 C   0  0  0  0  0  0
   -2.1094   -2.5240    1.6213 F   0  0  0  0  0  0
   -1.6494    1.3340    0.7351 H   0  0  0  0  0  0
    1.3344    4.1939   -0.3062 H   0  0  0  0  0  0
    2.9584    2.3874   -0.6741 H   0  0  0  0  0  0
    1.6679   -1.0442    2.2942 H   0  0  0  0  0  0
    1.9501   -2.7673    1.9269 H   0  0  0  0  0  0
   -1.2453    0.0904   -1.9716 H   0  0  0  0  0  0
   -3.4771   -0.3470   -2.9051 H   0  0  0  0  0  0
   -5.0564   -1.8019   -1.7045 H   0  0  0  0  0  0
   -4.4142   -2.8295    0.4351 H   0  0  0  0  0  0
  1  2  1  0  0  0
  1  6  2  0  0  0
  1 12  1  0  0  0
  2  3  2  0  0  0
  2  8  1  0  0  0
  3  4  1  0  0  0
  3 24  1  0  0  0
  4  5  2  0  0  0
  4  7  1  0  0  0
  5  6  1  0  0  0
  5 25  1  0  0  0
  6 26  1  0  0  0
  8  9  2  0  0  0
  8 17  1  0  0  0
  9 10  1  0  0  0
 10 11  1  0  0  0
 10 27  1  0  0  0
 10 28  1  0  0  0
 11 12  1  0  0  0
 11 16  2  0  0  0
 12 13  2  0  0  0
 13 14  1  0  0  0
 14 15  1  0  0  0
 14 16  1  0  0  0
 17 18  1  0  0  0
 17 22  2  0  0  0
 18 19  2  0  0  0
 18 29  1  0  0  0
 19 20  1  0  0  0
 19 30  1  0  0  0
 20 21  2  0  0  0
 20 31  1  0  0  0
 21 22  1  0  0  0
 21 32  1  0  0  0
 22 23  1  0  0  0
M  END
>  <Activity>
8.72125

>  <set>
2

>  <Min_dist>
0.082192

>  <Avg_dist>
0.518851

$$$$
RO15-4941
  Cerius2 12110214493D 1   1.00000                          
 
 40 43  0  0  0  0  0  0  0  0999 V2000
    1.6347    1.3699    0.0532 C   0  0  0  0  0  0
    2.2451    0.1205    0.1630 C   0  0  0  0  0  0
    3.6405    0.0276    0.0160 C   0  0  0  0  0  0
    4.3948    1.1546   -0.2237 C   0  0  0  0  0  0
    3.7829    2.3922   -0.3216 C   0  0  0  0  0  0
    2.4150    2.4996   -0.1843 C   0  0  0  0  0  0
    4.4184   -1.5195    0.1381 Cl  0  0  0  0  0  0
    1.5101   -1.1191    0.4398 C   0  0  0  0  0  0
    2.0200   -1.9189    1.2006 O   0  0  0  0  0  0
    0.3205   -1.4329   -0.0832 N   0  0  0  0  0  0
   -0.4664   -0.5919   -1.0015 C   0  0  0  0  0  0
   -0.7145    0.7235   -0.3143 C   0  0  0  0  0  0
    0.2544    1.5531    0.1544 N   0  0  0  0  0  0
   -0.3721    2.6177    0.7325 C   0  0  0  0  0  0
   -1.6597    2.4711    0.6091 N   0  0  0  0  0  0
   -1.9135    1.3042   -0.0413 C   0  0  0  0  0  0
   -3.2403    0.7690   -0.3864 C   0  0  0  0  0  0
   -3.6405    0.8289   -1.5326 O   0  0  0  0  0  0
   -4.0117    0.2125    0.5686 O   0  0  0  0  0  0
   -5.3208   -0.3156    0.2281 C   0  0  0  0  0  0
   -5.9830   -0.8859    1.4839 C   0  0  0  0  0  0
   -1.8021   -1.3155   -1.2558 C   0  0  0  0  0  0
   -1.4379   -2.8007   -0.9880 C   0  0  0  0  0  0
   -0.4380   -2.6692    0.1867 C   0  0  0  0  0  0
    5.4659    1.0726   -0.3351 H   0  0  0  0  0  0
    4.3775    3.2749   -0.5053 H   0  0  0  0  0  0
    1.9440    3.4684   -0.2619 H   0  0  0  0  0  0
    0.0768   -0.4364   -1.9336 H   0  0  0  0  0  0
    0.1207    3.4487    1.2150 H   0  0  0  0  0  0
   -5.9405    0.4837   -0.1783 H   0  0  0  0  0  0
   -5.2119   -1.1049   -0.5157 H   0  0  0  0  0  0
   -6.9657   -1.2823    1.2283 H   0  0  0  0  0  0
   -5.3633   -1.6852    1.8903 H   0  0  0  0  0  0
   -6.0919   -0.0966    2.2277 H   0  0  0  0  0  0
   -2.5666   -0.9728   -0.5586 H   0  0  0  0  0  0
   -2.1271   -1.1768   -2.2870 H   0  0  0  0  0  0
   -2.3177   -3.3710   -0.6900 H   0  0  0  0  0  0
   -0.9603   -3.2490   -1.8592 H   0  0  0  0  0  0
    0.2338   -3.5273    0.2086 H   0  0  0  0  0  0
   -0.9746   -2.5844    1.1317 H   0  0  0  0  0  0
  1  2  1  0  0  0
  1  6  2  0  0  0
  1 13  1  0  0  0
  2  3  2  0  0  0
  2  8  1  0  0  0
  3  4  1  0  0  0
  3  7  1  0  0  0
  4  5  2  0  0  0
  4 25  1  0  0  0
  5  6  1  0  0  0
  5 26  1  0  0  0
  6 27  1  0  0  0
  8  9  2  0  0  0
  8 10  1  0  0  0
 10 11  1  0  0  0
 10 24  1  0  0  0
 11 12  1  0  0  0
 11 22  1  0  0  0
 11 28  1  0  0  0
 12 13  1  0  0  0
 12 16  2  0  0  0
 13 14  1  0  0  0
 14 15  2  0  0  0
 14 29  1  0  0  0
 15 16  1  0  0  0
 16 17  1  0  0  0
 17 18  2  0  0  0
 17 19  1  0  0  0
 19 20  1  0  0  0
 20 21  1  0  0  0
 20 30  1  0  0  0
 20 31  1  0  0  0
 21 32  1  0  0  0
 21 33  1  0  0  0
 21 34  1  0  0  0
 22 23  1  0  0  0
 22 35  1  0  0  0
 22 36  1  0  0  0
 23 24  1  0  0  0
 23 37  1  0  0  0
 23 38  1  0  0  0
 24 39  1  0  0  0
 24 40  1  0  0  0
M  END
>  <Activity>
8.76955

>  <set>
2

>  <Min_dist>
0.028571

>  <Avg_dist>
0.542454

$$$$
RO16-9906
  Cerius2 12110214493D 1   1.00000                          
 
 41 44  0  0  0  0  0  0  0  0999 V2000
    1.8898    1.3630    0.0859 C   0  0  0  0  0  0
    2.4841    0.1072    0.2099 C   0  0  0  0  0  0
    3.8839    0.0033    0.1239 C   0  0  0  0  0  0
    4.6576    1.1257   -0.0705 C   0  0  0  0  0  0
    4.0611    2.3697   -0.1828 C   0  0  0  0  0  0
    2.6895    2.4879   -0.1052 C   0  0  0  0  0  0
    4.6424   -1.5519    0.2645 Cl  0  0  0  0  0  0
    1.7270   -1.1285    0.4411 C   0  0  0  0  0  0
    2.1958   -1.9402    1.2156 O   0  0  0  0  0  0
    0.5592   -1.4265   -0.1373 N   0  0  0  0  0  0
   -0.1789   -0.5695   -1.0809 C   0  0  0  0  0  0
   -0.4462    0.7413   -0.3920 C   0  0  0  0  0  0
    0.5080    1.5576    0.1277 N   0  0  0  0  0  0
   -0.1345    2.6219    0.6883 C   0  0  0  0  0  0
   -1.4165    2.4881    0.5064 N   0  0  0  0  0  0
   -1.6511    1.3300   -0.1665 C   0  0  0  0  0  0
   -2.9658    0.8101   -0.5755 C   0  0  0  0  0  0
   -3.3141    0.8849   -1.7376 O   0  0  0  0  0  0
   -3.7836    0.2511    0.3386 O   0  0  0  0  0  0
   -5.0806   -0.2618   -0.0650 C   0  0  0  0  0  0
   -5.7920   -0.8299    1.1360 C   0  0  0  0  0  0
   -6.9465   -0.3352    1.5081 C   0  0  0  0  0  0
   -1.5081   -1.2786   -1.4016 C   0  0  0  0  0  0
   -1.1688   -2.7695   -1.1331 C   0  0  0  0  0  0
   -0.2210   -2.6585    0.0860 C   0  0  0  0  0  0
    5.7318    1.0353   -0.1352 H   0  0  0  0  0  0
    4.6708    3.2488   -0.3310 H   0  0  0  0  0  0
    2.2306    3.4616   -0.1937 H   0  0  0  0  0  0
    0.4065   -0.4096   -1.9864 H   0  0  0  0  0  0
    0.3434    3.4437    1.2007 H   0  0  0  0  0  0
   -5.6749    0.5469   -0.4903 H   0  0  0  0  0  0
   -4.9456   -1.0447   -0.8112 H   0  0  0  0  0  0
   -5.3499   -1.6449    1.6899 H   0  0  0  0  0  0
   -7.4563   -0.7423    2.3688 H   0  0  0  0  0  0
   -7.3885    0.4798    0.9542 H   0  0  0  0  0  0
   -2.3000   -0.9359   -0.7355 H   0  0  0  0  0  0
   -1.7858   -1.1268   -2.4447 H   0  0  0  0  0  0
   -2.0658   -3.3348   -0.8803 H   0  0  0  0  0  0
   -0.6568   -3.2135   -1.9868 H   0  0  0  0  0  0
    0.4418   -3.5228    0.1289 H   0  0  0  0  0  0
   -0.7983   -2.5783    1.0071 H   0  0  0  0  0  0
  1  2  1  0  0  0
  1  6  2  0  0  0
  1 13  1  0  0  0
  2  3  2  0  0  0
  2  8  1  0  0  0
  3  4  1  0  0  0
  3  7  1  0  0  0
  4  5  2  0  0  0
  4 26  1  0  0  0
  5  6  1  0  0  0
  5 27  1  0  0  0
  6 28  1  0  0  0
  8  9  2  0  0  0
  8 10  1  0  0  0
 10 11  1  0  0  0
 10 25  1  0  0  0
 11 12  1  0  0  0
 11 23  1  0  0  0
 11 29  1  0  0  0
 12 13  1  0  0  0
 12 16  2  0  0  0
 13 14  1  0  0  0
 14 15  2  0  0  0
 14 30  1  0  0  0
 15 16  1  0  0  0
 16 17  1  0  0  0
 17 18  2  0  0  0
 17 19  1  0  0  0
 19 20  1  0  0  0
 20 21  1  0  0  0
 20 31  1  0  0  0
 20 32  1  0  0  0
 21 22  2  0  0  0
 21 33  1  0  0  0
 22 34  1  0  0  0
 22 35  1  0  0  0
 23 24  1  0  0  0
 23 36  1  0  0  0
 23 37  1  0  0  0
 24 25  1  0  0  0
 24 38  1  0  0  0
 24 39  1  0  0  0
 25 40  1  0  0  0
 25 41  1  0  0  0
M  END
>  <Activity>
8.76955

>  <set>
2

>  <Min_dist>
0.026786

>  <Avg_dist>
0.564001

$$$$
RO16-6950
  Cerius2 12110214493D 1   1.00000                          
 
 48 51  0  0  0  0  0  0  0  0999 V2000
    1.8907    1.4939    0.0087 C   0  0  0  0  0  0
    2.5316    0.2611    0.1292 C   0  0  0  0  0  0
    3.9229    0.1950   -0.0543 C   0  0  0  0  0  0
    4.6452    1.3301   -0.3389 C   0  0  0  0  0  0
    4.0045    2.5530   -0.4475 C   0  0  0  0  0  0
    2.6392    2.6347   -0.2754 C   0  0  0  0  0  0
    4.6172   -1.1073    0.0603 N   0  3  0  0  0  0
    5.7054   -1.1715    0.6036 O   0  0  0  0  0  0
    4.1002   -2.1146   -0.3887 O   0  5  0  0  0  0
    1.8317   -0.9882    0.4539 C   0  0  0  0  0  0
    2.3797   -1.7593    1.2176 O   0  0  0  0  0  0
    0.6354   -1.3391   -0.0288 N   0  0  0  0  0  0
   -0.1945   -0.5363   -0.9433 C   0  0  0  0  0  0
   -0.4527    0.7889   -0.2787 C   0  0  0  0  0  0
    0.5100    1.6495    0.1444 N   0  0  0  0  0  0
   -0.1239    2.7132    0.7159 C   0  0  0  0  0  0
   -1.4107    2.5363    0.6317 N   0  0  0  0  0  0
   -1.6564    1.3498    0.0145 C   0  0  0  0  0  0
   -2.9799    0.7787   -0.2819 C   0  0  0  0  0  0
   -3.4098    0.7988   -1.4187 O   0  0  0  0  0  0
   -3.7155    0.2332    0.7072 O   0  0  0  0  0  0
   -5.0214   -0.3302    0.4147 C   0  0  0  0  0  0
   -5.6400   -0.8790    1.7020 C   0  0  0  0  0  0
   -5.9284    0.7578   -0.1636 C   0  0  0  0  0  0
   -4.8717   -1.4633   -0.6025 C   0  0  0  0  0  0
   -1.5204   -1.2939   -1.1443 C   0  0  0  0  0  0
   -1.1165   -2.7644   -0.8538 C   0  0  0  0  0  0
   -0.0881   -2.5849    0.2894 C   0  0  0  0  0  0
    5.7144    1.2678   -0.4777 H   0  0  0  0  0  0
    4.5749    3.4434   -0.6673 H   0  0  0  0  0  0
    2.1451    3.5912   -0.3617 H   0  0  0  0  0  0
    0.3195   -0.3904   -1.8933 H   0  0  0  0  0  0
    0.3635    3.5654    1.1660 H   0  0  0  0  0  0
   -6.6203   -1.3020    1.4824 H   0  0  0  0  0  0
   -4.9938   -1.6541    2.1139 H   0  0  0  0  0  0
   -5.7466   -0.0718    2.4267 H   0  0  0  0  0  0
   -6.0350    1.5650    0.5611 H   0  0  0  0  0  0
   -5.4877    1.1487   -1.0806 H   0  0  0  0  0  0
   -6.9087    0.3348   -0.3831 H   0  0  0  0  0  0
   -4.2255   -2.2384   -0.1906 H   0  0  0  0  0  0
   -5.8520   -1.8862   -0.8221 H   0  0  0  0  0  0
   -4.4310   -1.0723   -1.5196 H   0  0  0  0  0  0
   -2.2730   -0.9518   -0.4339 H   0  0  0  0  0  0
   -1.8764   -1.1856   -2.1689 H   0  0  0  0  0  0
   -1.9751   -3.3465   -0.5190 H   0  0  0  0  0  0
   -0.6531   -3.2221   -1.7278 H   0  0  0  0  0  0
    0.6028   -3.4277    0.3117 H   0  0  0  0  0  0
   -0.6004   -2.4901    1.2468 H   0  0  0  0  0  0
  1  2  1  0  0  0
  1  6  2  0  0  0
  1 15  1  0  0  0
  2  3  2  0  0  0
  2 10  1  0  0  0
  3  4  1  0  0  0
  3  7  1  0  0  0
  4  5  2  0  0  0
  4 29  1  0  0  0
  5  6  1  0  0  0
  5 30  1  0  0  0
  6 31  1  0  0  0
  7  8  2  0  0  0
  7  9  1  0  0  0
 10 11  2  0  0  0
 10 12  1  0  0  0
 12 13  1  0  0  0
 12 28  1  0  0  0
 13 14  1  0  0  0
 13 26  1  0  0  0
 13 32  1  0  0  0
 14 15  1  0  0  0
 14 18  2  0  0  0
 15 16  1  0  0  0
 16 17  2  0  0  0
 16 33  1  0  0  0
 17 18  1  0  0  0
 18 19  1  0  0  0
 19 20  2  0  0  0
 19 21  1  0  0  0
 21 22  1  0  0  0
 22 23  1  0  0  0
 22 24  1  0  0  0
 22 25  1  0  0  0
 23 34  1  0  0  0
 23 35  1  0  0  0
 23 36  1  0  0  0
 24 37  1  0  0  0
 24 38  1  0  0  0
 24 39  1  0  0  0
 25 40  1  0  0  0
 25 41  1  0  0  0
 25 42  1  0  0  0
 26 27  1  0  0  0
 26 43  1  0  0  0
 26 44  1  0  0  0
 27 28  1  0  0  0
 27 45  1  0  0  0
 27 46  1  0  0  0
 28 47  1  0  0  0
 28 48  1  0  0  0
M  CHG  2   7   1   9  -1
M  END
>  <Activity>
8.55284

>  <set>
2

>  <Min_dist>
0.132743

>  <Avg_dist>
0.587795

$$$$
RO16-4234
  Cerius2 12110214493D 1   1.00000                          
 
 35 38  0  0  0  0  0  0  0  0999 V2000
    1.0124    1.4003   -0.0090 C   0  0  0  0  0  0
    1.7270    0.2076    0.1038 C   0  0  0  0  0  0
    3.1107    0.2150   -0.1467 C   0  0  0  0  0  0
    3.7529    1.3839   -0.4893 C   0  0  0  0  0  0
    3.0387    2.5653   -0.5896 C   0  0  0  0  0  0
    1.6805    2.5740   -0.3515 C   0  0  0  0  0  0
    4.0164   -1.2609   -0.0225 Cl  0  0  0  0  0  0
    1.1157   -1.0704    0.4867 C   0  0  0  0  0  0
    1.7427   -1.7926    1.2374 O   0  0  0  0  0  0
   -0.0805   -1.4983    0.0706 N   0  0  0  0  0  0
   -0.9978   -0.7638   -0.8177 C   0  0  0  0  0  0
   -1.2988    0.5594   -0.1674 C   0  0  0  0  0  0
   -0.3668    1.4818    0.1912 N   0  0  0  0  0  0
   -1.0320    2.5208    0.7721 C   0  0  0  0  0  0
   -2.3094    2.2701    0.7542 N   0  0  0  0  0  0
   -2.5161    1.0585    0.1733 C   0  0  0  0  0  0
   -3.8190    0.4072   -0.0470 C   0  0  0  0  0  0
   -4.3065    0.3837   -1.1610 O   0  0  0  0  0  0
   -4.4708   -0.1625    0.9860 N   0  0  0  0  0  0
   -2.2865   -1.5986   -0.9382 C   0  0  0  0  0  0
   -1.7861   -3.0374   -0.6390 C   0  0  0  0  0  0
   -0.7158   -2.7751    0.4484 C   0  0  0  0  0  0
    4.8160    1.3790   -0.6798 H   0  0  0  0  0  0
    3.5459    3.4814   -0.8542 H   0  0  0  0  0  0
    1.1293    3.4993   -0.4317 H   0  0  0  0  0  0
   -0.5391   -0.6107   -1.7946 H   0  0  0  0  0  0
   -0.5730    3.4088    1.1811 H   0  0  0  0  0  0
   -5.3287   -0.5913    0.8410 H   0  0  0  0  0  0
   -4.0820   -0.1437    1.8745 H   0  0  0  0  0  0
   -3.0224   -1.2833   -0.1985 H   0  0  0  0  0  0
   -2.6969   -1.5335   -1.9459 H   0  0  0  0  0  0
   -2.5931   -3.6588   -0.2509 H   0  0  0  0  0  0
   -1.3399   -3.4880   -1.5255 H   0  0  0  0  0  0
    0.0222   -3.5772    0.4533 H   0  0  0  0  0  0
   -1.1861   -2.6876    1.4279 H   0  0  0  0  0  0
  1  2  1  0  0  0
  1  6  2  0  0  0
  1 13  1  0  0  0
  2  3  2  0  0  0
  2  8  1  0  0  0
  3  4  1  0  0  0
  3  7  1  0  0  0
  4  5  2  0  0  0
  4 23  1  0  0  0
  5  6  1  0  0  0
  5 24  1  0  0  0
  6 25  1  0  0  0
  8  9  2  0  0  0
  8 10  1  0  0  0
 10 11  1  0  0  0
 10 22  1  0  0  0
 11 12  1  0  0  0
 11 20  1  0  0  0
 11 26  1  0  0  0
 12 13  1  0  0  0
 12 16  2  0  0  0
 13 14  1  0  0  0
 14 15  2  0  0  0
 14 27  1  0  0  0
 15 16  1  0  0  0
 16 17  1  0  0  0
 17 18  2  0  0  0
 17 19  1  0  0  0
 19 28  1  0  0  0
 19 29  1  0  0  0
 20 21  1  0  0  0
 20 30  1  0  0  0
 20 31  1  0  0  0
 21 22  1  0  0  0
 21 32  1  0  0  0
 21 33  1  0  0  0
 22 34  1  0  0  0
 22 35  1  0  0  0
M  END
>  <Activity>
5.52288

>  <set>
2

>  <Min_dist>
0.145631

>  <Avg_dist>
0.563938

$$$$
RO15-1310
  Cerius2 12110214493D 1   1.00000                          
 
 36 38  0  0  0  0  0  0  0  0999 V2000
    1.3381    0.7857    0.1758 C   0  0  0  0  0  0
    1.9697   -0.4593    0.1840 C   0  0  0  0  0  0
    3.3592   -0.5155   -0.0162 C   0  0  0  0  0  0
    4.0873    0.6387   -0.1952 C   0  0  0  0  0  0
    3.4550    1.8718   -0.1794 C   0  0  0  0  0  0
    2.0902    1.9441    0.0049 C   0  0  0  0  0  0
    5.8035    0.5496   -0.4410 Cl  0  0  0  0  0  0
    1.2634   -1.7199    0.4213 C   0  0  0  0  0  0
    1.8231   -2.5285    1.1362 O   0  0  0  0  0  0
    0.0736   -2.0767   -0.0610 N   0  0  0  0  0  0
   -0.6857   -1.2009   -0.9601 C   0  0  0  0  0  0
   -0.9763    0.0773   -0.2172 C   0  0  0  0  0  0
   -0.0469    0.9180    0.3019 N   0  0  0  0  0  0
   -0.7122    1.9228    0.9362 C   0  0  0  0  0  0
   -1.9931    1.7412    0.7849 N   0  0  0  0  0  0
   -2.1990    0.6046    0.0663 C   0  0  0  0  0  0
   -3.5023    0.0488   -0.3319 C   0  0  0  0  0  0
   -3.5527   -0.9798   -0.9775 O   0  0  0  0  0  0
   -4.6400    0.6805    0.0194 O   0  0  0  0  0  0
   -5.9258    0.1321   -0.3735 C   0  0  0  0  0  0
   -7.0459    1.0346    0.1479 C   0  0  0  0  0  0
   -0.4897   -3.3756    0.3154 C   0  0  0  0  0  0
    3.8602   -1.4722   -0.0293 H   0  0  0  0  0  0
    4.0309    2.7758   -0.3115 H   0  0  0  0  0  0
    1.6013    2.9071    0.0163 H   0  0  0  0  0  0
   -0.0956   -0.9846   -1.8507 H   0  0  0  0  0  0
   -1.6207   -1.6840   -1.2439 H   0  0  0  0  0  0
   -0.2528    2.7370    1.4769 H   0  0  0  0  0  0
   -5.9803    0.0767   -1.4607 H   0  0  0  0  0  0
   -6.0386   -0.8670    0.0474 H   0  0  0  0  0  0
   -8.0112    0.6230   -0.1470 H   0  0  0  0  0  0
   -6.9914    1.0901    1.2351 H   0  0  0  0  0  0
   -6.9331    2.0337   -0.2730 H   0  0  0  0  0  0
    0.2009   -3.8916    0.9824 H   0  0  0  0  0  0
   -1.4419   -3.2250    0.8241 H   0  0  0  0  0  0
   -0.6473   -3.9766   -0.5802 H   0  0  0  0  0  0
  1  2  1  0  0  0
  1  6  2  0  0  0
  1 13  1  0  0  0
  2  3  2  0  0  0
  2  8  1  0  0  0
  3  4  1  0  0  0
  3 23  1  0  0  0
  4  5  2  0  0  0
  4  7  1  0  0  0
  5  6  1  0  0  0
  5 24  1  0  0  0
  6 25  1  0  0  0
  8  9  2  0  0  0
  8 10  1  0  0  0
 10 11  1  0  0  0
 10 22  1  0  0  0
 11 12  1  0  0  0
 11 26  1  0  0  0
 11 27  1  0  0  0
 12 13  1  0  0  0
 12 16  2  0  0  0
 13 14  1  0  0  0
 14 15  2  0  0  0
 14 28  1  0  0  0
 15 16  1  0  0  0
 16 17  1  0  0  0
 17 18  2  0  0  0
 17 19  1  0  0  0
 19 20  1  0  0  0
 20 21  1  0  0  0
 20 29  1  0  0  0
 20 30  1  0  0  0
 21 31  1  0  0  0
 21 32  1  0  0  0
 21 33  1  0  0  0
 22 34  1  0  0  0
 22 35  1  0  0  0
 22 36  1  0  0  0
M  END
>  <Activity>
8.16749

>  <set>
2

>  <Min_dist>
0.054545

>  <Avg_dist>
0.54971

$$$$
RO10-2643
  Cerius2 12110214493D 1   1.00000                          
 
 27 29  0  0  0  0  0  0  0  0999 V2000
    1.7444   -0.9415   -0.4177 C   0  0  0  0  0  0
    0.6535   -0.1776   -0.0219 C   0  0  0  0  0  0
    1.3955    1.3401    0.5304 S   0  0  0  0  0  0
    3.0545    0.9365    0.2306 C   0  0  0  0  0  0
    2.9835   -0.3190   -0.2700 C   0  0  0  0  0  0
    4.4664    1.9083    0.5057 Cl  0  0  0  0  0  0
   -0.7588   -0.5046   -0.0435 C   0  0  0  0  0  0
   -1.1921   -1.7010    0.2521 N   0  0  0  0  0  0
   -0.2633   -2.7594    0.6362 C   0  0  0  0  0  0
    0.6709   -3.0863   -0.4881 C   0  0  0  0  0  0
    0.5655   -4.1675   -1.0276 O   0  0  0  0  0  0
    1.6118   -2.2502   -0.9252 N   0  0  0  0  0  0
   -1.7372    0.5467   -0.4102 C   0  0  0  0  0  0
   -1.4500    1.4417   -1.4402 C   0  0  0  0  0  0
   -2.3645    2.4179   -1.7775 C   0  0  0  0  0  0
   -3.5655    2.5107   -1.0963 C   0  0  0  0  0  0
   -3.8569    1.6270   -0.0735 C   0  0  0  0  0  0
   -2.9517    0.6413    0.2699 C   0  0  0  0  0  0
   -3.3187   -0.4680    1.5538 Cl  0  0  0  0  0  0
    3.8863   -0.8388   -0.5547 H   0  0  0  0  0  0
    0.3161   -2.4317    1.4994 H   0  0  0  0  0  0
   -0.8284   -3.6523    0.9033 H   0  0  0  0  0  0
    2.2238   -2.5505   -1.6153 H   0  0  0  0  0  0
   -0.5131    1.3710   -1.9727 H   0  0  0  0  0  0
   -2.1426    3.1116   -2.5750 H   0  0  0  0  0  0
   -4.2780    3.2768   -1.3644 H   0  0  0  0  0  0
   -4.7957    1.7046    0.4548 H   0  0  0  0  0  0
  1  2  2  0  0  0
  1  5  1  0  0  0
  1 12  1  0  0  0
  2  3  1  0  0  0
  2  7  1  0  0  0
  3  4  1  0  0  0
  4  5  2  0  0  0
  4  6  1  0  0  0
  5 20  1  0  0  0
  7  8  2  0  0  0
  7 13  1  0  0  0
  8  9  1  0  0  0
  9 10  1  0  0  0
  9 21  1  0  0  0
  9 22  1  0  0  0
 10 11  2  0  0  0
 10 12  1  0  0  0
 12 23  1  0  0  0
 13 14  1  0  0  0
 13 18  2  0  0  0
 14 15  2  0  0  0
 14 24  1  0  0  0
 15 16  1  0  0  0
 15 25  1  0  0  0
 16 17  2  0  0  0
 16 26  1  0  0  0
 17 18  1  0  0  0
 17 27  1  0  0  0
 18 19  1  0  0  0
M  END
>  <Activity>
8.02687

>  <set>
2

>  <Min_dist>
0.223529

>  <Avg_dist>
0.482174

$$$$
PREMAZEPAM
  Cerius2 12110214493D 1   1.00000                          
 
 34 36  0  0  0  0  0  0  0  0999 V2000
    2.0114    0.3413   -0.3731 C   0  0  0  0  0  0
    0.6303    0.4082    0.1147 C   0  0  0  0  0  0
    0.3783    1.7219    0.3762 C   0  0  0  0  0  0
    1.4948    2.4353    0.0887 N   0  0  0  0  0  0
    2.4839    1.6027   -0.3632 C   0  0  0  0  0  0
    1.6245    3.8867    0.2397 C   0  0  0  0  0  0
   -0.9196    2.2851    0.8952 C   0  0  0  0  0  0
   -0.2835   -0.7318    0.2866 C   0  0  0  0  0  0
    0.1559   -1.8889    0.6828 N   0  0  0  0  0  0
    1.5511   -2.1089    1.0340 C   0  0  0  0  0  0
    2.4586   -1.9868   -0.1491 C   0  0  0  0  0  0
    3.0144   -2.9833   -0.5609 O   0  0  0  0  0  0
    2.6827   -0.8224   -0.7728 N   0  0  0  0  0  0
   -1.7275   -0.5581    0.0030 C   0  0  0  0  0  0
   -2.1413    0.2653   -1.0435 C   0  0  0  0  0  0
   -3.4874    0.4232   -1.3027 C   0  0  0  0  0  0
   -4.4257   -0.2336   -0.5267 C   0  0  0  0  0  0
   -4.0213   -1.0518    0.5129 C   0  0  0  0  0  0
   -2.6779   -1.2220    0.7781 C   0  0  0  0  0  0
    3.4764    1.9066   -0.6616 H   0  0  0  0  0  0
    1.9878    4.1168    1.2413 H   0  0  0  0  0  0
    2.3298    4.2673   -0.4990 H   0  0  0  0  0  0
    0.6522    4.3560    0.0893 H   0  0  0  0  0  0
   -0.9385    2.2119    1.9826 H   0  0  0  0  0  0
   -1.0057    3.3308    0.5999 H   0  0  0  0  0  0
   -1.7533    1.7201    0.4784 H   0  0  0  0  0  0
    1.8469   -1.3750    1.7838 H   0  0  0  0  0  0
    1.6557   -3.1074    1.4585 H   0  0  0  0  0  0
    3.3151   -0.7843   -1.5073 H   0  0  0  0  0  0
   -1.4097    0.7788   -1.6498 H   0  0  0  0  0  0
   -3.8091    1.0609   -2.1128 H   0  0  0  0  0  0
   -5.4782   -0.1067   -0.7331 H   0  0  0  0  0  0
   -4.7584   -1.5619    1.1153 H   0  0  0  0  0  0
   -2.3633   -1.8610    1.5900 H   0  0  0  0  0  0
  1  2  1  0  0  0
  1  5  2  0  0  0
  1 13  1  0  0  0
  2  3  2  0  0  0
  2  8  1  0  0  0
  3  4  1  0  0  0
  3  7  1  0  0  0
  4  5  1  0  0  0
  4  6  1  0  0  0
  5 20  1  0  0  0
  6 21  1  0  0  0
  6 22  1  0  0  0
  6 23  1  0  0  0
  7 24  1  0  0  0
  7 25  1  0  0  0
  7 26  1  0  0  0
  8  9  2  0  0  0
  8 14  1  0  0  0
  9 10  1  0  0  0
 10 11  1  0  0  0
 10 27  1  0  0  0
 10 28  1  0  0  0
 11 12  2  0  0  0
 11 13  1  0  0  0
 13 29  1  0  0  0
 14 15  1  0  0  0
 14 19  2  0  0  0
 15 16  2  0  0  0
 15 30  1  0  0  0
 16 17  1  0  0  0
 16 31  1  0  0  0
 17 18  2  0  0  0
 17 32  1  0  0  0
 18 19  1  0  0  0
 18 33  1  0  0  0
 19 34  1  0  0  0
M  END
>  <Activity>
6.76955

>  <set>
2

>  <Min_dist>
0.232558

>  <Avg_dist>
0.470723

$$$$
RO15-8852
  Cerius2 12110214493D 1   1.00000                          
 
 37 39  0  0  0  0  0  0  0  0999 V2000
   -0.8325    3.2550   -0.1252 C   0  0  0  0  0  0
   -1.5943    2.1035   -0.0402 C   0  0  0  0  0  0
   -0.9678    0.8818    0.0557 C   0  0  0  0  0  0
    0.4228    0.7780    0.0705 C   0  0  0  0  0  0
    1.1869    1.9233   -0.0026 C   0  0  0  0  0  0
    0.5382    3.1647   -0.1071 C   0  0  0  0  0  0
    2.5641    1.9817    0.0345 N   0  0  0  0  0  0
    3.5140    1.0820    0.0515 C   0  0  0  0  0  0
    4.6541    1.4921   -0.0044 O   0  0  0  0  0  0
    3.3378   -0.3899    0.1326 C   0  0  0  0  0  0
    2.1745   -0.8532   -0.5854 N   0  0  0  0  0  0
    0.9723   -0.6096    0.1531 C   0  0  0  0  0  0
   -0.0843   -1.5642   -0.3403 C   0  0  0  0  0  0
   -0.8536   -2.2732    0.5652 C   0  0  0  0  0  0
   -1.8236   -3.1489    0.1115 C   0  0  0  0  0  0
   -2.0237   -3.3152   -1.2461 C   0  0  0  0  0  0
   -1.2546   -2.6071   -2.1502 C   0  0  0  0  0  0
   -0.2888   -1.7274   -1.6973 C   0  0  0  0  0  0
   -0.6013   -2.0643    2.2701 Cl  0  0  0  0  0  0
    2.3069   -2.3111   -0.7076 C   0  0  0  0  0  0
   -3.0722    2.1847   -0.0519 N   0  3  0  0  0  0
   -3.6220    3.2683   -0.1365 O   0  0  0  0  0  0
   -3.7386    1.1679    0.0232 O   0  5  0  0  0  0
   -1.3124    4.2188   -0.2097 H   0  0  0  0  0  0
   -1.5657   -0.0153    0.1212 H   0  0  0  0  0  0
    1.1289    4.0664   -0.1742 H   0  0  0  0  0  0
    2.9036    2.8902    0.0515 H   0  0  0  0  0  0
    4.2225   -0.8735   -0.2815 H   0  0  0  0  0  0
    3.2413   -0.6754    1.1802 H   0  0  0  0  0  0
    1.1653   -0.8366    1.2016 H   0  0  0  0  0  0
   -2.4241   -3.7029    0.8179 H   0  0  0  0  0  0
   -2.7810   -3.9989   -1.6004 H   0  0  0  0  0  0
   -1.4109   -2.7378   -3.2108 H   0  0  0  0  0  0
    0.3118   -1.1743   -2.4041 H   0  0  0  0  0  0
    2.1978   -2.7695    0.2753 H   0  0  0  0  0  0
    1.5327   -2.6916   -1.3739 H   0  0  0  0  0  0
    3.2883   -2.5540   -1.1149 H   0  0  0  0  0  0
  1  2  1  0  0  0
  1  6  2  0  0  0
  1 24  1  0  0  0
  2  3  2  0  0  0
  2 21  1  0  0  0
  3  4  1  0  0  0
  3 25  1  0  0  0
  4  5  2  0  0  0
  4 12  1  0  0  0
  5  6  1  0  0  0
  5  7  1  0  0  0
  6 26  1  0  0  0
  7  8  1  0  0  0
  7 27  1  0  0  0
  8  9  2  0  0  0
  8 10  1  0  0  0
 10 11  1  0  0  0
 10 28  1  0  0  0
 10 29  1  0  0  0
 11 12  1  0  0  0
 11 20  1  0  0  0
 12 13  1  0  0  0
 12 30  1  0  0  0
 13 14  1  0  0  0
 13 18  2  0  0  0
 14 15  2  0  0  0
 14 19  1  0  0  0
 15 16  1  0  0  0
 15 31  1  0  0  0
 16 17  2  0  0  0
 16 32  1  0  0  0
 17 18  1  0  0  0
 17 33  1  0  0  0
 18 34  1  0  0  0
 20 35  1  0  0  0
 20 36  1  0  0  0
 20 37  1  0  0  0
 21 22  2  0  0  0
 21 23  1  0  0  0
M  CHG  2  21   1  23  -1
M  END
>  <Activity>
6.13906

>  <set>
2

>  <Min_dist>
0.266667

>  <Avg_dist>
0.543926

$$$$
CHLORDIAZEPOXIDE
  Cerius2 12110214493D 1   1.00000                          
 
 35 37  0  0  0  0  0  0  0  0999 V2000
    1.0714    1.4238   -0.2799 C   0  0  0  0  0  0
    0.0135    0.6069    0.1357 C   0  0  0  0  0  0
   -1.2485    1.1761    0.3516 C   0  0  0  0  0  0
   -1.4490    2.5262    0.1642 C   0  0  0  0  0  0
   -0.3997    3.3366   -0.2407 C   0  0  0  0  0  0
    0.8470    2.7966   -0.4604 C   0  0  0  0  0  0
   -3.0197    3.2141    0.4352 Cl  0  0  0  0  0  0
    0.1609   -0.8393    0.3660 C   0  0  0  0  0  0
    1.1874   -1.3849    0.9217 N   0  3  0  0  0  0
    2.3288   -0.5850    1.3661 C   0  0  0  0  0  0
    2.9499    0.0805    0.1695 C   0  0  0  0  0  0
    2.3237    0.9569   -0.5303 N   0  0  0  0  0  0
    4.2254   -0.2591   -0.1860 N   0  0  0  0  0  0
    4.8551    0.3738   -1.3476 C   0  0  0  0  0  0
    1.2110   -2.7886    1.1065 O   0  5  0  0  0  0
   -0.9438   -1.7259   -0.0693 C   0  0  0  0  0  0
   -1.6222   -1.4661   -1.2596 C   0  0  0  0  0  0
   -2.6501   -2.2952   -1.6597 C   0  0  0  0  0  0
   -3.0083   -3.3821   -0.8824 C   0  0  0  0  0  0
   -2.3390   -3.6448    0.2995 C   0  0  0  0  0  0
   -1.3053   -2.8264    0.7069 C   0  0  0  0  0  0
   -2.0710    0.5513    0.6671 H   0  0  0  0  0  0
   -0.5608    4.3949   -0.3838 H   0  0  0  0  0  0
    1.6591    3.4351   -0.7752 H   0  0  0  0  0  0
    1.9905    0.1739    2.0716 H   0  0  0  0  0  0
    3.0631   -1.2317    1.8465 H   0  0  0  0  0  0
    4.7136   -0.9190    0.3308 H   0  0  0  0  0  0
    5.8634   -0.0203   -1.4739 H   0  0  0  0  0  0
    4.2673    0.1608   -2.2405 H   0  0  0  0  0  0
    4.9029    1.4516   -1.1927 H   0  0  0  0  0  0
   -1.3438   -0.6176   -1.8669 H   0  0  0  0  0  0
   -3.1762   -2.0951   -2.5814 H   0  0  0  0  0  0
   -3.8139   -4.0278   -1.1993 H   0  0  0  0  0  0
   -2.6233   -4.4946    0.9024 H   0  0  0  0  0  0
   -0.7836   -3.0325    1.6297 H   0  0  0  0  0  0
  1  2  1  0  0  0
  1  6  2  0  0  0
  1 12  1  0  0  0
  2  3  2  0  0  0
  2  8  1  0  0  0
  3  4  1  0  0  0
  3 22  1  0  0  0
  4  5  2  0  0  0
  4  7  1  0  0  0
  5  6  1  0  0  0
  5 23  1  0  0  0
  6 24  1  0  0  0
  8  9  2  0  0  0
  8 16  1  0  0  0
  9 10  1  0  0  0
  9 15  1  0  0  0
 10 11  1  0  0  0
 10 25  1  0  0  0
 10 26  1  0  0  0
 11 12  2  0  0  0
 11 13  1  0  0  0
 13 14  1  0  0  0
 13 27  1  0  0  0
 14 28  1  0  0  0
 14 29  1  0  0  0
 14 30  1  0  0  0
 16 17  1  0  0  0
 16 21  2  0  0  0
 17 18  2  0  0  0
 17 31  1  0  0  0
 18 19  1  0  0  0
 18 32  1  0  0  0
 19 20  2  0  0  0
 19 33  1  0  0  0
 20 21  1  0  0  0
 20 34  1  0  0  0
 21 35  1  0  0  0
M  CHG  2   9   1  15  -1
M  END
>  <Activity>
6.45346

>  <set>
2

>  <Min_dist>
0.438776

>  <Avg_dist>
0.590332

$$$$
DEMOXEPAM
  Cerius2 12110214493D 1   1.00000                          
 
 31 33  0  0  0  0  0  0  0  0999 V2000
    1.2032    1.4890    0.4872 C   0  0  0  0  0  0
    0.5742    0.3622   -0.0376 C   0  0  0  0  0  0
    1.3441   -0.7610   -0.3725 C   0  0  0  0  0  0
    2.7089   -0.7543   -0.1871 C   0  0  0  0  0  0
    3.3317    0.3686    0.3332 C   0  0  0  0  0  0
    2.5872    1.4791    0.6670 C   0  0  0  0  0  0
    3.6486   -2.1529   -0.6048 Cl  0  0  0  0  0  0
   -0.8786    0.2861   -0.2644 C   0  0  0  0  0  0
   -1.6019    1.2423   -0.7268 N   0  3  0  0  0  0
   -1.0316    2.5426   -1.0767 C   0  0  0  0  0  0
   -0.4835    3.1851    0.1682 C   0  0  0  0  0  0
   -0.9702    4.2248    0.5596 O   0  0  0  0  0  0
    0.5213    2.6409    0.8542 N   0  0  0  0  0  0
   -2.9909    1.0307   -0.9030 O   0  5  0  0  0  0
   -1.5576   -0.9891    0.0651 C   0  0  0  0  0  0
   -1.1796   -1.7115    1.1963 C   0  0  0  0  0  0
   -1.8160   -2.8981    1.4982 C   0  0  0  0  0  0
   -2.8270   -3.3713    0.6811 C   0  0  0  0  0  0
   -3.2064   -2.6591   -0.4426 C   0  0  0  0  0  0
   -2.5810   -1.4685   -0.7518 C   0  0  0  0  0  0
    0.8630   -1.6385   -0.7787 H   0  0  0  0  0  0
    4.4019    0.3733    0.4779 H   0  0  0  0  0  0
    3.0798    2.3509    1.0717 H   0  0  0  0  0  0
   -0.2285    2.4059   -1.8009 H   0  0  0  0  0  0
   -1.8070    3.1781   -1.5046 H   0  0  0  0  0  0
    0.7989    3.0864    1.6699 H   0  0  0  0  0  0
   -0.3902   -1.3432    1.8347 H   0  0  0  0  0  0
   -1.5239   -3.4587    2.3739 H   0  0  0  0  0  0
   -3.3219   -4.3008    0.9212 H   0  0  0  0  0  0
   -3.9961   -3.0337   -1.0769 H   0  0  0  0  0  0
   -2.8780   -0.9133   -1.6293 H   0  0  0  0  0  0
  1  2  1  0  0  0
  1  6  2  0  0  0
  1 13  1  0  0  0
  2  3  2  0  0  0
  2  8  1  0  0  0
  3  4  1  0  0  0
  3 21  1  0  0  0
  4  5  2  0  0  0
  4  7  1  0  0  0
  5  6  1  0  0  0
  5 22  1  0  0  0
  6 23  1  0  0  0
  8  9  2  0  0  0
  8 15  1  0  0  0
  9 10  1  0  0  0
  9 14  1  0  0  0
 10 11  1  0  0  0
 10 24  1  0  0  0
 10 25  1  0  0  0
 11 12  2  0  0  0
 11 13  1  0  0  0
 13 26  1  0  0  0
 15 16  1  0  0  0
 15 20  2  0  0  0
 16 17  2  0  0  0
 16 27  1  0  0  0
 17 18  1  0  0  0
 17 28  1  0  0  0
 18 19  2  0  0  0
 18 29  1  0  0  0
 19 20  1  0  0  0
 19 30  1  0  0  0
 20 31  1  0  0  0
M  CHG  2   9   1  14  -1
M  END
>  <Activity>
6.50864

>  <set>
2

>  <Min_dist>
0.2125

>  <Avg_dist>
0.468643

$$$$
MEDAZEPAM
  Cerius2 12110214493D 1   1.00000                          
 
 34 36  0  0  0  0  0  0  0  0999 V2000
    1.3804    1.0281    0.4197 C   0  0  0  0  0  0
    0.4225    0.1750   -0.1471 C   0  0  0  0  0  0
    0.7445   -1.1526   -0.4152 C   0  0  0  0  0  0
    2.0181   -1.6144   -0.1460 C   0  0  0  0  0  0
    2.9726   -0.7625    0.3872 C   0  0  0  0  0  0
    2.6595    0.5528    0.6700 C   0  0  0  0  0  0
    2.4250   -3.2693   -0.4766 Cl  0  0  0  0  0  0
   -0.9102    0.7183   -0.4888 C   0  0  0  0  0  0
   -0.9562    1.8412   -1.1581 N   0  0  0  0  0  0
    0.2987    2.4561   -1.5919 C   0  0  0  0  0  0
    1.0064    3.1510   -0.4386 C   0  0  0  0  0  0
    1.0229    2.3238    0.7652 N   0  0  0  0  0  0
    2.0979    2.8444    1.6205 C   0  0  0  0  0  0
   -2.1505    0.0145   -0.0870 C   0  0  0  0  0  0
   -3.3895    0.4633   -0.5437 C   0  0  0  0  0  0
   -4.5411   -0.1963   -0.1661 C   0  0  0  0  0  0
   -4.4685   -1.3006    0.6642 C   0  0  0  0  0  0
   -3.2424   -1.7506    1.1205 C   0  0  0  0  0  0
   -2.0833   -1.1030    0.7447 C   0  0  0  0  0  0
    0.0023   -1.8179   -0.8310 H   0  0  0  0  0  0
    3.9690   -1.1301    0.5832 H   0  0  0  0  0  0
    3.4092    1.2101    1.0851 H   0  0  0  0  0  0
    0.9523    1.6838   -1.9976 H   0  0  0  0  0  0
    0.0862    3.1872   -2.3720 H   0  0  0  0  0  0
    2.0327    3.3710   -0.7324 H   0  0  0  0  0  0
    0.4930    4.0872   -0.2192 H   0  0  0  0  0  0
    1.8304    3.8399    1.9747 H   0  0  0  0  0  0
    2.2372    2.1805    2.4736 H   0  0  0  0  0  0
    3.0236    2.8992    1.0477 H   0  0  0  0  0  0
   -3.4475    1.3257   -1.1913 H   0  0  0  0  0  0
   -5.5011    0.1503   -0.5191 H   0  0  0  0  0  0
   -5.3726   -1.8132    0.9576 H   0  0  0  0  0  0
   -3.1920   -2.6131    1.7684 H   0  0  0  0  0  0
   -1.1267   -1.4552    1.1015 H   0  0  0  0  0  0
  1  2  1  0  0  0
  1  6  2  0  0  0
  1 12  1  0  0  0
  2  3  2  0  0  0
  2  8  1  0  0  0
  3  4  1  0  0  0
  3 20  1  0  0  0
  4  5  2  0  0  0
  4  7  1  0  0  0
  5  6  1  0  0  0
  5 21  1  0  0  0
  6 22  1  0  0  0
  8  9  2  0  0  0
  8 14  1  0  0  0
  9 10  1  0  0  0
 10 11  1  0  0  0
 10 23  1  0  0  0
 10 24  1  0  0  0
 11 12  1  0  0  0
 11 25  1  0  0  0
 11 26  1  0  0  0
 12 13  1  0  0  0
 13 27  1  0  0  0
 13 28  1  0  0  0
 13 29  1  0  0  0
 14 15  1  0  0  0
 14 19  2  0  0  0
 15 16  2  0  0  0
 15 30  1  0  0  0
 16 17  1  0  0  0
 16 31  1  0  0  0
 17 18  2  0  0  0
 17 32  1  0  0  0
 18 19  1  0  0  0
 18 33  1  0  0  0
 19 34  1  0  0  0
M  END
>  <Activity>
6.06048

>  <set>
2

>  <Min_dist>
0.146667

>  <Avg_dist>
0.461359

$$$$
RO05-3308
  Cerius2 12110214493D 1   1.00000                          
 
 37 39  0  0  0  0  0  0  0  0999 V2000
   -2.2896    1.5844    0.1009 C   0  0  0  0  0  0
   -2.1106    0.3098   -0.4263 C   0  0  0  0  0  0
   -0.8359   -0.2034   -0.5685 C   0  0  0  0  0  0
    0.2822    0.5517   -0.1840 C   0  0  0  0  0  0
    0.0965    1.8275    0.3446 C   0  0  0  0  0  0
   -1.1985    2.3326    0.4807 C   0  0  0  0  0  0
    1.1431    2.6412    0.7551 N   0  0  0  0  0  0
    2.3030    2.7775    0.1168 C   0  0  0  0  0  0
    3.1253    3.5587    0.5464 O   0  0  0  0  0  0
    2.6209    1.9874   -1.1233 C   0  0  0  0  0  0
    2.6539    0.5656   -0.7830 N   0  0  0  0  0  0
    1.6097   -0.0566   -0.3652 C   0  0  0  0  0  0
    1.7537   -1.4948   -0.0402 C   0  0  0  0  0  0
    2.7908   -2.2391   -0.6020 C   0  0  0  0  0  0
    2.9196   -3.5783   -0.2954 C   0  0  0  0  0  0
    2.0227   -4.1828    0.5673 C   0  0  0  0  0  0
    0.9917   -3.4497    1.1273 C   0  0  0  0  0  0
    0.8561   -2.1084    0.8333 C   0  0  0  0  0  0
   -3.2209   -0.4524   -0.8120 N   0  0  0  0  0  0
   -4.3604   -0.3941   -0.0945 C   0  0  0  0  0  0
   -4.3938    0.2376    0.9404 O   0  0  0  0  0  0
   -5.5930   -1.1138   -0.5781 C   0  0  0  0  0  0
   -3.2852    1.9891    0.2083 H   0  0  0  0  0  0
   -0.6992   -1.1932   -0.9784 H   0  0  0  0  0  0
   -1.3454    3.3218    0.8887 H   0  0  0  0  0  0
    1.0194    3.1509    1.5711 H   0  0  0  0  0  0
    1.8529    2.1649   -1.8761 H   0  0  0  0  0  0
    3.5926    2.2926   -1.5115 H   0  0  0  0  0  0
    3.4913   -1.7684   -1.2758 H   0  0  0  0  0  0
    3.7221   -4.1558   -0.7301 H   0  0  0  0  0  0
    2.1277   -5.2312    0.8042 H   0  0  0  0  0  0
    0.2944   -3.9272    1.7998 H   0  0  0  0  0  0
    0.0508   -1.5372    1.2711 H   0  0  0  0  0  0
   -3.1697   -1.0220   -1.5954 H   0  0  0  0  0  0
   -6.4081   -0.9526    0.1274 H   0  0  0  0  0  0
   -5.8782   -0.7284   -1.5570 H   0  0  0  0  0  0
   -5.3841   -2.1809   -0.6545 H   0  0  0  0  0  0
  1  2  1  0  0  0
  1  6  2  0  0  0
  1 23  1  0  0  0
  2  3  2  0  0  0
  2 19  1  0  0  0
  3  4  1  0  0  0
  3 24  1  0  0  0
  4  5  2  0  0  0
  4 12  1  0  0  0
  5  6  1  0  0  0
  5  7  1  0  0  0
  6 25  1  0  0  0
  7  8  1  0  0  0
  7 26  1  0  0  0
  8  9  2  0  0  0
  8 10  1  0  0  0
 10 11  1  0  0  0
 10 27  1  0  0  0
 10 28  1  0  0  0
 11 12  2  0  0  0
 12 13  1  0  0  0
 13 14  1  0  0  0
 13 18  2  0  0  0
 14 15  2  0  0  0
 14 29  1  0  0  0
 15 16  1  0  0  0
 15 30  1  0  0  0
 16 17  2  0  0  0
 16 31  1  0  0  0
 17 18  1  0  0  0
 17 32  1  0  0  0
 18 33  1  0  0  0
 19 20  1  0  0  0
 19 34  1  0  0  0
 20 21  2  0  0  0
 20 22  1  0  0  0
 22 35  1  0  0  0
 22 36  1  0  0  0
 22 37  1  0  0  0
M  END
>  <Activity>
5

>  <set>
3

>  <Min_dist>
0.1875

>  <Avg_dist>
0.500299

$$$$
RO05-3343
  Cerius2 12110214493D 1   1.00000                          
 
 41 43  0  0  0  0  0  0  0  0999 V2000
   -1.5492    1.7967    0.9977 C   0  0  0  0  0  0
   -1.5703    0.5126    0.4786 C   0  0  0  0  0  0
   -0.4059   -0.0701    0.0355 C   0  0  0  0  0  0
    0.8107    0.6262    0.1038 C   0  0  0  0  0  0
    0.8293    1.9172    0.6276 C   0  0  0  0  0  0
   -0.3630    2.4928    1.0716 C   0  0  0  0  0  0
    1.9834    2.6770    0.7388 N   0  0  0  0  0  0
    2.9487    2.7416   -0.1754 C   0  0  0  0  0  0
    3.8907    3.4822    0.0116 O   0  0  0  0  0  0
    2.9018    1.9193   -1.4343 C   0  0  0  0  0  0
    2.9501    0.5023   -1.0764 N   0  0  0  0  0  0
    2.0163   -0.0571   -0.3903 C   0  0  0  0  0  0
    2.1664   -1.4969   -0.0748 C   0  0  0  0  0  0
    2.9699   -2.3089   -0.8750 C   0  0  0  0  0  0
    3.1061   -3.6490   -0.5758 C   0  0  0  0  0  0
    2.4477   -4.1874    0.5153 C   0  0  0  0  0  0
    1.6489   -3.3871    1.3125 C   0  0  0  0  0  0
    1.5094   -2.0444    1.0269 C   0  0  0  0  0  0
   -3.0897   -0.3749    0.3864 S   0  0  0  0  0  0
   -2.7316   -1.7493    0.3384 O   0  0  0  0  0  0
   -3.9433    0.2193    1.3546 O   0  0  0  0  0  0
   -3.7725   -0.0363   -1.0838 N   0  0  0  0  0  0
   -3.4657   -0.8755   -2.2447 C   0  0  0  0  0  0
   -4.6833    1.1027   -1.2234 C   0  0  0  0  0  0
   -2.4652    2.2545    1.3410 H   0  0  0  0  0  0
   -0.4279   -1.0717   -0.3679 H   0  0  0  0  0  0
   -0.3550    3.4939    1.4768 H   0  0  0  0  0  0
    2.0961    3.2031    1.5459 H   0  0  0  0  0  0
    1.9775    2.1285   -1.9728 H   0  0  0  0  0  0
    3.7569    2.1662   -2.0636 H   0  0  0  0  0  0
    3.4841   -1.8897   -1.7272 H   0  0  0  0  0  0
    3.7277   -4.2789   -1.1948 H   0  0  0  0  0  0
    2.5574   -5.2369    0.7455 H   0  0  0  0  0  0
    1.1369   -3.8133    2.1625 H   0  0  0  0  0  0
    0.8856   -1.4206    1.6499 H   0  0  0  0  0  0
   -4.0031   -0.5011   -3.1159 H   0  0  0  0  0  0
   -2.3936   -0.8482   -2.4397 H   0  0  0  0  0  0
   -3.7721   -1.9018   -2.0422 H   0  0  0  0  0  0
   -4.7888    1.6037   -0.2612 H   0  0  0  0  0  0
   -4.2802    1.8027   -1.9553 H   0  0  0  0  0  0
   -5.6586    0.7490   -1.5578 H   0  0  0  0  0  0
  1  2  1  0  0  0
  1  6  2  0  0  0
  1 25  1  0  0  0
  2  3  2  0  0  0
  2 19  1  0  0  0
  3  4  1  0  0  0
  3 26  1  0  0  0
  4  5  2  0  0  0
  4 12  1  0  0  0
  5  6  1  0  0  0
  5  7  1  0  0  0
  6 27  1  0  0  0
  7  8  1  0  0  0
  7 28  1  0  0  0
  8  9  2  0  0  0
  8 10  1  0  0  0
 10 11  1  0  0  0
 10 29  1  0  0  0
 10 30  1  0  0  0
 11 12  2  0  0  0
 12 13  1  0  0  0
 13 14  1  0  0  0
 13 18  2  0  0  0
 14 15  2  0  0  0
 14 31  1  0  0  0
 15 16  1  0  0  0
 15 32  1  0  0  0
 16 17  2  0  0  0
 16 33  1  0  0  0
 17 18  1  0  0  0
 17 34  1  0  0  0
 18 35  1  0  0  0
 19 20  2  0  0  0
 19 21  2  0  0  0
 19 22  1  0  0  0
 22 23  1  0  0  0
 22 24  1  0  0  0
 23 36  1  0  0  0
 23 37  1  0  0  0
 23 38  1  0  0  0
 24 39  1  0  0  0
 24 40  1  0  0  0
 24 41  1  0  0  0
M  END
>  <Activity>
5

>  <set>
3

>  <Min_dist>
0.3

>  <Avg_dist>
0.519828

$$$$
RO05-3663
  Cerius2 12110214493D 1   1.00000                          
 
 23 24  0  0  0  0  0  0  0  0999 V2000
   -2.7214    1.4204   -0.1205 C   0  0  0  0  0  0
   -3.0312    0.0859   -0.3260 C   0  0  0  0  0  0
   -2.0450   -0.8695   -0.2524 C   0  0  0  0  0  0
   -0.7182   -0.5045    0.0307 C   0  0  0  0  0  0
   -0.4096    0.8401    0.2368 C   0  0  0  0  0  0
   -1.4254    1.7949    0.1579 C   0  0  0  0  0  0
    0.8686    1.2918    0.5241 N   0  0  0  0  0  0
    1.9844    0.8374   -0.0428 C   0  0  0  0  0  0
    3.0460    1.3453    0.2503 O   0  0  0  0  0  0
    1.9607   -0.2910   -1.0378 C   0  0  0  0  0  0
    1.4676   -1.4969   -0.3739 N   0  0  0  0  0  0
    0.2825   -1.5736    0.0933 C   0  0  0  0  0  0
   -0.1186   -2.8623    0.7637 C   0  0  0  0  0  0
   -3.4969    2.1695   -0.1831 H   0  0  0  0  0  0
   -4.0484   -0.2044   -0.5439 H   0  0  0  0  0  0
   -2.2924   -1.9084   -0.4130 H   0  0  0  0  0  0
   -1.1924    2.8376    0.3155 H   0  0  0  0  0  0
    0.9571    1.9929    1.1886 H   0  0  0  0  0  0
    1.3001   -0.0339   -1.8657 H   0  0  0  0  0  0
    2.9685   -0.4674   -1.4138 H   0  0  0  0  0  0
    0.7182   -3.5605    0.7391 H   0  0  0  0  0  0
   -0.3947   -2.6626    1.7991 H   0  0  0  0  0  0
   -0.9692   -3.2960    0.2379 H   0  0  0  0  0  0
  1  2  1  0  0  0
  1  6  2  0  0  0
  1 14  1  0  0  0
  2  3  2  0  0  0
  2 15  1  0  0  0
  3  4  1  0  0  0
  3 16  1  0  0  0
  4  5  2  0  0  0
  4 12  1  0  0  0
  5  6  1  0  0  0
  5  7  1  0  0  0
  6 17  1  0  0  0
  7  8  1  0  0  0
  7 18  1  0  0  0
  8  9  2  0  0  0
  8 10  1  0  0  0
 10 11  1  0  0  0
 10 19  1  0  0  0
 10 20  1  0  0  0
 11 12  2  0  0  0
 12 13  1  0  0  0
 13 21  1  0  0  0
 13 22  1  0  0  0
 13 23  1  0  0  0
M  END
>  <Activity>
5

>  <set>
3

>  <Min_dist>
0.125

>  <Avg_dist>
0.513331

$$$$
RO05-7094
  Cerius2 12110214493D 1   1.00000                          
 
 43 45  0  0  0  0  0  0  0  0999 V2000
   -0.0287   -2.9968   -0.0377 C   0  0  0  0  0  0
   -1.3609   -2.7064    0.2124 C   0  0  0  0  0  0
   -1.7538   -1.4042    0.4232 C   0  0  0  0  0  0
   -0.8149   -0.3617    0.3871 C   0  0  0  0  0  0
    0.5231   -0.6568    0.1343 C   0  0  0  0  0  0
    0.9037   -1.9839   -0.0759 C   0  0  0  0  0  0
    1.5175    0.3078    0.0749 N   0  0  0  0  0  0
    1.6200    1.3531    0.8925 C   0  0  0  0  0  0
    2.5643    2.1049    0.7744 O   0  0  0  0  0  0
    0.5947    1.6266    1.9589 C   0  0  0  0  0  0
   -0.6927    1.8962    1.3198 N   0  0  0  0  0  0
   -1.3046    1.0055    0.6231 C   0  0  0  0  0  0
   -2.5995    1.3846    0.0114 C   0  0  0  0  0  0
   -3.0693    0.7039   -1.1117 C   0  0  0  0  0  0
   -4.2763    1.0613   -1.6767 C   0  0  0  0  0  0
   -5.0200    2.0928   -1.1317 C   0  0  0  0  0  0
   -4.5591    2.7720   -0.0180 C   0  0  0  0  0  0
   -3.3565    2.4198    0.5596 C   0  0  0  0  0  0
    2.5352    0.1649   -0.9691 C   0  0  0  0  0  0
    2.5084    1.3945   -1.8792 C   0  0  0  0  0  0
    3.8951    0.0414   -0.3315 C   0  0  0  0  0  0
    4.0035    0.0699    0.8761 O   0  0  0  0  0  0
    4.9908   -0.1008   -1.1033 N   0  0  0  0  0  0
    6.3128   -0.2209   -0.4834 C   0  0  0  0  0  0
   -2.5340   -3.9853    0.2591 Cl  0  0  0  0  0  0
    0.2792   -4.0194   -0.1985 H   0  0  0  0  0  0
   -2.7928   -1.1829    0.6176 H   0  0  0  0  0  0
    1.9397   -2.2183   -0.2708 H   0  0  0  0  0  0
    0.5041    0.7570    2.6098 H   0  0  0  0  0  0
    0.8999    2.4933    2.5451 H   0  0  0  0  0  0
   -2.4893   -0.1010   -1.5384 H   0  0  0  0  0  0
   -4.6411    0.5350   -2.5463 H   0  0  0  0  0  0
   -5.9640    2.3692   -1.5777 H   0  0  0  0  0  0
   -5.1438    3.5766    0.4027 H   0  0  0  0  0  0
   -2.9979    2.9505    1.4292 H   0  0  0  0  0  0
    2.3280   -0.7281   -1.5588 H   0  0  0  0  0  0
    2.7157    2.2875   -1.2895 H   0  0  0  0  0  0
    3.2657    1.2882   -2.6560 H   0  0  0  0  0  0
    1.5249    1.4838   -2.3404 H   0  0  0  0  0  0
    4.9042   -0.1236   -2.0691 H   0  0  0  0  0  0
    7.0700   -0.3272   -1.2602 H   0  0  0  0  0  0
    6.5201    0.6721    0.1062 H   0  0  0  0  0  0
    6.3319   -1.0969    0.1649 H   0  0  0  0  0  0
  1  2  1  0  0  0
  1  6  2  0  0  0
  1 26  1  0  0  0
  2  3  2  0  0  0
  2 25  1  0  0  0
  3  4  1  0  0  0
  3 27  1  0  0  0
  4  5  2  0  0  0
  4 12  1  0  0  0
  5  6  1  0  0  0
  5  7  1  0  0  0
  6 28  1  0  0  0
  7  8  1  0  0  0
  7 19  1  0  0  0
  8  9  2  0  0  0
  8 10  1  0  0  0
 10 11  1  0  0  0
 10 29  1  0  0  0
 10 30  1  0  0  0
 11 12  2  0  0  0
 12 13  1  0  0  0
 13 14  1  0  0  0
 13 18  2  0  0  0
 14 15  2  0  0  0
 14 31  1  0  0  0
 15 16  1  0  0  0
 15 32  1  0  0  0
 16 17  2  0  0  0
 16 33  1  0  0  0
 17 18  1  0  0  0
 17 34  1  0  0  0
 18 35  1  0  0  0
 19 20  1  0  0  0
 19 21  1  0  0  0
 19 36  1  0  0  0
 20 37  1  0  0  0
 20 38  1  0  0  0
 20 39  1  0  0  0
 21 22  2  0  0  0
 21 23  1  0  0  0
 23 24  1  0  0  0
 23 40  1  0  0  0
 24 41  1  0  0  0
 24 42  1  0  0  0
 24 43  1  0  0  0
M  END
>  <Activity>
5

>  <set>
3

>  <Min_dist>
0.254545

>  <Avg_dist>
0.522471

$$$$
RO05-9090
  Cerius2 12110214493D 1   1.00000                          
 
 38 40  0  0  0  0  0  0  0  0999 V2000
    2.0229   -2.3983   -0.5060 C   0  0  0  0  0  0
    0.7277   -2.6197   -0.0673 C   0  0  0  0  0  0
   -0.0855   -1.5548    0.2434 C   0  0  0  0  0  0
    0.3854   -0.2385    0.1201 C   0  0  0  0  0  0
    1.6881   -0.0185   -0.3225 C   0  0  0  0  0  0
    2.4994   -1.1122   -0.6322 C   0  0  0  0  0  0
    2.2357    1.2452   -0.4794 N   0  0  0  0  0  0
    2.0574    2.2660    0.3560 C   0  0  0  0  0  0
    2.6298    3.3132    0.1396 O   0  0  0  0  0  0
    1.1641    2.1548    1.5613 C   0  0  0  0  0  0
   -0.2077    1.9172    1.1136 N   0  0  0  0  0  0
   -0.5377    0.8519    0.4719 C   0  0  0  0  0  0
   -1.9531    0.7128    0.0569 C   0  0  0  0  0  0
   -2.2901   -0.1107   -1.0171 C   0  0  0  0  0  0
   -3.6102   -0.2365   -1.3986 C   0  0  0  0  0  0
   -4.5985    0.4521   -0.7181 C   0  0  0  0  0  0
   -4.2703    1.2708    0.3477 C   0  0  0  0  0  0
   -2.9545    1.4003    0.7423 C   0  0  0  0  0  0
    3.0768    1.4751   -1.6567 C   0  0  0  0  0  0
    0.2093   -4.0281    0.0692 C   0  0  0  0  0  0
    0.4909   -4.5245    1.4228 N   0  0  0  0  0  0
    2.6616   -3.2357   -0.7451 H   0  0  0  0  0  0
   -1.0945   -1.7330    0.5845 H   0  0  0  0  0  0
    3.5106   -0.9479   -0.9741 H   0  0  0  0  0  0
    1.4938    1.3237    2.1846 H   0  0  0  0  0  0
    1.2060    3.0816    2.1335 H   0  0  0  0  0  0
   -1.5194   -0.6485   -1.5493 H   0  0  0  0  0  0
   -3.8723   -0.8736   -2.2304 H   0  0  0  0  0  0
   -5.6303    0.3505   -1.0205 H   0  0  0  0  0  0
   -5.0462    1.8064    0.8746 H   0  0  0  0  0  0
   -2.6995    2.0397    1.5745 H   0  0  0  0  0  0
    3.4364    2.5041   -1.6509 H   0  0  0  0  0  0
    3.9267    0.7931   -1.6348 H   0  0  0  0  0  0
    2.4930    1.2994   -2.5602 H   0  0  0  0  0  0
   -0.8667   -4.0376   -0.1047 H   0  0  0  0  0  0
    0.7013   -4.6689   -0.6625 H   0  0  0  0  0  0
    0.1283   -5.4650    1.4680 H   0  0  0  0  0  0
    1.4942   -4.5964    1.5024 H   0  0  0  0  0  0
  1  2  1  0  0  0
  1  6  2  0  0  0
  1 22  1  0  0  0
  2  3  2  0  0  0
  2 20  1  0  0  0
  3  4  1  0  0  0
  3 23  1  0  0  0
  4  5  2  0  0  0
  4 12  1  0  0  0
  5  6  1  0  0  0
  5  7  1  0  0  0
  6 24  1  0  0  0
  7  8  1  0  0  0
  7 19  1  0  0  0
  8  9  2  0  0  0
  8 10  1  0  0  0
 10 11  1  0  0  0
 10 25  1  0  0  0
 10 26  1  0  0  0
 11 12  2  0  0  0
 12 13  1  0  0  0
 13 14  1  0  0  0
 13 18  2  0  0  0
 14 15  2  0  0  0
 14 27  1  0  0  0
 15 16  1  0  0  0
 15 28  1  0  0  0
 16 17  2  0  0  0
 16 29  1  0  0  0
 17 18  1  0  0  0
 17 30  1  0  0  0
 18 31  1  0  0  0
 19 32  1  0  0  0
 19 33  1  0  0  0
 19 34  1  0  0  0
 20 21  1  0  0  0
 20 35  1  0  0  0
 20 36  1  0  0  0
 21 37  1  0  0  0
 21 38  1  0  0  0
M  END
>  <Activity>
5

>  <set>
3

>  <Min_dist>
0.075

>  <Avg_dist>
0.451328

$$$$
RO07-4532
  Cerius2 12110214493D 1   1.00000                          
 
 39 41  0  0  0  0  0  0  0  0999 V2000
   -0.3894   -3.2105   -0.2688 C   0  0  0  0  0  0
   -1.4126   -2.4431    0.2658 C   0  0  0  0  0  0
   -1.2501   -1.0840    0.4111 C   0  0  0  0  0  0
   -0.0531   -0.4636    0.0211 C   0  0  0  0  0  0
    0.9728   -1.2376   -0.5170 C   0  0  0  0  0  0
    0.7908   -2.6152   -0.6556 C   0  0  0  0  0  0
    2.1858   -0.7105   -0.9337 N   0  0  0  0  0  0
    2.8675    0.2387   -0.2966 C   0  0  0  0  0  0
    3.9450    0.5855   -0.7322 O   0  0  0  0  0  0
    2.3361    0.8930    0.9494 C   0  0  0  0  0  0
    1.1030    1.6069    0.6203 N   0  0  0  0  0  0
    0.0523    0.9921    0.2067 C   0  0  0  0  0  0
   -1.1417    1.8111   -0.1073 C   0  0  0  0  0  0
   -2.1078    1.3304   -0.9909 C   0  0  0  0  0  0
   -3.2178    2.0976   -1.2791 C   0  0  0  0  0  0
   -3.3733    3.3416   -0.6939 C   0  0  0  0  0  0
   -2.4182    3.8240    0.1830 C   0  0  0  0  0  0
   -1.3069    3.0634    0.4839 C   0  0  0  0  0  0
    2.0433   -0.1758    2.0044 C   0  0  0  0  0  0
    3.3713    1.8809    1.4909 C   0  0  0  0  0  0
    2.7624   -1.2402   -2.1719 C   0  0  0  0  0  0
   -2.8993   -3.1962    0.7518 Cl  0  0  0  0  0  0
   -0.5162   -4.2774   -0.3781 H   0  0  0  0  0  0
   -2.0501   -0.4903    0.8280 H   0  0  0  0  0  0
    1.5834   -3.2199   -1.0708 H   0  0  0  0  0  0
   -1.9871    0.3598   -1.4489 H   0  0  0  0  0  0
   -3.9666    1.7265   -1.9632 H   0  0  0  0  0  0
   -4.2437    3.9386   -0.9228 H   0  0  0  0  0  0
   -2.5449    4.7960    0.6365 H   0  0  0  0  0  0
   -0.5621    3.4409    1.1688 H   0  0  0  0  0  0
    1.6584    0.2999    2.9064 H   0  0  0  0  0  0
    1.3018   -0.8747    1.6175 H   0  0  0  0  0  0
    2.9613   -0.7139    2.2408 H   0  0  0  0  0  0
    2.9847    2.3540    2.3936 H   0  0  0  0  0  0
    4.2932    1.3489    1.7258 H   0  0  0  0  0  0
    3.5735    2.6438    0.7390 H   0  0  0  0  0  0
    3.7083   -0.7385   -2.3760 H   0  0  0  0  0  0
    2.9351   -2.3110   -2.0633 H   0  0  0  0  0  0
    2.0728   -1.0654   -2.9978 H   0  0  0  0  0  0
  1  2  1  0  0  0
  1  6  2  0  0  0
  1 23  1  0  0  0
  2  3  2  0  0  0
  2 22  1  0  0  0
  3  4  1  0  0  0
  3 24  1  0  0  0
  4  5  2  0  0  0
  4 12  1  0  0  0
  5  6  1  0  0  0
  5  7  1  0  0  0
  6 25  1  0  0  0
  7  8  1  0  0  0
  7 21  1  0  0  0
  8  9  2  0  0  0
  8 10  1  0  0  0
 10 11  1  0  0  0
 10 19  1  0  0  0
 10 20  1  0  0  0
 11 12  2  0  0  0
 12 13  1  0  0  0
 13 14  1  0  0  0
 13 18  2  0  0  0
 14 15  2  0  0  0
 14 26  1  0  0  0
 15 16  1  0  0  0
 15 27  1  0  0  0
 16 17  2  0  0  0
 16 28  1  0  0  0
 17 18  1  0  0  0
 17 29  1  0  0  0
 18 30  1  0  0  0
 19 31  1  0  0  0
 19 32  1  0  0  0
 19 33  1  0  0  0
 20 34  1  0  0  0
 20 35  1  0  0  0
 20 36  1  0  0  0
 21 37  1  0  0  0
 21 38  1  0  0  0
 21 39  1  0  0  0
M  END
>  <Activity>
5

>  <set>
3

>  <Min_dist>
0.133333

>  <Avg_dist>
0.472036

$$$$
RO07-5096
  Cerius2 12110214493D 1   1.00000                          
 
 36 38  0  0  0  0  0  0  0  0999 V2000
    0.9337   -3.1773    0.2107 C   0  0  0  0  0  0
   -0.4352   -2.9599    0.2233 C   0  0  0  0  0  0
   -0.9281   -1.6824    0.3641 C   0  0  0  0  0  0
   -0.0546   -0.5919    0.4954 C   0  0  0  0  0  0
    1.3208   -0.8138    0.4815 C   0  0  0  0  0  0
    1.8028   -2.1166    0.3388 C   0  0  0  0  0  0
    2.2571    0.2022    0.5996 N   0  0  0  0  0  0
    2.1588    1.2422    1.4244 C   0  0  0  0  0  0
    3.0678    2.0434    1.4757 O   0  0  0  0  0  0
    0.9491    1.4500    2.2943 C   0  0  0  0  0  0
   -0.2186    1.6595    1.4393 N   0  0  0  0  0  0
   -0.6506    0.7451    0.6441 C   0  0  0  0  0  0
   -1.8358    1.0624   -0.1845 C   0  0  0  0  0  0
   -1.8997    0.6318   -1.5101 C   0  0  0  0  0  0
   -3.0065    0.9300   -2.2770 C   0  0  0  0  0  0
   -4.0538    1.6554   -1.7356 C   0  0  0  0  0  0
   -3.9989    2.0864   -0.4234 C   0  0  0  0  0  0
   -2.8978    1.7892    0.3590 C   0  0  0  0  0  0
   -2.8445    2.2103    1.6416 F   0  0  0  0  0  0
    3.4483    0.1245   -0.2497 C   0  0  0  0  0  0
    3.1840    0.8354   -1.5519 C   0  0  0  0  0  0
    2.1107    1.3538   -1.7502 O   0  0  0  0  0  0
    4.1408    0.8928   -2.4915 O   0  0  0  0  0  0
   -1.5282   -4.2988    0.0609 Cl  0  0  0  0  0  0
    1.3194   -4.1806    0.1048 H   0  0  0  0  0  0
   -1.9954   -1.5180    0.3732 H   0  0  0  0  0  0
    2.8680   -2.2943    0.3293 H   0  0  0  0  0  0
    0.7920    0.5696    2.9175 H   0  0  0  0  0  0
    1.1002    2.3248    2.9268 H   0  0  0  0  0  0
   -1.0836    0.0663   -1.9350 H   0  0  0  0  0  0
   -3.0561    0.5967   -3.3031 H   0  0  0  0  0  0
   -4.9176    1.8859   -2.3414 H   0  0  0  0  0  0
   -4.8190    2.6526   -0.0072 H   0  0  0  0  0  0
    4.2884    0.5977    0.2586 H   0  0  0  0  0  0
    3.6856   -0.9207   -0.4480 H   0  0  0  0  0  0
    3.9712    1.3489   -3.3271 H   0  0  0  0  0  0
  1  2  1  0  0  0
  1  6  2  0  0  0
  1 25  1  0  0  0
  2  3  2  0  0  0
  2 24  1  0  0  0
  3  4  1  0  0  0
  3 26  1  0  0  0
  4  5  2  0  0  0
  4 12  1  0  0  0
  5  6  1  0  0  0
  5  7  1  0  0  0
  6 27  1  0  0  0
  7  8  1  0  0  0
  7 20  1  0  0  0
  8  9  2  0  0  0
  8 10  1  0  0  0
 10 11  1  0  0  0
 10 28  1  0  0  0
 10 29  1  0  0  0
 11 12  2  0  0  0
 12 13  1  0  0  0
 13 14  1  0  0  0
 13 18  2  0  0  0
 14 15  2  0  0  0
 14 30  1  0  0  0
 15 16  1  0  0  0
 15 31  1  0  0  0
 16 17  2  0  0  0
 16 32  1  0  0  0
 17 18  1  0  0  0
 17 33  1  0  0  0
 18 19  1  0  0  0
 20 21  1  0  0  0
 20 34  1  0  0  0
 20 35  1  0  0  0
 21 22  2  0  0  0
 21 23  1  0  0  0
 23 36  1  0  0  0
M  END
>  <Activity>
5

>  <set>
3

>  <Min_dist>
0.073684

>  <Avg_dist>
0.457411

$$$$
RO14-2312
  Cerius2 12110214493D 1   1.00000                          
 
 35 37  0  0  0  0  0  0  0  0999 V2000
    2.8071   -1.3687    0.1882 C   0  0  0  0  0  0
    1.6673   -2.0604    0.5578 C   0  0  0  0  0  0
    0.4423   -1.4165    0.5703 C   0  0  0  0  0  0
    0.3483   -0.0563    0.2074 C   0  0  0  0  0  0
    1.5024    0.6312   -0.1646 C   0  0  0  0  0  0
    2.7267   -0.0377   -0.1688 C   0  0  0  0  0  0
    1.5053    1.9657   -0.5407 N   0  0  0  0  0  0
    0.7924    2.9271    0.0416 C   0  0  0  0  0  0
    0.9153    4.0701   -0.3448 O   0  0  0  0  0  0
   -0.1624    2.6327    1.1664 C   0  0  0  0  0  0
   -1.2239    1.7583    0.6693 N   0  0  0  0  0  0
   -0.9801    0.5677    0.2438 C   0  0  0  0  0  0
   -2.1259   -0.2322   -0.2467 C   0  0  0  0  0  0
   -1.9845   -1.0400   -1.3751 C   0  0  0  0  0  0
   -3.0549   -1.7830   -1.8270 C   0  0  0  0  0  0
   -4.2690   -1.7292   -1.1644 C   0  0  0  0  0  0
   -4.4182   -0.9316   -0.0455 C   0  0  0  0  0  0
   -3.3514   -0.1856    0.4219 C   0  0  0  0  0  0
   -3.4972    0.5936    1.5159 F   0  0  0  0  0  0
    2.3604    2.3476   -1.6672 C   0  0  0  0  0  0
   -0.7023   -2.1141    0.9421 N   0  0  0  0  0  0
    4.3444   -2.1753    0.1804 Cl  0  0  0  0  0  0
    1.7334   -3.1019    0.8359 H   0  0  0  0  0  0
    3.6229    0.4926   -0.4551 H   0  0  0  0  0  0
    0.3705    2.1355    1.9769 H   0  0  0  0  0  0
   -0.5967    3.5640    1.5298 H   0  0  0  0  0  0
   -1.0384   -1.0831   -1.8943 H   0  0  0  0  0  0
   -2.9456   -2.4085   -2.7007 H   0  0  0  0  0  0
   -5.1037   -2.3129   -1.5236 H   0  0  0  0  0  0
   -5.3682   -0.8937    0.4668 H   0  0  0  0  0  0
    2.2635    3.4177   -1.8504 H   0  0  0  0  0  0
    3.3983    2.1119   -1.4318 H   0  0  0  0  0  0
    2.0558    1.7975   -2.5575 H   0  0  0  0  0  0
   -0.7090   -3.0838    0.9164 H   0  0  0  0  0  0
   -1.4936   -1.6310    1.2271 H   0  0  0  0  0  0
  1  2  1  0  0  0
  1  6  2  0  0  0
  1 22  1  0  0  0
  2  3  2  0  0  0
  2 23  1  0  0  0
  3  4  1  0  0  0
  3 21  1  0  0  0
  4  5  2  0  0  0
  4 12  1  0  0  0
  5  6  1  0  0  0
  5  7  1  0  0  0
  6 24  1  0  0  0
  7  8  1  0  0  0
  7 20  1  0  0  0
  8  9  2  0  0  0
  8 10  1  0  0  0
 10 11  1  0  0  0
 10 25  1  0  0  0
 10 26  1  0  0  0
 11 12  2  0  0  0
 12 13  1  0  0  0
 13 14  1  0  0  0
 13 18  2  0  0  0
 14 15  2  0  0  0
 14 27  1  0  0  0
 15 16  1  0  0  0
 15 28  1  0  0  0
 16 17  2  0  0  0
 16 29  1  0  0  0
 17 18  1  0  0  0
 17 30  1  0  0  0
 18 19  1  0  0  0
 20 31  1  0  0  0
 20 32  1  0  0  0
 20 33  1  0  0  0
 21 34  1  0  0  0
 21 35  1  0  0  0
M  END
>  <Activity>
5

>  <set>
3

>  <Min_dist>
0.1

>  <Avg_dist>
0.457946

$$$$
RO14-7181
  Cerius2 12110214503D 1   1.00000                          
 
 35 38  0  0  0  0  0  0  0  0999 V2000
    1.7426    0.8796   -0.0129 C   0  0  0  0  0  0
    2.1749   -0.4419    0.0958 C   0  0  0  0  0  0
    3.5239   -0.7412   -0.1579 C   0  0  0  0  0  0
    4.4088    0.2549   -0.4988 C   0  0  0  0  0  0
    3.9758    1.5667   -0.5950 C   0  0  0  0  0  0
    2.6542    1.8768   -0.3547 C   0  0  0  0  0  0
    1.2953   -1.5539    0.4775 C   0  0  0  0  0  0
    1.7475   -2.3992    1.2252 O   0  0  0  0  0  0
    0.0332   -1.7043    0.0632 N   0  0  0  0  0  0
   -0.6996   -0.7819   -0.8212 C   0  0  0  0  0  0
   -0.6978    0.5734   -0.1674 C   0  0  0  0  0  0
    0.4164    1.2648    0.1909 N   0  0  0  0  0  0
   -0.0003    2.4241    0.7756 C   0  0  0  0  0  0
   -1.3015    2.4633    0.7603 N   0  0  0  0  0  0
   -1.7733    1.3295    0.1774 C   0  0  0  0  0  0
   -3.1888    0.9841   -0.0404 C   0  0  0  0  0  0
   -3.6719    1.0719   -1.1531 O   0  0  0  0  0  0
   -3.9484    0.5709    0.9934 N   0  0  0  0  0  0
   -2.1418   -1.3092   -0.9405 C   0  0  0  0  0  0
   -1.9730   -2.8240   -0.6457 C   0  0  0  0  0  0
   -0.8692   -2.8090    0.4398 C   0  0  0  0  0  0
    3.8690   -1.7619   -0.0842 H   0  0  0  0  0  0
    5.4437    0.0135   -0.6916 H   0  0  0  0  0  0
    4.6739    2.3474   -0.8585 H   0  0  0  0  0  0
    2.3226    2.9018   -0.4311 H   0  0  0  0  0  0
   -0.2202   -0.7320   -1.7988 H   0  0  0  0  0  0
    0.6451    3.1868    1.1855 H   0  0  0  0  0  0
   -4.8804    0.3435    0.8500 H   0  0  0  0  0  0
   -3.5631    0.5009    1.8808 H   0  0  0  0  0  0
   -2.7879   -0.8403   -0.1984 H   0  0  0  0  0  0
   -2.5293   -1.1518   -1.9471 H   0  0  0  0  0  0
   -2.8972   -3.2517   -0.2571 H   0  0  0  0  0  0
   -1.6397   -3.3601   -1.5343 H   0  0  0  0  0  0
   -0.3279   -3.7551    0.4412 H   0  0  0  0  0  0
   -1.3066   -2.6218    1.4205 H   0  0  0  0  0  0
  1  2  1  0  0  0
  1  6  2  0  0  0
  1 12  1  0  0  0
  2  3  2  0  0  0
  2  7  1  0  0  0
  3  4  1  0  0  0
  3 22  1  0  0  0
  4  5  2  0  0  0
  4 23  1  0  0  0
  5  6  1  0  0  0
  5 24  1  0  0  0
  6 25  1  0  0  0
  7  8  2  0  0  0
  7  9  1  0  0  0
  9 10  1  0  0  0
  9 21  1  0  0  0
 10 11  1  0  0  0
 10 19  1  0  0  0
 10 26  1  0  0  0
 11 12  1  0  0  0
 11 15  2  0  0  0
 12 13  1  0  0  0
 13 14  2  0  0  0
 13 27  1  0  0  0
 14 15  1  0  0  0
 15 16  1  0  0  0
 16 17  2  0  0  0
 16 18  1  0  0  0
 18 28  1  0  0  0
 18 29  1  0  0  0
 19 20  1  0  0  0
 19 30  1  0  0  0
 19 31  1  0  0  0
 20 21  1  0  0  0
 20 32  1  0  0  0
 20 33  1  0  0  0
 21 34  1  0  0  0
 21 35  1  0  0  0
M  END
>  <Activity>
5

>  <set>
3

>  <Min_dist>
0.223301

>  <Avg_dist>
0.572645

$$$$
RO15-1746
  Cerius2 12110214503D 1   1.00000                          
 
 36 38  0  0  0  0  0  0  0  0999 V2000
    1.5512    0.2320    0.1708 C   0  0  0  0  0  0
    1.9752   -1.0975    0.1127 C   0  0  0  0  0  0
    3.3367   -1.3658   -0.1097 C   0  0  0  0  0  0
    4.2388   -0.3375   -0.2455 C   0  0  0  0  0  0
    3.8137    0.9795   -0.1638 C   0  0  0  0  0  0
    2.4779    1.2615    0.0425 C   0  0  0  0  0  0
    4.9602    2.2735   -0.3213 Cl  0  0  0  0  0  0
    1.0778   -2.2382    0.3019 C   0  0  0  0  0  0
    1.5055   -3.1592    0.9706 O   0  0  0  0  0  0
   -0.1572   -2.3767   -0.1788 N   0  0  0  0  0  0
   -0.7725   -1.3490   -1.0258 C   0  0  0  0  0  0
   -0.8490   -0.0775   -0.2210 C   0  0  0  0  0  0
    0.2065    0.5778    0.3225 N   0  0  0  0  0  0
   -0.2847    1.6448    1.0116 C   0  0  0  0  0  0
   -1.5790    1.6779    0.8704 N   0  0  0  0  0  0
   -1.9691    0.6246    0.1040 C   0  0  0  0  0  0
   -3.3472    0.3035   -0.3004 C   0  0  0  0  0  0
   -3.5661   -0.6721   -0.9915 O   0  0  0  0  0  0
   -4.3667    1.0913    0.0956 O   0  0  0  0  0  0
   -5.7264    0.7745   -0.3033 C   0  0  0  0  0  0
   -6.6839    1.8184    0.2748 C   0  0  0  0  0  0
   -0.9191   -3.5851    0.1461 C   0  0  0  0  0  0
    3.6772   -2.3887   -0.1742 H   0  0  0  0  0  0
    5.2826   -0.5564   -0.4160 H   0  0  0  0  0  0
    2.1503    2.2886    0.1057 H   0  0  0  0  0  0
   -0.1617   -1.1879   -1.9140 H   0  0  0  0  0  0
   -1.7749   -1.6623   -1.3177 H   0  0  0  0  0  0
    0.3031    2.3485    1.5824 H   0  0  0  0  0  0
   -5.7965    0.7800   -1.3911 H   0  0  0  0  0  0
   -5.9948   -0.2126    0.0730 H   0  0  0  0  0  0
   -7.7046    1.5806   -0.0247 H   0  0  0  0  0  0
   -6.6138    1.8129    1.3625 H   0  0  0  0  0  0
   -6.4155    2.8056   -0.1016 H   0  0  0  0  0  0
   -0.3156   -4.2360    0.7787 H   0  0  0  0  0  0
   -1.8312   -3.3083    0.6749 H   0  0  0  0  0  0
   -1.1774   -4.1100   -0.7736 H   0  0  0  0  0  0
  1  2  1  0  0  0
  1  6  2  0  0  0
  1 13  1  0  0  0
  2  3  2  0  0  0
  2  8  1  0  0  0
  3  4  1  0  0  0
  3 23  1  0  0  0
  4  5  2  0  0  0
  4 24  1  0  0  0
  5  6  1  0  0  0
  5  7  1  0  0  0
  6 25  1  0  0  0
  8  9  2  0  0  0
  8 10  1  0  0  0
 10 11  1  0  0  0
 10 22  1  0  0  0
 11 12  1  0  0  0
 11 26  1  0  0  0
 11 27  1  0  0  0
 12 13  1  0  0  0
 12 16  2  0  0  0
 13 14  1  0  0  0
 14 15  2  0  0  0
 14 28  1  0  0  0
 15 16  1  0  0  0
 16 17  1  0  0  0
 17 18  2  0  0  0
 17 19  1  0  0  0
 19 20  1  0  0  0
 20 21  1  0  0  0
 20 29  1  0  0  0
 20 30  1  0  0  0
 21 31  1  0  0  0
 21 32  1  0  0  0
 21 33  1  0  0  0
 22 34  1  0  0  0
 22 35  1  0  0  0
 22 36  1  0  0  0
M  END
>  <Activity>
5

>  <set>
3

>  <Min_dist>
0.035714

>  <Avg_dist>
0.546653

$$$$
RO15-2427
  Cerius2 12110214503D 1   1.00000                          
 
 31 33  0  0  0  0  0  0  0  0999 V2000
    1.3917    0.9164    0.0203 C   0  0  0  0  0  0
    2.0153   -0.3328    0.0194 C   0  0  0  0  0  0
    3.3933   -0.4018   -0.2458 C   0  0  0  0  0  0
    4.1186    0.7433   -0.4784 C   0  0  0  0  0  0
    3.4964    1.9803   -0.4535 C   0  0  0  0  0  0
    2.1423    2.0662   -0.2061 C   0  0  0  0  0  0
    1.3135   -1.5843    0.3116 C   0  0  0  0  0  0
    1.9017   -2.3847    1.0126 O   0  0  0  0  0  0
    0.0998   -1.9409   -0.1073 N   0  0  0  0  0  0
   -0.6966   -1.0749   -0.9836 C   0  0  0  0  0  0
   -0.9431    0.2176   -0.2494 C   0  0  0  0  0  0
    0.0155    1.0604    0.2099 N   0  0  0  0  0  0
   -0.6125    2.0798    0.8584 C   0  0  0  0  0  0
   -1.9003    1.9039    0.7718 N   0  0  0  0  0  0
   -2.1466    0.7578    0.0832 C   0  0  0  0  0  0
   -3.4721    0.2035   -0.2430 C   0  0  0  0  0  0
   -3.5594   -0.8358   -0.8687 O   0  0  0  0  0  0
   -4.5879    0.8481    0.1519 N   0  0  0  0  0  0
   -0.4526   -3.2295    0.3174 C   0  0  0  0  0  0
    3.8872   -1.3620   -0.2670 H   0  0  0  0  0  0
    5.1774    0.6777   -0.6807 H   0  0  0  0  0  0
    4.0716    2.8776   -0.6276 H   0  0  0  0  0  0
    1.6610    3.0328   -0.1875 H   0  0  0  0  0  0
   -0.1487   -0.8776   -1.9050 H   0  0  0  0  0  0
   -1.6471   -1.5561   -1.2139 H   0  0  0  0  0  0
   -0.1230    2.9002    1.3622 H   0  0  0  0  0  0
   -5.4605    0.4832   -0.0628 H   0  0  0  0  0  0
   -4.5182    1.6770    0.6510 H   0  0  0  0  0  0
    0.2661   -3.7392    0.9592 H   0  0  0  0  0  0
   -1.3784   -3.0641    0.8684 H   0  0  0  0  0  0
   -0.6565   -3.8441   -0.5594 H   0  0  0  0  0  0
  1  2  1  0  0  0
  1  6  2  0  0  0
  1 12  1  0  0  0
  2  3  2  0  0  0
  2  7  1  0  0  0
  3  4  1  0  0  0
  3 20  1  0  0  0
  4  5  2  0  0  0
  4 21  1  0  0  0
  5  6  1  0  0  0
  5 22  1  0  0  0
  6 23  1  0  0  0
  7  8  2  0  0  0
  7  9  1  0  0  0
  9 10  1  0  0  0
  9 19  1  0  0  0
 10 11  1  0  0  0
 10 24  1  0  0  0
 10 25  1  0  0  0
 11 12  1  0  0  0
 11 15  2  0  0  0
 12 13  1  0  0  0
 13 14  2  0  0  0
 13 26  1  0  0  0
 14 15  1  0  0  0
 15 16  1  0  0  0
 16 17  2  0  0  0
 16 18  1  0  0  0
 18 27  1  0  0  0
 18 28  1  0  0  0
 19 29  1  0  0  0
 19 30  1  0  0  0
 19 31  1  0  0  0
M  END
>  <Activity>
5

>  <set>
3

>  <Min_dist>
0.216216

>  <Avg_dist>
0.576372

$$$$
RO15-3237
  Cerius2 12110214503D 1   1.00000                          
 
 36 38  0  0  0  0  0  0  0  0999 V2000
    1.8515    0.3648    0.0587 C   0  0  0  0  0  0
    2.4131   -0.9131    0.0477 C   0  0  0  0  0  0
    3.7896   -1.0461   -0.2017 C   0  0  0  0  0  0
    4.5735    0.0646   -0.4091 C   0  0  0  0  0  0
    4.0134    1.3305   -0.3744 C   0  0  0  0  0  0
    2.6611    1.4802   -0.1422 C   0  0  0  0  0  0
    1.9645    3.0697   -0.0998 Cl  0  0  0  0  0  0
    1.6472   -2.1325    0.3133 C   0  0  0  0  0  0
    2.1866   -2.9705    1.0096 O   0  0  0  0  0  0
    0.4228   -2.4229   -0.1250 N   0  0  0  0  0  0
   -0.3186   -1.5070   -0.9987 C   0  0  0  0  0  0
   -0.5108   -0.2139   -0.2494 C   0  0  0  0  0  0
    0.4814    0.5738    0.2337 N   0  0  0  0  0  0
   -0.1040    1.6145    0.8885 C   0  0  0  0  0  0
   -1.3976    1.5044    0.7833 N   0  0  0  0  0  0
   -1.6914    0.3808    0.0761 C   0  0  0  0  0  0
   -3.0367   -0.1027   -0.2733 C   0  0  0  0  0  0
   -3.1668   -1.1275   -0.9138 O   0  0  0  0  0  0
   -4.1246    0.5909    0.1169 O   0  0  0  0  0  0
   -5.4519    0.1139   -0.2279 C   0  0  0  0  0  0
   -6.5012    1.0771    0.3309 C   0  0  0  0  0  0
   -0.1979   -3.6882    0.2750 C   0  0  0  0  0  0
    4.2358   -2.0292   -0.2304 H   0  0  0  0  0  0
    5.6303   -0.0509   -0.5993 H   0  0  0  0  0  0
    4.6345    2.2004   -0.5290 H   0  0  0  0  0  0
    0.2502   -1.3246   -1.9105 H   0  0  0  0  0  0
   -1.2886   -1.9376   -1.2474 H   0  0  0  0  0  0
    0.4190    2.4026    1.4099 H   0  0  0  0  0  0
   -5.5486    0.0606   -1.3123 H   0  0  0  0  0  0
   -5.6042   -0.8772    0.1996 H   0  0  0  0  0  0
   -7.4976    0.7190    0.0721 H   0  0  0  0  0  0
   -6.4045    1.1304    1.4153 H   0  0  0  0  0  0
   -6.3489    2.0681   -0.0965 H   0  0  0  0  0  0
    0.4865   -4.2413    0.9183 H   0  0  0  0  0  0
   -1.1214   -3.4844    0.8171 H   0  0  0  0  0  0
   -0.4208   -4.2802   -0.6126 H   0  0  0  0  0  0
  1  2  1  0  0  0
  1  6  2  0  0  0
  1 13  1  0  0  0
  2  3  2  0  0  0
  2  8  1  0  0  0
  3  4  1  0  0  0
  3 23  1  0  0  0
  4  5  2  0  0  0
  4 24  1  0  0  0
  5  6  1  0  0  0
  5 25  1  0  0  0
  6  7  1  0  0  0
  8  9  2  0  0  0
  8 10  1  0  0  0
 10 11  1  0  0  0
 10 22  1  0  0  0
 11 12  1  0  0  0
 11 26  1  0  0  0
 11 27  1  0  0  0
 12 13  1  0  0  0
 12 16  2  0  0  0
 13 14  1  0  0  0
 14 15  2  0  0  0
 14 28  1  0  0  0
 15 16  1  0  0  0
 16 17  1  0  0  0
 17 18  2  0  0  0
 17 19  1  0  0  0
 19 20  1  0  0  0
 20 21  1  0  0  0
 20 29  1  0  0  0
 20 30  1  0  0  0
 21 31  1  0  0  0
 21 32  1  0  0  0
 21 33  1  0  0  0
 22 34  1  0  0  0
 22 35  1  0  0  0
 22 36  1  0  0  0
M  END
>  <Activity>
5

>  <set>
3

>  <Min_dist>
0.087719

>  <Avg_dist>
0.561153

$$$$
RO05-2181
  Cerius2 12110214503D 1   1.00000                          
 
 32 34  0  0  0  0  0  0  0  0999 V2000
    0.3252   -3.0827    0.2124 C   0  0  0  0  0  0
   -0.8189   -2.3544   -0.0649 C   0  0  0  0  0  0
   -0.7230   -0.9987   -0.2883 C   0  0  0  0  0  0
    0.5058   -0.3408   -0.2405 C   0  0  0  0  0  0
    1.6499   -1.0636    0.0229 C   0  0  0  0  0  0
    1.5409   -2.4443    0.2563 C   0  0  0  0  0  0
    2.9338   -0.5603    0.0660 N   0  0  0  0  0  0
    3.4427    0.6424   -0.0113 C   0  0  0  0  0  0
    4.6393    0.7390    0.1617 O   0  0  0  0  0  0
    2.7063    1.9012   -0.2893 C   0  0  0  0  0  0
    1.3872    1.9162    0.2965 N   0  0  0  0  0  0
    0.4640    1.1354   -0.4708 C   0  0  0  0  0  0
   -0.9297    1.6199   -0.1644 C   0  0  0  0  0  0
   -1.7263    2.1191   -1.1779 C   0  0  0  0  0  0
   -3.0048    2.5635   -0.8968 C   0  0  0  0  0  0
   -3.4868    2.5083    0.3976 C   0  0  0  0  0  0
   -2.6905    2.0082    1.4109 C   0  0  0  0  0  0
   -1.4137    1.5597    1.1291 C   0  0  0  0  0  0
   -2.3634   -3.1443   -0.1313 Cl  0  0  0  0  0  0
    0.2619   -4.1448    0.3975 H   0  0  0  0  0  0
   -1.6174   -0.4337   -0.5052 H   0  0  0  0  0  0
    2.4310   -3.0158    0.4743 H   0  0  0  0  0  0
    3.6069   -1.2496    0.1785 H   0  0  0  0  0  0
    3.2781    2.7389    0.1099 H   0  0  0  0  0  0
    2.6135    2.0236   -1.3684 H   0  0  0  0  0  0
    1.0629    2.8708    0.2563 H   0  0  0  0  0  0
    0.6581    1.3205   -1.5273 H   0  0  0  0  0  0
   -1.3497    2.1623   -2.1891 H   0  0  0  0  0  0
   -3.6269    2.9543   -1.6885 H   0  0  0  0  0  0
   -4.4853    2.8561    0.6173 H   0  0  0  0  0  0
   -3.0670    1.9653    2.4222 H   0  0  0  0  0  0
   -0.7915    1.1690    1.9208 H   0  0  0  0  0  0
  1  2  1  0  0  0
  1  6  2  0  0  0
  1 20  1  0  0  0
  2  3  2  0  0  0
  2 19  1  0  0  0
  3  4  1  0  0  0
  3 21  1  0  0  0
  4  5  2  0  0  0
  4 12  1  0  0  0
  5  6  1  0  0  0
  5  7  1  0  0  0
  6 22  1  0  0  0
  7  8  1  0  0  0
  7 23  1  0  0  0
  8  9  2  0  0  0
  8 10  1  0  0  0
 10 11  1  0  0  0
 10 24  1  0  0  0
 10 25  1  0  0  0
 11 12  1  0  0  0
 11 26  1  0  0  0
 12 13  1  0  0  0
 12 27  1  0  0  0
 13 14  1  0  0  0
 13 18  2  0  0  0
 14 15  2  0  0  0
 14 28  1  0  0  0
 15 16  1  0  0  0
 15 29  1  0  0  0
 16 17  2  0  0  0
 16 30  1  0  0  0
 17 18  1  0  0  0
 17 31  1  0  0  0
 18 32  1  0  0  0
M  END
>  <Activity>
5

>  <set>
3

>  <Min_dist>
0.228571

>  <Avg_dist>
0.500883

$$$$
RO05-2881
  Cerius2 12110214503D 1   1.00000                          
 
 35 37  0  0  0  0  0  0  0  0999 V2000
    0.9985   -2.9104   -0.2296 C   0  0  0  0  0  0
   -0.2922   -2.4998    0.0554 C   0  0  0  0  0  0
   -0.5927   -1.1522    0.1510 C   0  0  0  0  0  0
    0.3994   -0.2102   -0.0394 C   0  0  0  0  0  0
    1.6951   -0.6245   -0.3160 C   0  0  0  0  0  0
    1.9967   -1.9718   -0.4159 C   0  0  0  0  0  0
    2.6886    0.3567   -0.4777 N   0  0  0  0  0  0
    2.7368    1.3409    0.4452 C   0  0  0  0  0  0
    3.5133    2.2627    0.3095 O   0  0  0  0  0  0
    1.8283    1.2937    1.6387 C   0  0  0  0  0  0
    0.4981    1.8175    1.3267 N   0  0  0  0  0  0
    0.0867    1.2577    0.0361 C   0  0  0  0  0  0
   -1.3968    1.4572   -0.1393 C   0  0  0  0  0  0
   -1.9100    1.7668   -1.3849 C   0  0  0  0  0  0
   -3.2707    1.9498   -1.5458 C   0  0  0  0  0  0
   -4.1182    1.8227   -0.4612 C   0  0  0  0  0  0
   -3.6051    1.5122    0.7843 C   0  0  0  0  0  0
   -2.2448    1.3250    0.9443 C   0  0  0  0  0  0
    3.6309    0.3130   -1.5985 C   0  0  0  0  0  0
   -1.5412   -3.6818    0.2938 Cl  0  0  0  0  0  0
    1.2268   -3.9635   -0.3021 H   0  0  0  0  0  0
   -1.6016   -0.8376    0.3738 H   0  0  0  0  0  0
    3.0052   -2.2878   -0.6384 H   0  0  0  0  0  0
    1.7342    0.2606    1.9733 H   0  0  0  0  0  0
    2.2650    1.8876    2.4416 H   0  0  0  0  0  0
   -0.1314    1.4415    2.0198 H   0  0  0  0  0  0
    0.6138    1.7776   -0.7638 H   0  0  0  0  0  0
   -1.2478    1.8661   -2.2323 H   0  0  0  0  0  0
   -3.6716    2.1924   -2.5189 H   0  0  0  0  0  0
   -5.1812    1.9664   -0.5867 H   0  0  0  0  0  0
   -4.2672    1.4133    1.6318 H   0  0  0  0  0  0
   -1.8439    1.0824    1.9174 H   0  0  0  0  0  0
    4.3117    1.1618   -1.5342 H   0  0  0  0  0  0
    4.2018   -0.6146   -1.5572 H   0  0  0  0  0  0
    3.0804    0.3592   -2.5381 H   0  0  0  0  0  0
  1  2  1  0  0  0
  1  6  2  0  0  0
  1 21  1  0  0  0
  2  3  2  0  0  0
  2 20  1  0  0  0
  3  4  1  0  0  0
  3 22  1  0  0  0
  4  5  2  0  0  0
  4 12  1  0  0  0
  5  6  1  0  0  0
  5  7  1  0  0  0
  6 23  1  0  0  0
  7  8  1  0  0  0
  7 19  1  0  0  0
  8  9  2  0  0  0
  8 10  1  0  0  0
 10 11  1  0  0  0
 10 24  1  0  0  0
 10 25  1  0  0  0
 11 12  1  0  0  0
 11 26  1  0  0  0
 12 13  1  0  0  0
 12 27  1  0  0  0
 13 14  1  0  0  0
 13 18  2  0  0  0
 14 15  2  0  0  0
 14 28  1  0  0  0
 15 16  1  0  0  0
 15 29  1  0  0  0
 16 17  2  0  0  0
 16 30  1  0  0  0
 17 18  1  0  0  0
 17 31  1  0  0  0
 18 32  1  0  0  0
 19 33  1  0  0  0
 19 34  1  0  0  0
 19 35  1  0  0  0
M  END
>  <Activity>
5

>  <set>
3

>  <Min_dist>
0.222222

>  <Avg_dist>
0.501712

$$$$
RO05-3395
  Cerius2 12110214503D 1   1.00000                          
 
 32 34  0  0  0  0  0  0  0  0999 V2000
    1.4457   -3.2344    0.0734 C   0  0  0  0  0  0
    0.1044   -3.0343   -0.1996 C   0  0  0  0  0  0
   -0.3684   -1.7534   -0.3729 C   0  0  0  0  0  0
    0.4774   -0.6484   -0.2804 C   0  0  0  0  0  0
    1.8172   -0.8427   -0.0196 C   0  0  0  0  0  0
    2.2886   -2.1533    0.1625 C   0  0  0  0  0  0
    2.7767    0.1437    0.0673 N   0  0  0  0  0  0
    2.7445    1.4514    0.0343 C   0  0  0  0  0  0
    3.7936    2.0276    0.2304 O   0  0  0  0  0  0
    1.5541    2.3014   -0.2194 C   0  0  0  0  0  0
    0.3445    1.7501    0.3429 N   0  0  0  0  0  0
   -0.1704    0.6858   -0.4651 C   0  0  0  0  0  0
   -1.6408    0.5397   -0.1689 C   0  0  0  0  0  0
   -2.5690    0.7014   -1.1804 C   0  0  0  0  0  0
   -3.9178    0.5673   -0.9087 C   0  0  0  0  0  0
   -4.3383    0.2712    0.3744 C   0  0  0  0  0  0
   -3.4100    0.1085    1.3857 C   0  0  0  0  0  0
   -2.0610    0.2383    1.1131 C   0  0  0  0  0  0
    1.8270   -4.2341    0.2201 H   0  0  0  0  0  0
   -0.5667   -3.8770   -0.2766 H   0  0  0  0  0  0
   -1.4162   -1.6008   -0.5854 H   0  0  0  0  0  0
    3.3349   -2.3143    0.3765 H   0  0  0  0  0  0
    3.6733   -0.2096    0.1774 H   0  0  0  0  0  0
    1.7264    3.2865    0.2142 H   0  0  0  0  0  0
    1.4232    2.4112   -1.2959 H   0  0  0  0  0  0
   -0.3450    2.4866    0.3262 H   0  0  0  0  0  0
   -0.0666    0.9725   -1.5116 H   0  0  0  0  0  0
   -2.2405    0.9328   -2.1828 H   0  0  0  0  0  0
   -4.6430    0.6944   -1.6988 H   0  0  0  0  0  0
   -5.3920    0.1671    0.5869 H   0  0  0  0  0  0
   -3.7385   -0.1225    2.3883 H   0  0  0  0  0  0
   -1.3357    0.1113    1.9032 H   0  0  0  0  0  0
  1  2  1  0  0  0
  1  6  2  0  0  0
  1 19  1  0  0  0
  2  3  2  0  0  0
  2 20  1  0  0  0
  3  4  1  0  0  0
  3 21  1  0  0  0
  4  5  2  0  0  0
  4 12  1  0  0  0
  5  6  1  0  0  0
  5  7  1  0  0  0
  6 22  1  0  0  0
  7  8  1  0  0  0
  7 23  1  0  0  0
  8  9  2  0  0  0
  8 10  1  0  0  0
 10 11  1  0  0  0
 10 24  1  0  0  0
 10 25  1  0  0  0
 11 12  1  0  0  0
 11 26  1  0  0  0
 12 13  1  0  0  0
 12 27  1  0  0  0
 13 14  1  0  0  0
 13 18  2  0  0  0
 14 15  2  0  0  0
 14 28  1  0  0  0
 15 16  1  0  0  0
 15 29  1  0  0  0
 16 17  2  0  0  0
 16 30  1  0  0  0
 17 18  1  0  0  0
 17 31  1  0  0  0
 18 32  1  0  0  0
M  END
>  <Activity>
5

>  <set>
3

>  <Min_dist>
0.241935

>  <Avg_dist>
0.544064

$$$$
RO05-3636
  Cerius2 12110214503D 1   1.00000                          
 
 38 40  0  0  0  0  0  0  0  0999 V2000
    2.5236   -2.2287    0.0224 C   0  0  0  0  0  0
    1.1800   -2.4813    0.2385 C   0  0  0  0  0  0
    0.2533   -1.4567    0.1551 C   0  0  0  0  0  0
    0.6694   -0.1744   -0.1459 C   0  0  0  0  0  0
    2.0185    0.0782   -0.3530 C   0  0  0  0  0  0
    2.9464   -0.9459   -0.2741 C   0  0  0  0  0  0
    2.4147    1.3981   -0.6306 N   0  0  0  0  0  0
    1.9083    2.3706    0.1570 C   0  0  0  0  0  0
    2.1429    3.5348   -0.0893 O   0  0  0  0  0  0
    1.0544    2.0099    1.3373 C   0  0  0  0  0  0
   -0.3352    1.7711    0.9462 N   0  0  0  0  0  0
   -0.3253    0.9456   -0.2648 C   0  0  0  0  0  0
   -1.6997    0.3660   -0.4798 C   0  0  0  0  0  0
   -2.8185    1.0574   -0.0465 C   0  0  0  0  0  0
   -4.0804    0.5237   -0.2446 C   0  0  0  0  0  0
   -4.2222   -0.6983   -0.8747 C   0  0  0  0  0  0
   -3.1047   -1.3877   -1.3064 C   0  0  0  0  0  0
   -1.8442   -0.8528   -1.1145 C   0  0  0  0  0  0
   -2.6787    2.2516    0.5696 F   0  0  0  0  0  0
   -0.9384    0.9550    2.0084 C   0  0  0  0  0  0
    3.3372    1.7048   -1.7266 C   0  0  0  0  0  0
    0.6543   -4.0923    0.6155 Cl  0  0  0  0  0  0
    3.2420   -3.0323    0.0897 H   0  0  0  0  0  0
   -0.7939   -1.6596    0.3248 H   0  0  0  0  0  0
    3.9939   -0.7445   -0.4432 H   0  0  0  0  0  0
    1.4530    1.1082    1.8022 H   0  0  0  0  0  0
    1.0853    2.8247    2.0606 H   0  0  0  0  0  0
   -0.0626    1.5682   -1.1201 H   0  0  0  0  0  0
   -4.9537    1.0619    0.0932 H   0  0  0  0  0  0
   -5.2066   -1.1149   -1.0294 H   0  0  0  0  0  0
   -3.2164   -2.3429   -1.7979 H   0  0  0  0  0  0
   -0.9717   -1.3922   -1.4525 H   0  0  0  0  0  0
   -0.7765    1.4366    2.9728 H   0  0  0  0  0  0
   -2.0086    0.8557    1.8269 H   0  0  0  0  0  0
   -0.4775   -0.0328    2.0136 H   0  0  0  0  0  0
    3.5096    2.7804   -1.7661 H   0  0  0  0  0  0
    4.2838    1.1910   -1.5593 H   0  0  0  0  0  0
    2.9045    1.3714   -2.6698 H   0  0  0  0  0  0
  1  2  1  0  0  0
  1  6  2  0  0  0
  1 23  1  0  0  0
  2  3  2  0  0  0
  2 22  1  0  0  0
  3  4  1  0  0  0
  3 24  1  0  0  0
  4  5  2  0  0  0
  4 12  1  0  0  0
  5  6  1  0  0  0
  5  7  1  0  0  0
  6 25  1  0  0  0
  7  8  1  0  0  0
  7 21  1  0  0  0
  8  9  2  0  0  0
  8 10  1  0  0  0
 10 11  1  0  0  0
 10 26  1  0  0  0
 10 27  1  0  0  0
 11 12  1  0  0  0
 11 20  1  0  0  0
 12 13  1  0  0  0
 12 28  1  0  0  0
 13 14  1  0  0  0
 13 18  2  0  0  0
 14 15  2  0  0  0
 14 19  1  0  0  0
 15 16  1  0  0  0
 15 29  1  0  0  0
 16 17  2  0  0  0
 16 30  1  0  0  0
 17 18  1  0  0  0
 17 31  1  0  0  0
 18 32  1  0  0  0
 20 33  1  0  0  0
 20 34  1  0  0  0
 20 35  1  0  0  0
 21 36  1  0  0  0
 21 37  1  0  0  0
 21 38  1  0  0  0
M  END
>  <Activity>
5

>  <set>
3

>  <Min_dist>
0.297872

>  <Avg_dist>
0.543711

$$$$
