1-1
  Cerius2 12110214513D 1   1.00000                          
 
 39 41  0  0  0  0  0  0  0  0999 V2000
    3.4136    2.0813   -0.0331 C   0  0  0  0  0  0
    2.3682    1.2037   -0.0190 N   0  0  0  0  0  0
    1.1971    1.9199    0.0202 C   0  0  0  0  0  0
    1.5172    3.2444    0.0304 C   0  0  0  0  0  0
    2.9183    3.3376   -0.0034 C   0  0  0  0  0  0
   -0.1685    1.3543    0.0462 C   0  0  0  0  0  0
   -1.2590    2.1378   -0.3348 C   0  0  0  0  0  0
   -2.5308    1.6037   -0.3087 C   0  0  0  0  0  0
   -2.7265    0.2947    0.0944 C   0  0  0  0  0  0
   -1.6499   -0.4873    0.4733 C   0  0  0  0  0  0
   -0.3723    0.0327    0.4462 C   0  0  0  0  0  0
   -4.3543   -0.3792    0.1259 S   0  0  0  0  0  0
   -4.2555   -1.3952    1.1144 O   0  0  0  0  0  0
   -5.1683    0.7717    0.3046 O   0  0  0  0  0  0
   -4.5435   -1.0802   -1.5365 C   0  0  0  0  0  0
    2.4726   -0.1943   -0.0412 C   0  0  0  0  0  0
    3.0010   -0.8693    1.0508 C   0  0  0  0  0  0
    3.1031   -2.2464    1.0270 C   0  0  0  0  0  0
    2.6786   -2.9539   -0.0852 C   0  0  0  0  0  0
    2.1516   -2.2824   -1.1755 C   0  0  0  0  0  0
    2.0423   -0.9058   -1.1530 C   0  0  0  0  0  0
    2.7792   -4.3010   -0.1066 F   0  0  0  0  0  0
    4.8740    1.7110   -0.0691 C   0  0  0  0  0  0
    0.8218    4.0702    0.0591 H   0  0  0  0  0  0
    3.4960    4.2501   -0.0053 H   0  0  0  0  0  0
   -1.1076    3.1600   -0.6489 H   0  0  0  0  0  0
   -3.3755    2.2089   -0.6032 H   0  0  0  0  0  0
   -1.8095   -1.5084    0.7869 H   0  0  0  0  0  0
    0.4673   -0.5788    0.7419 H   0  0  0  0  0  0
   -5.5313   -1.5314   -1.6302 H   0  0  0  0  0  0
   -4.4332   -0.2898   -2.2788 H   0  0  0  0  0  0
   -3.7798   -1.8407   -1.6992 H   0  0  0  0  0  0
    3.3325   -0.3178    1.9182 H   0  0  0  0  0  0
    3.5145   -2.7718    1.8762 H   0  0  0  0  0  0
    1.8214   -2.8358   -2.0422 H   0  0  0  0  0  0
    1.6312   -0.3824   -2.0036 H   0  0  0  0  0  0
    5.2034    1.6322   -1.1052 H   0  0  0  0  0  0
    5.4563    2.4791    0.4399 H   0  0  0  0  0  0
    5.0186    0.7538    0.4319 H   0  0  0  0  0  0
  1  2  1  0  0  0
  1  5  2  0  0  0
  1 23  1  0  0  0
  2  3  1  0  0  0
  2 16  1  0  0  0
  3  4  2  0  0  0
  3  6  1  0  0  0
  4  5  1  0  0  0
  4 24  1  0  0  0
  5 25  1  0  0  0
  6  7  1  0  0  0
  6 11  2  0  0  0
  7  8  2  0  0  0
  7 26  1  0  0  0
  8  9  1  0  0  0
  8 27  1  0  0  0
  9 10  2  0  0  0
  9 12  1  0  0  0
 10 11  1  0  0  0
 10 28  1  0  0  0
 11 29  1  0  0  0
 12 13  2  0  0  0
 12 14  2  0  0  0
 12 15  1  0  0  0
 15 30  1  0  0  0
 15 31  1  0  0  0
 15 32  1  0  0  0
 16 17  1  0  0  0
 16 21  2  0  0  0
 17 18  2  0  0  0
 17 33  1  0  0  0
 18 19  1  0  0  0
 18 34  1  0  0  0
 19 20  2  0  0  0
 19 22  1  0  0  0
 20 21  1  0  0  0
 20 35  1  0  0  0
 21 36  1  0  0  0
 23 37  1  0  0  0
 23 38  1  0  0  0
 23 39  1  0  0  0
M  END
>  <Activity>
7.22185

>  <set>
1

>  <Min_dist>
999.9

>  <Avg_dist>
999.9

$$$$
1-3
  Cerius2 12110214513D 1   1.00000                          
 
 36 38  0  0  0  0  0  0  0  0999 V2000
   -1.2337    2.1092   -0.0309 N   0  0  0  0  0  0
   -2.4513    1.4754    0.0153 C   0  0  0  0  0  0
   -3.4208    2.4326    0.0227 C   0  0  0  0  0  0
   -2.7782    3.6813   -0.0202 C   0  0  0  0  0  0
   -1.4467    3.4579   -0.0523 C   0  0  0  0  0  0
   -2.6710    0.0138    0.0504 C   0  0  0  0  0  0
   -1.6625   -0.8352    0.5091 C   0  0  0  0  0  0
   -1.8727   -2.1980    0.5397 C   0  0  0  0  0  0
   -3.0825   -2.7247    0.1161 C   0  0  0  0  0  0
   -4.0870   -1.8864   -0.3406 C   0  0  0  0  0  0
   -3.8896   -0.5216   -0.3695 C   0  0  0  0  0  0
   -3.2832   -4.0603    0.1482 F   0  0  0  0  0  0
    0.0173    1.4779   -0.0473 C   0  0  0  0  0  0
    0.9594    1.7755    0.9281 C   0  0  0  0  0  0
    2.1916    1.1517    0.9092 C   0  0  0  0  0  0
    2.4873    0.2317   -0.0798 C   0  0  0  0  0  0
    1.5511   -0.0665   -1.0529 C   0  0  0  0  0  0
    0.3150    0.5494   -1.0358 C   0  0  0  0  0  0
    4.0603   -0.5620   -0.1005 S   0  0  0  0  0  0
    4.2309   -0.8874   -1.4732 O   0  0  0  0  0  0
    4.8956    0.3770    0.5625 O   0  0  0  0  0  0
    3.7885   -2.0444    0.9090 C   0  0  0  0  0  0
   -4.4868    2.2628    0.0554 H   0  0  0  0  0  0
   -3.2623    4.6467   -0.0269 H   0  0  0  0  0  0
   -0.6799    4.2176   -0.0884 H   0  0  0  0  0  0
   -0.7191   -0.4258    0.8390 H   0  0  0  0  0  0
   -1.0930   -2.8559    0.8940 H   0  0  0  0  0  0
   -5.0278   -2.3021   -0.6698 H   0  0  0  0  0  0
   -4.6732    0.1309   -0.7253 H   0  0  0  0  0  0
    0.7292    2.4943    1.7006 H   0  0  0  0  0  0
    2.9250    1.3831    1.6675 H   0  0  0  0  0  0
    1.7852   -0.7850   -1.8245 H   0  0  0  0  0  0
   -0.4159    0.3159   -1.7958 H   0  0  0  0  0  0
    4.7122   -2.6203    0.9650 H   0  0  0  0  0  0
    3.4828   -1.7494    1.9128 H   0  0  0  0  0  0
    3.0070   -2.6544    0.4558 H   0  0  0  0  0  0
  1  2  1  0  0  0
  1  5  1  0  0  0
  1 13  1  0  0  0
  2  3  2  0  0  0
  2  6  1  0  0  0
  3  4  1  0  0  0
  3 23  1  0  0  0
  4  5  2  0  0  0
  4 24  1  0  0  0
  5 25  1  0  0  0
  6  7  1  0  0  0
  6 11  2  0  0  0
  7  8  2  0  0  0
  7 26  1  0  0  0
  8  9  1  0  0  0
  8 27  1  0  0  0
  9 10  2  0  0  0
  9 12  1  0  0  0
 10 11  1  0  0  0
 10 28  1  0  0  0
 11 29  1  0  0  0
 13 14  1  0  0  0
 13 18  2  0  0  0
 14 15  2  0  0  0
 14 30  1  0  0  0
 15 16  1  0  0  0
 15 31  1  0  0  0
 16 17  2  0  0  0
 16 19  1  0  0  0
 17 18  1  0  0  0
 17 32  1  0  0  0
 18 33  1  0  0  0
 19 20  2  0  0  0
 19 21  2  0  0  0
 19 22  1  0  0  0
 22 34  1  0  0  0
 22 35  1  0  0  0
 22 36  1  0  0  0
M  END
>  <Activity>
6.29243

>  <set>
1

>  <Min_dist>
999.9

>  <Avg_dist>
999.9

$$$$
1-5
  Cerius2 12110214513D 1   1.00000                          
 
 39 41  0  0  0  0  0  0  0  0999 V2000
    2.6104    0.7035   -0.0057 N   0  0  0  0  0  0
    1.5064    1.5191   -0.0549 C   0  0  0  0  0  0
    1.9419    2.8085   -0.1212 C   0  0  0  0  0  0
    3.3463    2.7781   -0.1122 C   0  0  0  0  0  0
    3.7294    1.4848   -0.0414 C   0  0  0  0  0  0
    5.1518    0.9882   -0.0071 C   0  0  0  0  0  0
    0.0959    1.0766   -0.0391 C   0  0  0  0  0  0
   -0.8550    1.7919    0.6903 C   0  0  0  0  0  0
   -2.1697    1.3738    0.7004 C   0  0  0  0  0  0
   -2.5462    0.2479   -0.0100 C   0  0  0  0  0  0
   -1.6085   -0.4658   -0.7352 C   0  0  0  0  0  0
   -0.2916   -0.0551   -0.7583 C   0  0  0  0  0  0
   -4.2272   -0.2799    0.0092 S   0  0  0  0  0  0
   -4.1223   -1.6747   -0.2415 O   0  0  0  0  0  0
   -4.7037    0.2312    1.2464 O   0  0  0  0  0  0
   -4.9527    0.6000   -1.4015 C   0  0  0  0  0  0
    2.5914   -0.6954    0.0738 C   0  0  0  0  0  0
    3.1853   -1.4570   -0.9236 C   0  0  0  0  0  0
    3.1649   -2.8356   -0.8425 C   0  0  0  0  0  0
    2.5538   -3.4575    0.2309 C   0  0  0  0  0  0
    1.9611   -2.7017    1.2256 C   0  0  0  0  0  0
    1.9836   -1.3226    1.1532 C   0  0  0  0  0  0
    1.3217    3.6912   -0.1719 H   0  0  0  0  0  0
    4.0021    3.6351   -0.1547 H   0  0  0  0  0  0
    5.4892    0.9234    1.0273 H   0  0  0  0  0  0
    5.2036    0.0021   -0.4687 H   0  0  0  0  0  0
    5.7915    1.6800   -0.5552 H   0  0  0  0  0  0
   -0.5623    2.6706    1.2459 H   0  0  0  0  0  0
   -2.9065    1.9264    1.2644 H   0  0  0  0  0  0
   -1.9089   -1.3438   -1.2876 H   0  0  0  0  0  0
    0.4393   -0.6128   -1.3250 H   0  0  0  0  0  0
   -6.0088    0.3435   -1.4855 H   0  0  0  0  0  0
   -4.8508    1.6747   -1.2508 H   0  0  0  0  0  0
   -4.4346    0.3105   -2.3157 H   0  0  0  0  0  0
    3.6624   -0.9719   -1.7624 H   0  0  0  0  0  0
    3.6264   -3.4286   -1.6182 H   0  0  0  0  0  0
    2.5391   -4.5356    0.2921 H   0  0  0  0  0  0
    1.4843   -3.1902    2.0625 H   0  0  0  0  0  0
    1.5208   -0.7328    1.9306 H   0  0  0  0  0  0
  1  2  1  0  0  0
  1  5  1  0  0  0
  1 17  1  0  0  0
  2  3  2  0  0  0
  2  7  1  0  0  0
  3  4  1  0  0  0
  3 23  1  0  0  0
  4  5  2  0  0  0
  4 24  1  0  0  0
  5  6  1  0  0  0
  6 25  1  0  0  0
  6 26  1  0  0  0
  6 27  1  0  0  0
  7  8  1  0  0  0
  7 12  2  0  0  0
  8  9  2  0  0  0
  8 28  1  0  0  0
  9 10  1  0  0  0
  9 29  1  0  0  0
 10 11  2  0  0  0
 10 13  1  0  0  0
 11 12  1  0  0  0
 11 30  1  0  0  0
 12 31  1  0  0  0
 13 14  2  0  0  0
 13 15  2  0  0  0
 13 16  1  0  0  0
 16 32  1  0  0  0
 16 33  1  0  0  0
 16 34  1  0  0  0
 17 18  1  0  0  0
 17 22  2  0  0  0
 18 19  2  0  0  0
 18 35  1  0  0  0
 19 20  1  0  0  0
 19 36  1  0  0  0
 20 21  2  0  0  0
 20 37  1  0  0  0
 21 22  1  0  0  0
 21 38  1  0  0  0
 22 39  1  0  0  0
M  END
>  <Activity>
7.22185

>  <set>
1

>  <Min_dist>
999.9

>  <Avg_dist>
999.9

$$$$
1-6
  Cerius2 12110214513D 1   1.00000                          
 
 42 44  0  0  0  0  0  0  0  0999 V2000
    1.1793    2.4569   -0.0065 N   0  0  0  0  0  0
   -0.1741    2.6908   -0.0161 C   0  0  0  0  0  0
   -0.3650    4.0399   -0.0301 C   0  0  0  0  0  0
    0.9036    4.6432   -0.0290 C   0  0  0  0  0  0
    1.8277    3.6583   -0.0146 C   0  0  0  0  0  0
    3.3221    3.8527   -0.0079 C   0  0  0  0  0  0
   -1.2353    1.6616   -0.0123 C   0  0  0  0  0  0
   -2.3890    1.8471    0.7511 C   0  0  0  0  0  0
   -3.3757    0.8830    0.7498 C   0  0  0  0  0  0
   -3.2234   -0.2661   -0.0057 C   0  0  0  0  0  0
   -2.0822   -0.4562   -0.7646 C   0  0  0  0  0  0
   -1.0905    0.5028   -0.7767 C   0  0  0  0  0  0
   -4.4879   -1.4930   -0.0008 S   0  0  0  0  0  0
   -3.7743   -2.6822   -0.3105 O   0  0  0  0  0  0
   -5.1144   -1.2947    1.2591 O   0  0  0  0  0  0
   -5.5636   -0.9834   -1.3697 C   0  0  0  0  0  0
    1.7918    1.1967    0.0142 C   0  0  0  0  0  0
    2.6410    0.8190   -1.0173 C   0  0  0  0  0  0
    3.2431   -0.4238   -0.9942 C   0  0  0  0  0  0
    3.0010   -1.2915    0.0549 C   0  0  0  0  0  0
    2.1554   -0.9184    1.0834 C   0  0  0  0  0  0
    1.5551    0.3255    1.0690 C   0  0  0  0  0  0
    3.6596   -2.6468    0.0771 C   0  0  0  0  0  0
    3.2650   -3.3383    1.2274 F   0  0  0  0  0  0
    3.2755   -3.3706   -1.0569 F   0  0  0  0  0  0
    5.0497   -2.4897    0.0813 F   0  0  0  0  0  0
   -1.3163    4.5511   -0.0407 H   0  0  0  0  0  0
    1.1040    5.7044   -0.0385 H   0  0  0  0  0  0
    3.6765    3.9097    1.0213 H   0  0  0  0  0  0
    3.8001    3.0120   -0.5108 H   0  0  0  0  0  0
    3.5705    4.7771   -0.5294 H   0  0  0  0  0  0
   -2.5088    2.7433    1.3418 H   0  0  0  0  0  0
   -4.2689    1.0253    1.3400 H   0  0  0  0  0  0
   -1.9695   -1.3554   -1.3521 H   0  0  0  0  0  0
   -0.2004    0.3533   -1.3698 H   0  0  0  0  0  0
   -6.3939   -1.6838   -1.4595 H   0  0  0  0  0  0
   -5.9511    0.0165   -1.1743 H   0  0  0  0  0  0
   -4.9920   -0.9766   -2.2978 H   0  0  0  0  0  0
    2.8302    1.4961   -1.8371 H   0  0  0  0  0  0
    3.9035   -0.7183   -1.7964 H   0  0  0  0  0  0
    1.9679   -1.5984    1.9012 H   0  0  0  0  0  0
    0.8950    0.6165    1.8727 H   0  0  0  0  0  0
  1  2  1  0  0  0
  1  5  1  0  0  0
  1 17  1  0  0  0
  2  3  2  0  0  0
  2  7  1  0  0  0
  3  4  1  0  0  0
  3 27  1  0  0  0
  4  5  2  0  0  0
  4 28  1  0  0  0
  5  6  1  0  0  0
  6 29  1  0  0  0
  6 30  1  0  0  0
  6 31  1  0  0  0
  7  8  1  0  0  0
  7 12  2  0  0  0
  8  9  2  0  0  0
  8 32  1  0  0  0
  9 10  1  0  0  0
  9 33  1  0  0  0
 10 11  2  0  0  0
 10 13  1  0  0  0
 11 12  1  0  0  0
 11 34  1  0  0  0
 12 35  1  0  0  0
 13 14  2  0  0  0
 13 15  2  0  0  0
 13 16  1  0  0  0
 16 36  1  0  0  0
 16 37  1  0  0  0
 16 38  1  0  0  0
 17 18  1  0  0  0
 17 22  2  0  0  0
 18 19  2  0  0  0
 18 39  1  0  0  0
 19 20  1  0  0  0
 19 40  1  0  0  0
 20 21  2  0  0  0
 20 23  1  0  0  0
 21 22  1  0  0  0
 21 41  1  0  0  0
 22 42  1  0  0  0
 23 24  1  0  0  0
 23 25  1  0  0  0
 23 26  1  0  0  0
M  END
>  <Activity>
7.09691

>  <set>
1

>  <Min_dist>
999.9

>  <Avg_dist>
999.9

$$$$
1-9
  Cerius2 12110214513D 1   1.00000                          
 
 39 41  0  0  0  0  0  0  0  0999 V2000
    2.0252    1.5557    0.0616 N   0  0  0  0  0  0
    0.7895    2.1427   -0.0589 C   0  0  0  0  0  0
    0.9758    3.4865   -0.1868 C   0  0  0  0  0  0
    2.3595    3.7242   -0.1432 C   0  0  0  0  0  0
    2.9771    2.5326    0.0087 C   0  0  0  0  0  0
    4.4657    2.3179    0.1041 C   0  0  0  0  0  0
   -0.5118    1.4413   -0.0512 C   0  0  0  0  0  0
   -1.6045    1.9986    0.6147 C   0  0  0  0  0  0
   -2.8161    1.3389    0.6181 C   0  0  0  0  0  0
   -2.9494    0.1273   -0.0366 C   0  0  0  0  0  0
   -1.8701   -0.4307   -0.6986 C   0  0  0  0  0  0
   -0.6545    0.2216   -0.7146 C   0  0  0  0  0  0
   -4.5002   -0.7090   -0.0269 S   0  0  0  0  0  0
   -4.1256   -2.0693   -0.1964 O   0  0  0  0  0  0
   -5.1058   -0.2359    1.1683 O   0  0  0  0  0  0
   -5.3312   -0.0559   -1.5012 C   0  0  0  0  0  0
    2.2680    0.1837    0.2188 C   0  0  0  0  0  0
    3.0282   -0.4995   -0.7208 C   0  0  0  0  0  0
    3.2663   -1.8525   -0.5639 C   0  0  0  0  0  0
    2.7458   -2.5258    0.5315 C   0  0  0  0  0  0
    1.9880   -1.8447    1.4680 C   0  0  0  0  0  0
    1.7532   -0.4915    1.3168 C   0  0  0  0  0  0
    2.9784   -3.8479    0.6841 F   0  0  0  0  0  0
    4.0055   -2.5188   -1.4776 F   0  0  0  0  0  0
    0.2022    4.2314   -0.3008 H   0  0  0  0  0  0
    2.8429    4.6871   -0.2183 H   0  0  0  0  0  0
    4.7742    2.3706    1.1481 H   0  0  0  0  0  0
    4.7181    1.3377   -0.3004 H   0  0  0  0  0  0
    4.9815    3.0902   -0.4666 H   0  0  0  0  0  0
   -1.5017    2.9441    1.1264 H   0  0  0  0  0  0
   -3.6624    1.7689    1.1332 H   0  0  0  0  0  0
   -1.9807   -1.3767   -1.2077 H   0  0  0  0  0  0
    0.1872   -0.2150   -1.2316 H   0  0  0  0  0  0
   -6.3164   -0.5126   -1.5952 H   0  0  0  0  0  0
   -5.4390    1.0248   -1.4087 H   0  0  0  0  0  0
   -4.7375   -0.2874   -2.3855 H   0  0  0  0  0  0
    3.4329    0.0252   -1.5736 H   0  0  0  0  0  0
    1.5835   -2.3705    2.3203 H   0  0  0  0  0  0
    1.1617    0.0390    2.0483 H   0  0  0  0  0  0
  1  2  1  0  0  0
  1  5  1  0  0  0
  1 17  1  0  0  0
  2  3  2  0  0  0
  2  7  1  0  0  0
  3  4  1  0  0  0
  3 25  1  0  0  0
  4  5  2  0  0  0
  4 26  1  0  0  0
  5  6  1  0  0  0
  6 27  1  0  0  0
  6 28  1  0  0  0
  6 29  1  0  0  0
  7  8  1  0  0  0
  7 12  2  0  0  0
  8  9  2  0  0  0
  8 30  1  0  0  0
  9 10  1  0  0  0
  9 31  1  0  0  0
 10 11  2  0  0  0
 10 13  1  0  0  0
 11 12  1  0  0  0
 11 32  1  0  0  0
 12 33  1  0  0  0
 13 14  2  0  0  0
 13 15  2  0  0  0
 13 16  1  0  0  0
 16 34  1  0  0  0
 16 35  1  0  0  0
 16 36  1  0  0  0
 17 18  1  0  0  0
 17 22  2  0  0  0
 18 19  2  0  0  0
 18 37  1  0  0  0
 19 20  1  0  0  0
 19 24  1  0  0  0
 20 21  2  0  0  0
 20 23  1  0  0  0
 21 22  1  0  0  0
 21 38  1  0  0  0
 22 39  1  0  0  0
M  END
>  <Activity>
6.60206

>  <set>
1

>  <Min_dist>
999.9

>  <Avg_dist>
999.9

$$$$
1-28
  Cerius2 12110214513D 1   1.00000                          
 
 44 46  0  0  0  0  0  0  0  0999 V2000
    1.1715    1.1297   -0.0275 N   0  0  0  0  0  0
    0.7454   -0.1768   -0.0071 C   0  0  0  0  0  0
    1.8314   -0.9911    0.0096 C   0  0  0  0  0  0
    3.0051   -0.1128   -0.0015 C   0  0  0  0  0  0
    2.5169    1.1820   -0.0244 C   0  0  0  0  0  0
    3.3500    2.4377   -0.0428 C   0  0  0  0  0  0
    4.4113   -0.5230    0.0098 C   0  0  0  0  0  0
    5.2881    0.3158   -0.0011 O   0  0  0  0  0  0
    4.7690   -1.9867    0.0351 C   0  0  0  0  0  0
    6.1610   -2.1265    0.0420 F   0  0  0  0  0  0
    4.2354   -2.5774    1.1855 F   0  0  0  0  0  0
    4.2429   -2.6150   -1.0987 F   0  0  0  0  0  0
   -0.6648   -0.6224   -0.0035 C   0  0  0  0  0  0
   -1.0513   -1.7311   -0.7576 C   0  0  0  0  0  0
   -2.3685   -2.1417   -0.7499 C   0  0  0  0  0  0
   -3.3053   -1.4567    0.0033 C   0  0  0  0  0  0
   -2.9287   -0.3565    0.7528 C   0  0  0  0  0  0
   -1.6135    0.0606    0.7586 C   0  0  0  0  0  0
   -4.9854   -1.9876    0.0076 S   0  0  0  0  0  0
   -5.6925   -0.7928    0.3106 O   0  0  0  0  0  0
   -5.1121   -2.6425   -1.2471 O   0  0  0  0  0  0
   -5.0429   -3.1660    1.3856 C   0  0  0  0  0  0
    0.3263    2.2477   -0.0539 C   0  0  0  0  0  0
    0.3790    3.1831    0.9707 C   0  0  0  0  0  0
   -0.4542    4.2842    0.9427 C   0  0  0  0  0  0
   -1.3417    4.4556   -0.1065 C   0  0  0  0  0  0
   -1.3960    3.5233   -1.1291 C   0  0  0  0  0  0
   -0.5604    2.4239   -1.1076 C   0  0  0  0  0  0
   -2.1559    5.5333   -0.1321 F   0  0  0  0  0  0
    1.8309   -2.0710    0.0278 H   0  0  0  0  0  0
    3.5542    2.7232   -1.0747 H   0  0  0  0  0  0
    2.8075    3.2409    0.4558 H   0  0  0  0  0  0
    4.2907    2.2572    0.4773 H   0  0  0  0  0  0
   -0.3210   -2.2664   -1.3463 H   0  0  0  0  0  0
   -2.6689   -2.9994   -1.3334 H   0  0  0  0  0  0
   -3.6649    0.1744    1.3382 H   0  0  0  0  0  0
   -1.3208    0.9196    1.3441 H   0  0  0  0  0  0
   -6.0532   -3.5638    1.4815 H   0  0  0  0  0  0
   -4.3473   -3.9831    1.1941 H   0  0  0  0  0  0
   -4.7628   -2.6592    2.3090 H   0  0  0  0  0  0
    1.0708    3.0497    1.7892 H   0  0  0  0  0  0
   -0.4138    5.0119    1.7397 H   0  0  0  0  0  0
   -2.0890    3.6585   -1.9463 H   0  0  0  0  0  0
   -0.6028    1.6973   -1.9055 H   0  0  0  0  0  0
  1  2  1  0  0  0
  1  5  1  0  0  0
  1 23  1  0  0  0
  2  3  2  0  0  0
  2 13  1  0  0  0
  3  4  1  0  0  0
  3 30  1  0  0  0
  4  5  2  0  0  0
  4  7  1  0  0  0
  5  6  1  0  0  0
  6 31  1  0  0  0
  6 32  1  0  0  0
  6 33  1  0  0  0
  7  8  2  0  0  0
  7  9  1  0  0  0
  9 10  1  0  0  0
  9 11  1  0  0  0
  9 12  1  0  0  0
 13 14  1  0  0  0
 13 18  2  0  0  0
 14 15  2  0  0  0
 14 34  1  0  0  0
 15 16  1  0  0  0
 15 35  1  0  0  0
 16 17  2  0  0  0
 16 19  1  0  0  0
 17 18  1  0  0  0
 17 36  1  0  0  0
 18 37  1  0  0  0
 19 20  2  0  0  0
 19 21  2  0  0  0
 19 22  1  0  0  0
 22 38  1  0  0  0
 22 39  1  0  0  0
 22 40  1  0  0  0
 23 24  1  0  0  0
 23 28  2  0  0  0
 24 25  2  0  0  0
 24 41  1  0  0  0
 25 26  1  0  0  0
 25 42  1  0  0  0
 26 27  2  0  0  0
 26 29  1  0  0  0
 27 28  1  0  0  0
 27 43  1  0  0  0
 28 44  1  0  0  0
M  END
>  <Activity>
6.92082

>  <set>
1

>  <Min_dist>
999.9

>  <Avg_dist>
999.9

$$$$
1-29
  Cerius2 12110214513D 1   1.00000                          
 
 44 46  0  0  0  0  0  0  0  0999 V2000
    2.0326    0.0762   -0.0167 N   0  0  0  0  0  0
    1.1810   -1.0023    0.0076 C   0  0  0  0  0  0
    1.9185   -2.1418    0.0324 C   0  0  0  0  0  0
    3.3235   -1.7235    0.0225 C   0  0  0  0  0  0
    3.3131   -0.3399   -0.0081 C   0  0  0  0  0  0
    4.5290    0.5502   -0.0283 C   0  0  0  0  0  0
    4.5011   -2.5945    0.0415 C   0  0  0  0  0  0
    5.6138   -2.1107    0.0307 O   0  0  0  0  0  0
    4.3306   -4.0915    0.0746 C   0  0  0  0  0  0
   -0.2963   -0.9329    0.0072 C   0  0  0  0  0  0
   -1.0404   -1.8437   -0.7438 C   0  0  0  0  0  0
   -2.4183   -1.7735   -0.7399 C   0  0  0  0  0  0
   -3.0624   -0.8027    0.0064 C   0  0  0  0  0  0
   -2.3304    0.1036    0.7527 C   0  0  0  0  0  0
   -0.9522    0.0402    0.7623 C   0  0  0  0  0  0
   -4.8224   -0.7200    0.0059 S   0  0  0  0  0  0
   -5.0736    0.6473    0.3007 O   0  0  0  0  0  0
   -5.1646   -1.2976   -1.2465 O   0  0  0  0  0  0
   -5.2872   -1.7982    1.3886 C   0  0  0  0  0  0
    1.6262    1.4172   -0.0514 C   0  0  0  0  0  0
    1.9965    2.2825    0.9693 C   0  0  0  0  0  0
    1.5955    3.6035    0.9331 C   0  0  0  0  0  0
    0.8246    4.0654   -0.1206 C   0  0  0  0  0  0
    0.4539    3.2038   -1.1394 C   0  0  0  0  0  0
    0.8577    1.8834   -1.1096 C   0  0  0  0  0  0
    0.4333    5.3580   -0.1543 F   0  0  0  0  0  0
    1.5446   -3.1547    0.0552 H   0  0  0  0  0  0
    4.8219    0.7418   -1.0606 H   0  0  0  0  0  0
    4.2965    1.4942    0.4645 H   0  0  0  0  0  0
    5.3481    0.0585    0.4965 H   0  0  0  0  0  0
    5.3106   -4.5686    0.0850 H   0  0  0  0  0  0
    3.7791   -4.3746    0.9711 H   0  0  0  0  0  0
    3.7789   -4.4139   -0.8084 H   0  0  0  0  0  0
   -0.5388   -2.6017   -1.3271 H   0  0  0  0  0  0
   -2.9953   -2.4776   -1.3210 H   0  0  0  0  0  0
   -2.8391    0.8594    1.3327 H   0  0  0  0  0  0
   -0.3820    0.7482    1.3453 H   0  0  0  0  0  0
   -6.3730   -1.8217    1.4820 H   0  0  0  0  0  0
   -4.9166   -2.8064    1.2037 H   0  0  0  0  0  0
   -4.8514   -1.4144    2.3110 H   0  0  0  0  0  0
    2.5974    1.9225    1.7914 H   0  0  0  0  0  0
    1.8830    4.2767    1.7271 H   0  0  0  0  0  0
   -0.1477    3.5657   -1.9601 H   0  0  0  0  0  0
    0.5687    1.2119   -1.9045 H   0  0  0  0  0  0
  1  2  1  0  0  0
  1  5  1  0  0  0
  1 20  1  0  0  0
  2  3  2  0  0  0
  2 10  1  0  0  0
  3  4  1  0  0  0
  3 27  1  0  0  0
  4  5  2  0  0  0
  4  7  1  0  0  0
  5  6  1  0  0  0
  6 28  1  0  0  0
  6 29  1  0  0  0
  6 30  1  0  0  0
  7  8  2  0  0  0
  7  9  1  0  0  0
  9 31  1  0  0  0
  9 32  1  0  0  0
  9 33  1  0  0  0
 10 11  1  0  0  0
 10 15  2  0  0  0
 11 12  2  0  0  0
 11 34  1  0  0  0
 12 13  1  0  0  0
 12 35  1  0  0  0
 13 14  2  0  0  0
 13 16  1  0  0  0
 14 15  1  0  0  0
 14 36  1  0  0  0
 15 37  1  0  0  0
 16 17  2  0  0  0
 16 18  2  0  0  0
 16 19  1  0  0  0
 19 38  1  0  0  0
 19 39  1  0  0  0
 19 40  1  0  0  0
 20 21  1  0  0  0
 20 25  2  0  0  0
 21 22  2  0  0  0
 21 41  1  0  0  0
 22 23  1  0  0  0
 22 42  1  0  0  0
 23 24  2  0  0  0
 23 26  1  0  0  0
 24 25  1  0  0  0
 24 43  1  0  0  0
 25 44  1  0  0  0
M  END
>  <Activity>
5.79317

>  <set>
1

>  <Min_dist>
999.9

>  <Avg_dist>
999.9

$$$$
1-38
  Cerius2 12110214513D 1   1.00000                          
 
 43 45  0  0  0  0  0  0  0  0999 V2000
    2.2198   -0.1954   -0.0145 N   0  0  0  0  0  0
    1.2633   -1.1807    0.0092 C   0  0  0  0  0  0
    1.9029   -2.3837    0.0341 C   0  0  0  0  0  0
    3.2835   -2.1250    0.0255 C   0  0  0  0  0  0
    3.4508   -0.7850   -0.0042 C   0  0  0  0  0  0
    4.7734   -0.0628   -0.0233 C   0  0  0  0  0  0
    4.3811   -3.1574    0.0465 C   0  0  0  0  0  0
    3.8049   -4.4647    0.0765 O   0  0  0  0  0  0
   -0.2003   -0.9730    0.0077 C   0  0  0  0  0  0
   -1.0264   -1.8104   -0.7438 C   0  0  0  0  0  0
   -2.3915   -1.6111   -0.7407 C   0  0  0  0  0  0
   -2.9421   -0.5840    0.0050 C   0  0  0  0  0  0
   -2.1289    0.2496    0.7522 C   0  0  0  0  0  0
   -0.7628    0.0576    0.7624 C   0  0  0  0  0  0
   -4.6866   -0.3361    0.0028 S   0  0  0  0  0  0
   -4.8083    1.0487    0.2974 O   0  0  0  0  0  0
   -5.0803   -0.8791   -1.2499 O   0  0  0  0  0  0
   -5.2520   -1.3658    1.3851 C   0  0  0  0  0  0
    1.9731    1.1844   -0.0494 C   0  0  0  0  0  0
    2.4411    2.0002    0.9718 C   0  0  0  0  0  0
    2.1971    3.3590    0.9357 C   0  0  0  0  0  0
    1.4856    3.9079   -0.1180 C   0  0  0  0  0  0
    1.0176    3.0957   -1.1373 C   0  0  0  0  0  0
    1.2654    1.7373   -1.1080 C   0  0  0  0  0  0
    1.2475    5.2373   -0.1514 F   0  0  0  0  0  0
    1.4347   -3.3566    0.0564 H   0  0  0  0  0  0
    5.0899    0.0885   -1.0553 H   0  0  0  0  0  0
    4.6668    0.9037    0.4695 H   0  0  0  0  0  0
    5.5201   -0.6581    0.5022 H   0  0  0  0  0  0
    4.9963   -3.0519   -0.8471 H   0  0  0  0  0  0
    4.9994   -3.0124    0.9324 H   0  0  0  0  0  0
    4.5394   -5.0936    0.0892 H   0  0  0  0  0  0
   -0.5978   -2.6122   -1.3266 H   0  0  0  0  0  0
   -3.0317   -2.2580   -1.3221 H   0  0  0  0  0  0
   -2.5650    1.0495    1.3321 H   0  0  0  0  0  0
   -0.1291    0.7090    1.3460 H   0  0  0  0  0  0
   -6.3353   -1.2870    1.4774 H   0  0  0  0  0  0
   -4.9777   -2.4044    1.2004 H   0  0  0  0  0  0
   -4.7830   -1.0246    2.3079 H   0  0  0  0  0  0
    2.9954    1.5724    1.7941 H   0  0  0  0  0  0
    2.5610    3.9940    1.7299 H   0  0  0  0  0  0
    0.4623    3.5255   -1.9579 H   0  0  0  0  0  0
    0.9005    1.1043   -1.9033 H   0  0  0  0  0  0
  1  2  1  0  0  0
  1  5  1  0  0  0
  1 19  1  0  0  0
  2  3  2  0  0  0
  2  9  1  0  0  0
  3  4  1  0  0  0
  3 26  1  0  0  0
  4  5  2  0  0  0
  4  7  1  0  0  0
  5  6  1  0  0  0
  6 27  1  0  0  0
  6 28  1  0  0  0
  6 29  1  0  0  0
  7  8  1  0  0  0
  7 30  1  0  0  0
  7 31  1  0  0  0
  8 32  1  0  0  0
  9 10  1  0  0  0
  9 14  2  0  0  0
 10 11  2  0  0  0
 10 33  1  0  0  0
 11 12  1  0  0  0
 11 34  1  0  0  0
 12 13  2  0  0  0
 12 15  1  0  0  0
 13 14  1  0  0  0
 13 35  1  0  0  0
 14 36  1  0  0  0
 15 16  2  0  0  0
 15 17  2  0  0  0
 15 18  1  0  0  0
 18 37  1  0  0  0
 18 38  1  0  0  0
 18 39  1  0  0  0
 19 20  1  0  0  0
 19 24  2  0  0  0
 20 21  2  0  0  0
 20 40  1  0  0  0
 21 22  1  0  0  0
 21 41  1  0  0  0
 22 23  2  0  0  0
 22 25  1  0  0  0
 23 24  1  0  0  0
 23 42  1  0  0  0
 24 43  1  0  0  0
M  END
>  <Activity>
5.41117

>  <set>
1

>  <Min_dist>
999.9

>  <Avg_dist>
999.9

$$$$
1-41
  Cerius2 12110214513D 1   1.00000                          
 
 46 48  0  0  0  0  0  0  0  0999 V2000
    1.1993    0.8698   -0.3022 N   0  0  0  0  0  0
    0.6421   -0.3845   -0.3514 C   0  0  0  0  0  0
    1.6495   -1.2822   -0.5412 C   0  0  0  0  0  0
    2.8504   -0.5570   -0.6094 C   0  0  0  0  0  0
    2.5498    0.7515   -0.4611 C   0  0  0  0  0  0
    3.5385    1.8889   -0.4701 C   0  0  0  0  0  0
    4.2274   -1.1351   -0.8110 C   0  0  0  0  0  0
    4.8498   -1.4564    0.5493 C   0  0  0  0  0  0
    6.1281   -1.9931    0.3622 F   0  0  0  0  0  0
    4.9425   -0.2848    1.3082 F   0  0  0  0  0  0
    4.0479   -2.3851    1.2214 F   0  0  0  0  0  0
    4.1328   -2.3319   -1.5861 O   0  0  0  0  0  0
   -0.7954   -0.7039   -0.2214 C   0  0  0  0  0  0
   -1.7563    0.2811   -0.4552 C   0  0  0  0  0  0
   -3.0962   -0.0236   -0.3322 C   0  0  0  0  0  0
   -3.4882   -1.3023    0.0221 C   0  0  0  0  0  0
   -2.5409   -2.2834    0.2552 C   0  0  0  0  0  0
   -1.1979   -1.9934    0.1300 C   0  0  0  0  0  0
   -5.2016   -1.6829    0.1776 S   0  0  0  0  0  0
   -5.2017   -2.7639    1.0999 O   0  0  0  0  0  0
   -5.7771   -0.4222    0.4917 O   0  0  0  0  0  0
   -5.6569   -2.2283   -1.4915 C   0  0  0  0  0  0
    0.4979    2.0708   -0.1245 C   0  0  0  0  0  0
   -0.1165    2.3438    1.0901 C   0  0  0  0  0  0
   -0.8069    3.5273    1.2632 C   0  0  0  0  0  0
   -0.8870    4.4413    0.2259 C   0  0  0  0  0  0
   -0.2752    4.1705   -0.9865 C   0  0  0  0  0  0
    0.4217    2.9910   -1.1612 C   0  0  0  0  0  0
   -1.5632    5.5983    0.3969 F   0  0  0  0  0  0
    1.5439   -2.3539   -0.6240 H   0  0  0  0  0  0
    3.6649    2.2523   -1.4899 H   0  0  0  0  0  0
    3.1682    2.6972    0.1604 H   0  0  0  0  0  0
    4.4975    1.5397   -0.0873 H   0  0  0  0  0  0
    4.8522   -0.4115   -1.3346 H   0  0  0  0  0  0
    3.5731   -2.9437   -1.0885 H   0  0  0  0  0  0
   -1.4515    1.2797   -0.7314 H   0  0  0  0  0  0
   -3.8407    0.7377   -0.5124 H   0  0  0  0  0  0
   -2.8535   -3.2796    0.5314 H   0  0  0  0  0  0
   -0.4594   -2.7600    0.3123 H   0  0  0  0  0  0
   -6.7140   -2.4932   -1.5115 H   0  0  0  0  0  0
   -5.4711   -1.4217   -2.2007 H   0  0  0  0  0  0
   -5.0592   -3.0977   -1.7654 H   0  0  0  0  0  0
   -0.0548    1.6309    1.8991 H   0  0  0  0  0  0
   -1.2850    3.7400    2.2080 H   0  0  0  0  0  0
   -0.3394    4.8842   -1.7946 H   0  0  0  0  0  0
    0.8990    2.7804   -2.1068 H   0  0  0  0  0  0
  1  2  1  0  0  0
  1  5  1  0  0  0
  1 23  1  0  0  0
  2  3  2  0  0  0
  2 13  1  0  0  0
  3  4  1  0  0  0
  3 30  1  0  0  0
  4  5  2  0  0  0
  4  7  1  0  0  0
  5  6  1  0  0  0
  6 31  1  0  0  0
  6 32  1  0  0  0
  6 33  1  0  0  0
  7  8  1  0  0  0
  7 12  1  0  0  0
  7 34  1  0  0  0
  8  9  1  0  0  0
  8 10  1  0  0  0
  8 11  1  0  0  0
 12 35  1  0  0  0
 13 14  1  0  0  0
 13 18  2  0  0  0
 14 15  2  0  0  0
 14 36  1  0  0  0
 15 16  1  0  0  0
 15 37  1  0  0  0
 16 17  2  0  0  0
 16 19  1  0  0  0
 17 18  1  0  0  0
 17 38  1  0  0  0
 18 39  1  0  0  0
 19 20  2  0  0  0
 19 21  2  0  0  0
 19 22  1  0  0  0
 22 40  1  0  0  0
 22 41  1  0  0  0
 22 42  1  0  0  0
 23 24  1  0  0  0
 23 28  2  0  0  0
 24 25  2  0  0  0
 24 43  1  0  0  0
 25 26  1  0  0  0
 25 44  1  0  0  0
 26 27  2  0  0  0
 26 29  1  0  0  0
 27 28  1  0  0  0
 27 45  1  0  0  0
 28 46  1  0  0  0
M  END
>  <Activity>
5.84164

>  <set>
1

>  <Min_dist>
999.9

>  <Avg_dist>
999.9

$$$$
3-5
  Cerius2 12110214513D 1   1.00000                          
 
 38 40  0  0  0  0  0  0  0  0999 V2000
    2.1084    1.5345   -0.0170 C   0  0  0  0  0  0
    0.8806    2.1335    0.0199 N   0  0  0  0  0  0
    1.0968    3.4873    0.0346 C   0  0  0  0  0  0
    2.4321    3.6740    0.0066 C   0  0  0  0  0  0
    3.0266    2.4756   -0.0244 N   0  0  0  0  0  0
    3.1356    5.0067    0.0093 C   0  0  0  0  0  0
   -0.3627    1.4871    0.0387 C   0  0  0  0  0  0
   -1.3062    1.7653   -0.9411 C   0  0  0  0  0  0
   -2.5305    1.1262   -0.9202 C   0  0  0  0  0  0
   -2.8169    0.2102    0.0753 C   0  0  0  0  0  0
   -1.8794   -0.0686    1.0528 C   0  0  0  0  0  0
   -0.6512    0.5630    1.0339 C   0  0  0  0  0  0
   -4.3799   -0.6030    0.0986 S   0  0  0  0  0  0
   -4.5497   -0.9198    1.4734 O   0  0  0  0  0  0
   -5.2254    0.3203   -0.5736 O   0  0  0  0  0  0
   -4.0871   -2.0897   -0.8987 C   0  0  0  0  0  0
    2.3611    0.0779   -0.0384 C   0  0  0  0  0  0
    1.3580   -0.8012   -0.4494 C   0  0  0  0  0  0
    1.5995   -2.1591   -0.4673 C   0  0  0  0  0  0
    2.8343   -2.6506   -0.0784 C   0  0  0  0  0  0
    3.8333   -1.7833    0.3309 C   0  0  0  0  0  0
    3.6055   -0.4230    0.3469 C   0  0  0  0  0  0
    3.1310   -4.3609   -0.1034 Cl  0  0  0  0  0  0
    0.3410    4.2582    0.0628 H   0  0  0  0  0  0
    3.3288    5.3135    1.0372 H   0  0  0  0  0  0
    4.0802    4.9200   -0.5276 H   0  0  0  0  0  0
    2.5066    5.7506   -0.4798 H   0  0  0  0  0  0
   -1.0832    2.4809   -1.7187 H   0  0  0  0  0  0
   -3.2649    1.3424   -1.6819 H   0  0  0  0  0  0
   -2.1063   -0.7840    1.8294 H   0  0  0  0  0  0
    0.0807    0.3446    1.7974 H   0  0  0  0  0  0
   -5.0035   -2.6775   -0.9524 H   0  0  0  0  0  0
   -3.7828   -1.7986   -1.9041 H   0  0  0  0  0  0
   -3.2991   -2.6862   -0.4390 H   0  0  0  0  0  0
    0.3944   -0.4190   -0.7526 H   0  0  0  0  0  0
    0.8240   -2.8403   -0.7848 H   0  0  0  0  0  0
    4.7943   -2.1725    0.6334 H   0  0  0  0  0  0
    4.3854    0.2525    0.6660 H   0  0  0  0  0  0
  1  2  1  0  0  0
  1  5  2  0  0  0
  1 17  1  0  0  0
  2  3  1  0  0  0
  2  7  1  0  0  0
  3  4  2  0  0  0
  3 24  1  0  0  0
  4  5  1  0  0  0
  4  6  1  0  0  0
  6 25  1  0  0  0
  6 26  1  0  0  0
  6 27  1  0  0  0
  7  8  1  0  0  0
  7 12  2  0  0  0
  8  9  2  0  0  0
  8 28  1  0  0  0
  9 10  1  0  0  0
  9 29  1  0  0  0
 10 11  2  0  0  0
 10 13  1  0  0  0
 11 12  1  0  0  0
 11 30  1  0  0  0
 12 31  1  0  0  0
 13 14  2  0  0  0
 13 15  2  0  0  0
 13 16  1  0  0  0
 16 32  1  0  0  0
 16 33  1  0  0  0
 16 34  1  0  0  0
 17 18  1  0  0  0
 17 22  2  0  0  0
 18 19  2  0  0  0
 18 35  1  0  0  0
 19 20  1  0  0  0
 19 36  1  0  0  0
 20 21  2  0  0  0
 20 23  1  0  0  0
 21 22  1  0  0  0
 21 37  1  0  0  0
 22 38  1  0  0  0
M  END
>  <Activity>
6.61979

>  <set>
1

>  <Min_dist>
999.9

>  <Avg_dist>
999.9

$$$$
3-6
  Cerius2 12110214513D 1   1.00000                          
 
 38 40  0  0  0  0  0  0  0  0999 V2000
    1.8076    0.3504    0.0194 C   0  0  0  0  0  0
    1.1846   -0.8655   -0.0175 N   0  0  0  0  0  0
    2.1697   -1.8189   -0.0311 C   0  0  0  0  0  0
    3.3500   -1.1673   -0.0026 C   0  0  0  0  0  0
    3.1067    0.1482    0.0277 N   0  0  0  0  0  0
    4.7123   -1.8116   -0.0042 C   0  0  0  0  0  0
    5.6976   -0.8191    0.0307 F   0  0  0  0  0  0
    4.8400   -2.6351    1.1196 F   0  0  0  0  0  0
    4.8640   -2.5788   -1.1642 F   0  0  0  0  0  0
   -0.1979   -1.0941   -0.0370 C   0  0  0  0  0  0
   -0.7866   -1.8822    0.9427 C   0  0  0  0  0  0
   -2.1495   -2.1053    0.9210 C   0  0  0  0  0  0
   -2.9275   -1.5446   -0.0752 C   0  0  0  0  0  0
   -2.3440   -0.7596   -1.0526 C   0  0  0  0  0  0
   -0.9825   -0.5282   -1.0330 C   0  0  0  0  0  0
   -4.6658   -1.8316   -0.0995 S   0  0  0  0  0  0
   -4.9908   -1.6805   -1.4745 O   0  0  0  0  0  0
   -4.7889   -3.0772    0.5732 O   0  0  0  0  0  0
   -5.3240   -0.4660    0.8969 C   0  0  0  0  0  0
    1.1360    1.6674    0.0398 C   0  0  0  0  0  0
   -0.1942    1.7692    0.4499 C   0  0  0  0  0  0
   -0.8155    3.0005    0.4669 C   0  0  0  0  0  0
   -0.1221    4.1344    0.0780 C   0  0  0  0  0  0
    1.1977    4.0395   -0.3304 C   0  0  0  0  0  0
    1.8314    2.8145   -0.3456 C   0  0  0  0  0  0
   -0.9107    5.6807    0.1019 Cl  0  0  0  0  0  0
    2.0274   -2.8891   -0.0590 H   0  0  0  0  0  0
   -0.1794   -2.3207    1.7209 H   0  0  0  0  0  0
   -2.6079   -2.7186    1.6827 H   0  0  0  0  0  0
   -2.9542   -0.3236   -1.8298 H   0  0  0  0  0  0
   -0.5274    0.0853   -1.7965 H   0  0  0  0  0  0
   -6.4098   -0.5454    0.9499 H   0  0  0  0  0  0
   -4.9066   -0.5159    1.9026 H   0  0  0  0  0  0
   -5.0511    0.4838    0.4370 H   0  0  0  0  0  0
   -0.7360    0.8855    0.7531 H   0  0  0  0  0  0
   -1.8448    3.0805    0.7837 H   0  0  0  0  0  0
    1.7333    4.9272   -0.6329 H   0  0  0  0  0  0
    2.8609    2.7417   -0.6639 H   0  0  0  0  0  0
  1  2  1  0  0  0
  1  5  2  0  0  0
  1 20  1  0  0  0
  2  3  1  0  0  0
  2 10  1  0  0  0
  3  4  2  0  0  0
  3 27  1  0  0  0
  4  5  1  0  0  0
  4  6  1  0  0  0
  6  7  1  0  0  0
  6  8  1  0  0  0
  6  9  1  0  0  0
 10 11  1  0  0  0
 10 15  2  0  0  0
 11 12  2  0  0  0
 11 28  1  0  0  0
 12 13  1  0  0  0
 12 29  1  0  0  0
 13 14  2  0  0  0
 13 16  1  0  0  0
 14 15  1  0  0  0
 14 30  1  0  0  0
 15 31  1  0  0  0
 16 17  2  0  0  0
 16 18  2  0  0  0
 16 19  1  0  0  0
 19 32  1  0  0  0
 19 33  1  0  0  0
 19 34  1  0  0  0
 20 21  1  0  0  0
 20 25  2  0  0  0
 21 22  2  0  0  0
 21 35  1  0  0  0
 22 23  1  0  0  0
 22 36  1  0  0  0
 23 24  2  0  0  0
 23 26  1  0  0  0
 24 25  1  0  0  0
 24 37  1  0  0  0
 25 38  1  0  0  0
M  END
>  <Activity>
6.95861

>  <set>
1

>  <Min_dist>
999.9

>  <Avg_dist>
999.9

$$$$
3-10
  Cerius2 12110214513D 1   1.00000                          
 
 38 40  0  0  0  0  0  0  0  0999 V2000
    1.7770    0.7679    0.0411 C   0  0  0  0  0  0
    1.0734   -0.4023   -0.0148 N   0  0  0  0  0  0
    1.9918   -1.4195   -0.0461 C   0  0  0  0  0  0
    3.2135   -0.8495   -0.0089 C   0  0  0  0  0  0
    3.0595    0.4786    0.0438 N   0  0  0  0  0  0
    4.5293   -1.5840   -0.0237 C   0  0  0  0  0  0
    5.5793   -0.6608    0.0259 F   0  0  0  0  0  0
    4.6020   -2.4329    1.0859 F   0  0  0  0  0  0
    4.6281   -2.3401   -1.1966 F   0  0  0  0  0  0
   -0.3213   -0.5368   -0.0357 C   0  0  0  0  0  0
   -0.9612   -1.2998    0.9319 C   0  0  0  0  0  0
   -2.3359   -1.4305    0.9087 C   0  0  0  0  0  0
   -3.0750   -0.8028   -0.0772 C   0  0  0  0  0  0
   -2.4406   -0.0423   -1.0423 C   0  0  0  0  0  0
   -1.0666    0.0972   -1.0207 C   0  0  0  0  0  0
   -4.8285   -0.9730   -0.1042 S   0  0  0  0  0  0
   -5.1429   -0.7778   -1.4762 O   0  0  0  0  0  0
   -5.0343   -2.2186    0.5479 O   0  0  0  0  0  0
   -5.3943    0.4167    0.9153 C   0  0  0  0  0  0
    1.1957    2.1268    0.0848 C   0  0  0  0  0  0
   -0.1243    2.3114    0.4985 C   0  0  0  0  0  0
   -0.6607    3.5819    0.5369 C   0  0  0  0  0  0
    0.1067    4.6716    0.1659 C   0  0  0  0  0  0
    1.4158    4.4954   -0.2456 C   0  0  0  0  0  0
    1.9664    3.2309   -0.2822 C   0  0  0  0  0  0
    1.7776   -2.4770   -0.0916 H   0  0  0  0  0  0
   -0.3844   -1.7908    1.7018 H   0  0  0  0  0  0
   -2.8342   -2.0238    1.6610 H   0  0  0  0  0  0
   -3.0204    0.4464   -1.8113 H   0  0  0  0  0  0
   -0.5718    0.6916   -1.7745 H   0  0  0  0  0  0
   -6.4830    0.4089    0.9682 H   0  0  0  0  0  0
   -4.9810    0.3224    1.9195 H   0  0  0  0  0  0
   -5.0588    1.3537    0.4708 H   0  0  0  0  0  0
   -0.7247    1.4614    0.7877 H   0  0  0  0  0  0
   -1.6821    3.7260    0.8569 H   0  0  0  0  0  0
   -0.3180    5.6641    0.1974 H   0  0  0  0  0  0
    2.0096    5.3501   -0.5343 H   0  0  0  0  0  0
    2.9885    3.0947   -0.6033 H   0  0  0  0  0  0
  1  2  1  0  0  0
  1  5  2  0  0  0
  1 20  1  0  0  0
  2  3  1  0  0  0
  2 10  1  0  0  0
  3  4  2  0  0  0
  3 26  1  0  0  0
  4  5  1  0  0  0
  4  6  1  0  0  0
  6  7  1  0  0  0
  6  8  1  0  0  0
  6  9  1  0  0  0
 10 11  1  0  0  0
 10 15  2  0  0  0
 11 12  2  0  0  0
 11 27  1  0  0  0
 12 13  1  0  0  0
 12 28  1  0  0  0
 13 14  2  0  0  0
 13 16  1  0  0  0
 14 15  1  0  0  0
 14 29  1  0  0  0
 15 30  1  0  0  0
 16 17  2  0  0  0
 16 18  2  0  0  0
 16 19  1  0  0  0
 19 31  1  0  0  0
 19 32  1  0  0  0
 19 33  1  0  0  0
 20 21  1  0  0  0
 20 25  2  0  0  0
 21 22  2  0  0  0
 21 34  1  0  0  0
 22 23  1  0  0  0
 22 35  1  0  0  0
 23 24  2  0  0  0
 23 36  1  0  0  0
 24 25  1  0  0  0
 24 37  1  0  0  0
 25 38  1  0  0  0
M  END
>  <Activity>
6.92082

>  <set>
1

>  <Min_dist>
999.9

>  <Avg_dist>
999.9

$$$$
3-12
  Cerius2 12110214513D 1   1.00000                          
 
 42 44  0  0  0  0  0  0  0  0999 V2000
    1.7725    0.2583    0.0451 C   0  0  0  0  0  0
    1.0527   -0.9021   -0.0152 N   0  0  0  0  0  0
    1.9577   -1.9323   -0.0485 C   0  0  0  0  0  0
    3.1866   -1.3795   -0.0081 C   0  0  0  0  0  0
    3.0511   -0.0491    0.0484 N   0  0  0  0  0  0
    4.4921   -2.1322   -0.0240 C   0  0  0  0  0  0
    5.5548   -1.2238    0.0298 F   0  0  0  0  0  0
    4.5518   -2.9857    1.0828 F   0  0  0  0  0  0
    4.5818   -2.8857   -1.1993 F   0  0  0  0  0  0
   -0.3437   -1.0173   -0.0378 C   0  0  0  0  0  0
   -0.9950   -1.7743    0.9268 C   0  0  0  0  0  0
   -2.3715   -1.8856    0.9021 C   0  0  0  0  0  0
   -3.1008   -1.2440   -0.0820 C   0  0  0  0  0  0
   -2.4551   -0.4893   -1.0441 C   0  0  0  0  0  0
   -1.0792   -0.3700   -1.0216 C   0  0  0  0  0  0
   -4.8567   -1.3888   -0.1105 S   0  0  0  0  0  0
   -5.1674   -1.1845   -1.4820 O   0  0  0  0  0  0
   -5.0806   -2.6337    0.5372 O   0  0  0  0  0  0
   -5.4030    0.0052    0.9135 C   0  0  0  0  0  0
    1.2103    1.6245    0.0921 C   0  0  0  0  0  0
   -0.1076    1.8250    0.5067 C   0  0  0  0  0  0
   -0.6282    3.1005    0.5491 C   0  0  0  0  0  0
    0.1564    4.1854    0.1801 C   0  0  0  0  0  0
    1.4679    3.9900   -0.2329 C   0  0  0  0  0  0
    1.9977    2.7182   -0.2725 C   0  0  0  0  0  0
   -0.3604    5.4410    0.2228 O   0  0  0  0  0  0
    0.6736    6.3282   -0.2083 C   0  0  0  0  0  0
    1.7291   -2.9867   -0.0974 H   0  0  0  0  0  0
   -0.4258   -2.2759    1.6954 H   0  0  0  0  0  0
   -2.8786   -2.4746    1.6519 H   0  0  0  0  0  0
   -3.0274    0.0103   -1.8117 H   0  0  0  0  0  0
   -0.5754    0.2199   -1.7730 H   0  0  0  0  0  0
   -6.4917    0.0129    0.9659 H   0  0  0  0  0  0
   -4.9917   -0.0984    1.9176 H   0  0  0  0  0  0
   -5.0538    0.9388    0.4725 H   0  0  0  0  0  0
   -0.7185    0.9819    0.7934 H   0  0  0  0  0  0
   -1.6478    3.2565    0.8694 H   0  0  0  0  0  0
    2.0749    4.8362   -0.5194 H   0  0  0  0  0  0
    3.0178    2.5671   -0.5934 H   0  0  0  0  0  0
    0.3035    7.3533   -0.1905 H   0  0  0  0  0  0
    1.5303    6.2395    0.4598 H   0  0  0  0  0  0
    0.9756    6.0684   -1.2229 H   0  0  0  0  0  0
  1  2  1  0  0  0
  1  5  2  0  0  0
  1 20  1  0  0  0
  2  3  1  0  0  0
  2 10  1  0  0  0
  3  4  2  0  0  0
  3 28  1  0  0  0
  4  5  1  0  0  0
  4  6  1  0  0  0
  6  7  1  0  0  0
  6  8  1  0  0  0
  6  9  1  0  0  0
 10 11  1  0  0  0
 10 15  2  0  0  0
 11 12  2  0  0  0
 11 29  1  0  0  0
 12 13  1  0  0  0
 12 30  1  0  0  0
 13 14  2  0  0  0
 13 16  1  0  0  0
 14 15  1  0  0  0
 14 31  1  0  0  0
 15 32  1  0  0  0
 16 17  2  0  0  0
 16 18  2  0  0  0
 16 19  1  0  0  0
 19 33  1  0  0  0
 19 34  1  0  0  0
 19 35  1  0  0  0
 20 21  1  0  0  0
 20 25  2  0  0  0
 21 22  2  0  0  0
 21 36  1  0  0  0
 22 23  1  0  0  0
 22 37  1  0  0  0
 23 24  2  0  0  0
 23 26  1  0  0  0
 24 25  1  0  0  0
 24 38  1  0  0  0
 25 39  1  0  0  0
 26 27  1  0  0  0
 27 40  1  0  0  0
 27 41  1  0  0  0
 27 42  1  0  0  0
M  END
>  <Activity>
6.24413

>  <set>
1

>  <Min_dist>
999.9

>  <Avg_dist>
999.9

$$$$
3-13
  Cerius2 12110214513D 1   1.00000                          
 
 43 45  0  0  0  0  0  0  0  0999 V2000
    1.7798    0.2872    0.0476 C   0  0  0  0  0  0
    1.0784   -0.8843   -0.0146 N   0  0  0  0  0  0
    1.9998   -1.9003   -0.0489 C   0  0  0  0  0  0
    3.2197   -1.3283   -0.0072 C   0  0  0  0  0  0
    3.0632    0.0000    0.0511 N   0  0  0  0  0  0
    4.5369   -2.0602   -0.0234 C   0  0  0  0  0  0
    5.5851   -1.1353    0.0321 F   0  0  0  0  0  0
    4.6095   -2.9142    1.0823 F   0  0  0  0  0  0
    4.6390   -2.8106   -1.1997 F   0  0  0  0  0  0
   -0.3160   -1.0216   -0.0388 C   0  0  0  0  0  0
   -0.9556   -1.7954    0.9202 C   0  0  0  0  0  0
   -2.3301   -1.9284    0.8940 C   0  0  0  0  0  0
   -3.0692   -1.2917   -0.0861 C   0  0  0  0  0  0
   -2.4350   -0.5203   -1.0426 C   0  0  0  0  0  0
   -1.0613   -0.3793   -1.0185 C   0  0  0  0  0  0
   -4.8224   -1.4642   -0.1165 S   0  0  0  0  0  0
   -5.1358   -1.2554   -1.4867 O   0  0  0  0  0  0
   -5.0269   -2.7169    0.5225 O   0  0  0  0  0  0
   -5.3913   -0.0861    0.9168 C   0  0  0  0  0  0
    1.1963    1.6440    0.0962 C   0  0  0  0  0  0
   -0.1032    1.8301    0.5722 C   0  0  0  0  0  0
   -0.6445    3.0962    0.6163 C   0  0  0  0  0  0
    0.1019    4.1885    0.1873 C   0  0  0  0  0  0
    1.3965    4.0064   -0.2873 C   0  0  0  0  0  0
    1.9453    2.7434   -0.3284 C   0  0  0  0  0  0
   -0.4490    5.4690    0.2327 N   0  0  0  0  0  0
    0.3360    6.6206   -0.2189 C   0  0  0  0  0  0
    1.7879   -2.9581   -0.0996 H   0  0  0  0  0  0
   -0.3789   -2.2932    1.6857 H   0  0  0  0  0  0
   -2.8282   -2.5305    1.6395 H   0  0  0  0  0  0
   -3.0149   -0.0245   -1.8070 H   0  0  0  0  0  0
   -0.5666    0.2236   -1.7656 H   0  0  0  0  0  0
   -6.4800   -0.0961    0.9686 H   0  0  0  0  0  0
   -4.9789   -0.1901    1.9204 H   0  0  0  0  0  0
   -5.0568    0.8560    0.4823 H   0  0  0  0  0  0
   -0.6835    0.9823    0.9052 H   0  0  0  0  0  0
   -1.6497    3.2407    0.9840 H   0  0  0  0  0  0
    1.9735    4.8565   -0.6201 H   0  0  0  0  0  0
    2.9508    2.6027   -0.6967 H   0  0  0  0  0  0
   -1.3519    5.5971    0.5632 H   0  0  0  0  0  0
   -0.2560    7.5292   -0.1094 H   0  0  0  0  0  0
    1.2411    6.7018    0.3830 H   0  0  0  0  0  0
    0.6069    6.4874   -1.2663 H   0  0  0  0  0  0
  1  2  1  0  0  0
  1  5  2  0  0  0
  1 20  1  0  0  0
  2  3  1  0  0  0
  2 10  1  0  0  0
  3  4  2  0  0  0
  3 28  1  0  0  0
  4  5  1  0  0  0
  4  6  1  0  0  0
  6  7  1  0  0  0
  6  8  1  0  0  0
  6  9  1  0  0  0
 10 11  1  0  0  0
 10 15  2  0  0  0
 11 12  2  0  0  0
 11 29  1  0  0  0
 12 13  1  0  0  0
 12 30  1  0  0  0
 13 14  2  0  0  0
 13 16  1  0  0  0
 14 15  1  0  0  0
 14 31  1  0  0  0
 15 32  1  0  0  0
 16 17  2  0  0  0
 16 18  2  0  0  0
 16 19  1  0  0  0
 19 33  1  0  0  0
 19 34  1  0  0  0
 19 35  1  0  0  0
 20 21  1  0  0  0
 20 25  2  0  0  0
 21 22  2  0  0  0
 21 36  1  0  0  0
 22 23  1  0  0  0
 22 37  1  0  0  0
 23 24  2  0  0  0
 23 26  1  0  0  0
 24 25  1  0  0  0
 24 38  1  0  0  0
 25 39  1  0  0  0
 26 27  1  0  0  0
 26 40  1  0  0  0
 27 41  1  0  0  0
 27 42  1  0  0  0
 27 43  1  0  0  0
M  END
>  <Activity>
5.83268

>  <set>
1

>  <Min_dist>
999.9

>  <Avg_dist>
999.9

$$$$
3-14
  Cerius2 12110214513D 1   1.00000                          
 
 46 48  0  0  0  0  0  0  0  0999 V2000
    1.8251    0.2887    0.0280 C   0  0  0  0  0  0
    1.2524   -0.9517   -0.0146 N   0  0  0  0  0  0
    2.2767   -1.8645   -0.0247 C   0  0  0  0  0  0
    3.4286   -1.1654    0.0115 C   0  0  0  0  0  0
    3.1317    0.1395    0.0431 N   0  0  0  0  0  0
    4.8162   -1.7534    0.0157 C   0  0  0  0  0  0
    5.7599   -0.7214    0.0580 F   0  0  0  0  0  0
    4.9717   -2.5737    1.1382 F   0  0  0  0  0  0
    5.0052   -2.5109   -1.1452 F   0  0  0  0  0  0
   -0.1193   -1.2368   -0.0426 C   0  0  0  0  0  0
   -0.6795   -2.0563    0.9282 C   0  0  0  0  0  0
   -2.0319   -2.3350    0.8982 C   0  0  0  0  0  0
   -2.8279   -1.7988   -0.0973 C   0  0  0  0  0  0
   -2.2729   -0.9823   -1.0655 C   0  0  0  0  0  0
   -0.9221   -0.6957   -1.0378 C   0  0  0  0  0  0
   -4.5527   -2.1572   -0.1325 S   0  0  0  0  0  0
   -4.8774   -2.0084   -1.5079 O   0  0  0  0  0  0
   -4.6272   -3.4124    0.5295 O   0  0  0  0  0  0
   -5.2715   -0.8283    0.8715 C   0  0  0  0  0  0
    1.1005    1.5765    0.0473 C   0  0  0  0  0  0
   -0.2129    1.6333    0.5181 C   0  0  0  0  0  0
   -0.8858    2.8353    0.5348 C   0  0  0  0  0  0
   -0.2583    3.9915    0.0834 C   0  0  0  0  0  0
    1.0497    3.9382   -0.3860 C   0  0  0  0  0  0
    1.7298    2.7401   -0.3999 C   0  0  0  0  0  0
   -0.9424    5.2069    0.1012 N   0  0  0  0  0  0
   -2.2741    5.2891    0.7060 C   0  0  0  0  0  0
   -0.3291    6.4012   -0.4850 C   0  0  0  0  0  0
    2.1786   -2.9396   -0.0557 H   0  0  0  0  0  0
   -0.0583   -2.4756    1.7058 H   0  0  0  0  0  0
   -2.4682   -2.9727    1.6529 H   0  0  0  0  0  0
   -2.8971   -0.5653   -1.8420 H   0  0  0  0  0  0
   -0.4893   -0.0576   -1.7941 H   0  0  0  0  0  0
   -6.3533   -0.9529    0.9184 H   0  0  0  0  0  0
   -4.8570   -0.8692    1.8788 H   0  0  0  0  0  0
   -5.0360    0.1357    0.4206 H   0  0  0  0  0  0
   -0.7008    0.7357    0.8684 H   0  0  0  0  0  0
   -1.9018    2.8798    0.8985 H   0  0  0  0  0  0
    1.5342    4.8376   -0.7362 H   0  0  0  0  0  0
    2.7457    2.6994   -0.7642 H   0  0  0  0  0  0
   -2.6470    6.3102    0.6262 H   0  0  0  0  0  0
   -2.9521    4.6129    0.1852 H   0  0  0  0  0  0
   -2.2141    5.0053    1.7567 H   0  0  0  0  0  0
    0.6879    6.1693   -0.8015 H   0  0  0  0  0  0
   -0.9132    6.7238   -1.3469 H   0  0  0  0  0  0
   -0.3056    7.1991    0.2572 H   0  0  0  0  0  0
  1  2  1  0  0  0
  1  5  2  0  0  0
  1 20  1  0  0  0
  2  3  1  0  0  0
  2 10  1  0  0  0
  3  4  2  0  0  0
  3 29  1  0  0  0
  4  5  1  0  0  0
  4  6  1  0  0  0
  6  7  1  0  0  0
  6  8  1  0  0  0
  6  9  1  0  0  0
 10 11  1  0  0  0
 10 15  2  0  0  0
 11 12  2  0  0  0
 11 30  1  0  0  0
 12 13  1  0  0  0
 12 31  1  0  0  0
 13 14  2  0  0  0
 13 16  1  0  0  0
 14 15  1  0  0  0
 14 32  1  0  0  0
 15 33  1  0  0  0
 16 17  2  0  0  0
 16 18  2  0  0  0
 16 19  1  0  0  0
 19 34  1  0  0  0
 19 35  1  0  0  0
 19 36  1  0  0  0
 20 21  1  0  0  0
 20 25  2  0  0  0
 21 22  2  0  0  0
 21 37  1  0  0  0
 22 23  1  0  0  0
 22 38  1  0  0  0
 23 24  2  0  0  0
 23 26  1  0  0  0
 24 25  1  0  0  0
 24 39  1  0  0  0
 25 40  1  0  0  0
 26 27  1  0  0  0
 26 28  1  0  0  0
 27 41  1  0  0  0
 27 42  1  0  0  0
 27 43  1  0  0  0
 28 44  1  0  0  0
 28 45  1  0  0  0
 28 46  1  0  0  0
M  END
>  <Activity>
6.1549

>  <set>
1

>  <Min_dist>
999.9

>  <Avg_dist>
999.9

$$$$
3-15
  Cerius2 12110214513D 1   1.00000                          
 
 42 44  0  0  0  0  0  0  0  0999 V2000
    1.7893    0.0580    0.0477 C   0  0  0  0  0  0
    1.1057   -1.1241   -0.0145 N   0  0  0  0  0  0
    2.0424   -2.1262   -0.0461 C   0  0  0  0  0  0
    3.2534   -1.5358   -0.0030 C   0  0  0  0  0  0
    3.0769   -0.2100    0.0536 N   0  0  0  0  0  0
    4.5816   -2.2478   -0.0163 C   0  0  0  0  0  0
    5.6156   -1.3071    0.0400 F   0  0  0  0  0  0
    4.6652   -3.0995    1.0904 F   0  0  0  0  0  0
    4.6969   -2.9978   -1.1916 F   0  0  0  0  0  0
   -0.2865   -1.2824   -0.0404 C   0  0  0  0  0  0
   -0.9157   -2.0648    0.9186 C   0  0  0  0  0  0
   -2.2879   -2.2189    0.8904 C   0  0  0  0  0  0
   -3.0351   -1.5950   -0.0918 C   0  0  0  0  0  0
   -2.4113   -0.8156   -1.0486 C   0  0  0  0  0  0
   -1.0400   -0.6527   -1.0219 C   0  0  0  0  0  0
   -4.7855   -1.7941   -0.1245 S   0  0  0  0  0  0
   -5.1000   -1.5923   -1.4955 O   0  0  0  0  0  0
   -4.9719   -3.0487    0.5162 O   0  0  0  0  0  0
   -5.3767   -0.4231    0.9058 C   0  0  0  0  0  0
    1.1854    1.4057    0.0939 C   0  0  0  0  0  0
   -0.1175    1.5727    0.5686 C   0  0  0  0  0  0
   -0.6777    2.8303    0.6110 C   0  0  0  0  0  0
    0.0529    3.9337    0.1810 C   0  0  0  0  0  0
    1.3509    3.7703   -0.2928 C   0  0  0  0  0  0
    1.9184    2.5158   -0.3316 C   0  0  0  0  0  0
   -0.6673    5.5409    0.2361 S   0  0  0  0  0  0
    0.7069    6.5246   -0.4233 C   0  0  0  0  0  0
    1.8466   -3.1871   -0.0958 H   0  0  0  0  0  0
   -0.3326   -2.5525    1.6858 H   0  0  0  0  0  0
   -2.7778   -2.8276    1.6359 H   0  0  0  0  0  0
   -2.9975   -0.3299   -1.8147 H   0  0  0  0  0  0
   -0.5534   -0.0438   -1.7695 H   0  0  0  0  0  0
   -6.4652   -0.4495    0.9560 H   0  0  0  0  0  0
   -4.9642   -0.5192    1.9101 H   0  0  0  0  0  0
   -5.0558    0.5232    0.4703 H   0  0  0  0  0  0
   -0.6853    0.7166    0.9018 H   0  0  0  0  0  0
   -1.6852    2.9600    0.9779 H   0  0  0  0  0  0
    1.9156    4.6284   -0.6263 H   0  0  0  0  0  0
    2.9261    2.3896   -0.6992 H   0  0  0  0  0  0
    0.4184    7.5751   -0.4568 H   0  0  0  0  0  0
    1.5789    6.4076    0.2201 H   0  0  0  0  0  0
    0.9491    6.1820   -1.4293 H   0  0  0  0  0  0
  1  2  1  0  0  0
  1  5  2  0  0  0
  1 20  1  0  0  0
  2  3  1  0  0  0
  2 10  1  0  0  0
  3  4  2  0  0  0
  3 28  1  0  0  0
  4  5  1  0  0  0
  4  6  1  0  0  0
  6  7  1  0  0  0
  6  8  1  0  0  0
  6  9  1  0  0  0
 10 11  1  0  0  0
 10 15  2  0  0  0
 11 12  2  0  0  0
 11 29  1  0  0  0
 12 13  1  0  0  0
 12 30  1  0  0  0
 13 14  2  0  0  0
 13 16  1  0  0  0
 14 15  1  0  0  0
 14 31  1  0  0  0
 15 32  1  0  0  0
 16 17  2  0  0  0
 16 18  2  0  0  0
 16 19  1  0  0  0
 19 33  1  0  0  0
 19 34  1  0  0  0
 19 35  1  0  0  0
 20 21  1  0  0  0
 20 25  2  0  0  0
 21 22  2  0  0  0
 21 36  1  0  0  0
 22 23  1  0  0  0
 22 37  1  0  0  0
 23 24  2  0  0  0
 23 26  1  0  0  0
 24 25  1  0  0  0
 24 38  1  0  0  0
 25 39  1  0  0  0
 26 27  1  0  0  0
 27 40  1  0  0  0
 27 41  1  0  0  0
 27 42  1  0  0  0
M  END
>  <Activity>
6.79588

>  <set>
1

>  <Min_dist>
999.9

>  <Avg_dist>
999.9

$$$$
3-17
  Cerius2 12110214513D 1   1.00000                          
 
 44 46  0  0  0  0  0  0  0  0999 V2000
    1.8188    0.6351   -0.0014 C   0  0  0  0  0  0
    1.8066   -0.7314   -0.0173 N   0  0  0  0  0  0
    3.1142   -1.1427   -0.0131 C   0  0  0  0  0  0
    3.8775   -0.0310    0.0050 C   0  0  0  0  0  0
    3.0707    1.0364    0.0118 N   0  0  0  0  0  0
    5.3841    0.0032    0.0162 C   0  0  0  0  0  0
    5.8203    1.3324    0.0345 F   0  0  0  0  0  0
    5.8571   -0.6585    1.1545 F   0  0  0  0  0  0
    5.8735   -0.6325   -1.1299 F   0  0  0  0  0  0
    0.6731   -1.5552   -0.0343 C   0  0  0  0  0  0
    0.4910   -2.5084    0.9587 C   0  0  0  0  0  0
   -0.6272   -3.3189    0.9393 C   0  0  0  0  0  0
   -1.5646   -3.1822   -0.0680 C   0  0  0  0  0  0
   -1.3860   -2.2338   -1.0584 C   0  0  0  0  0  0
   -0.2730   -1.4162   -1.0409 C   0  0  0  0  0  0
   -2.9892   -4.2189   -0.0900 S   0  0  0  0  0  0
   -3.3344   -4.2507   -1.4680 O   0  0  0  0  0  0
   -2.5468   -5.3769    0.6046 O   0  0  0  0  0  0
   -4.1993   -3.2788    0.8808 C   0  0  0  0  0  0
    0.6282    1.5120   -0.0050 C   0  0  0  0  0  0
   -0.6103    1.0137    0.4015 C   0  0  0  0  0  0
   -1.7173    1.8371    0.3958 C   0  0  0  0  0  0
   -1.6015    3.1540   -0.0121 C   0  0  0  0  0  0
   -0.3766    3.6541   -0.4168 C   0  0  0  0  0  0
    0.7395    2.8430   -0.4094 C   0  0  0  0  0  0
   -3.0204    4.1987   -0.0170 S   0  0  0  0  0  0
   -2.7008    5.1595   -1.0140 O   0  0  0  0  0  0
   -4.0902    3.2764   -0.1724 O   0  0  0  0  0  0
   -3.0024    4.9278    1.6440 C   0  0  0  0  0  0
    3.4664   -2.1636   -0.0222 H   0  0  0  0  0  0
    1.2231   -2.6161    1.7453 H   0  0  0  0  0  0
   -0.7693   -4.0605    1.7115 H   0  0  0  0  0  0
   -2.1197   -2.1296   -1.8440 H   0  0  0  0  0  0
   -0.1343   -0.6754   -1.8145 H   0  0  0  0  0  0
   -5.1346   -3.8361    0.9334 H   0  0  0  0  0  0
   -3.8134   -3.1208    1.8878 H   0  0  0  0  0  0
   -4.3772   -2.3147    0.4044 H   0  0  0  0  0  0
   -0.7021   -0.0144    0.7195 H   0  0  0  0  0  0
   -2.6764    1.4527    0.7102 H   0  0  0  0  0  0
   -0.2929    4.6829   -0.7344 H   0  0  0  0  0  0
    1.6951    3.2346   -0.7251 H   0  0  0  0  0  0
   -3.8510    5.6030    1.7536 H   0  0  0  0  0  0
   -3.0699    4.1354    2.3894 H   0  0  0  0  0  0
   -2.0754    5.4832    1.7870 H   0  0  0  0  0  0
  1  2  1  0  0  0
  1  5  2  0  0  0
  1 20  1  0  0  0
  2  3  1  0  0  0
  2 10  1  0  0  0
  3  4  2  0  0  0
  3 30  1  0  0  0
  4  5  1  0  0  0
  4  6  1  0  0  0
  6  7  1  0  0  0
  6  8  1  0  0  0
  6  9  1  0  0  0
 10 11  1  0  0  0
 10 15  2  0  0  0
 11 12  2  0  0  0
 11 31  1  0  0  0
 12 13  1  0  0  0
 12 32  1  0  0  0
 13 14  2  0  0  0
 13 16  1  0  0  0
 14 15  1  0  0  0
 14 33  1  0  0  0
 15 34  1  0  0  0
 16 17  2  0  0  0
 16 18  2  0  0  0
 16 19  1  0  0  0
 19 35  1  0  0  0
 19 36  1  0  0  0
 19 37  1  0  0  0
 20 21  1  0  0  0
 20 25  2  0  0  0
 21 22  2  0  0  0
 21 38  1  0  0  0
 22 23  1  0  0  0
 22 39  1  0  0  0
 23 24  2  0  0  0
 23 26  1  0  0  0
 24 25  1  0  0  0
 24 40  1  0  0  0
 25 41  1  0  0  0
 26 27  2  0  0  0
 26 28  2  0  0  0
 26 29  1  0  0  0
 29 42  1  0  0  0
 29 43  1  0  0  0
 29 44  1  0  0  0
M  END
>  <Activity>
5.24413

>  <set>
1

>  <Min_dist>
999.9

>  <Avg_dist>
999.9

$$$$
3-18
  Cerius2 12110214513D 1   1.00000                          
 
 37 39  0  0  0  0  0  0  0  0999 V2000
    1.8324    0.3388    0.0196 C   0  0  0  0  0  0
    1.1994   -0.8718   -0.0205 N   0  0  0  0  0  0
    2.1768   -1.8332   -0.0359 C   0  0  0  0  0  0
    3.3623   -1.1914   -0.0053 C   0  0  0  0  0  0
    3.1298    0.1260    0.0282 N   0  0  0  0  0  0
    4.7194   -1.8467   -0.0077 C   0  0  0  0  0  0
    5.7127   -0.8623    0.0301 F   0  0  0  0  0  0
    4.8397   -2.6740    1.1141 F   0  0  0  0  0  0
    4.8655   -2.6123   -1.1695 F   0  0  0  0  0  0
   -0.1848   -1.0891   -0.0414 C   0  0  0  0  0  0
   -0.7804   -1.8748    0.9362 C   0  0  0  0  0  0
   -2.1451   -2.0868    0.9132 C   0  0  0  0  0  0
   -2.9180   -1.5174   -0.0820 C   0  0  0  0  0  0
   -2.3276   -0.7347   -1.0573 C   0  0  0  0  0  0
   -0.9642   -0.5144   -1.0363 C   0  0  0  0  0  0
   -4.6585   -1.7901   -0.1079 S   0  0  0  0  0  0
   -5.0649   -1.5636   -1.4506 O   0  0  0  0  0  0
   -4.8725   -2.9884    0.6251 O   0  0  0  0  0  0
   -5.3618   -0.5852    0.7843 N   0  0  0  0  0  0
    1.1715    1.6612    0.0429 C   0  0  0  0  0  0
   -0.1580    1.7728    0.4526 C   0  0  0  0  0  0
   -0.7693    3.0091    0.4722 C   0  0  0  0  0  0
   -0.0665    4.1382    0.0865 C   0  0  0  0  0  0
    1.2527    4.0336   -0.3214 C   0  0  0  0  0  0
    1.8764    2.8035   -0.3392 C   0  0  0  0  0  0
   -0.8425    5.6909    0.1138 Cl  0  0  0  0  0  0
    2.0258   -2.9022   -0.0665 H   0  0  0  0  0  0
   -0.1773   -2.3201    1.7135 H   0  0  0  0  0  0
   -2.6089   -2.6982    1.6731 H   0  0  0  0  0  0
   -2.9337   -0.2919   -1.8337 H   0  0  0  0  0  0
   -0.5037    0.0972   -1.7981 H   0  0  0  0  0  0
   -6.3256   -0.5601    0.8909 H   0  0  0  0  0  0
   -4.8099    0.0954    1.2004 H   0  0  0  0  0  0
   -0.7072    0.8928    0.7534 H   0  0  0  0  0  0
   -1.7982    3.0967    0.7887 H   0  0  0  0  0  0
    1.7957    4.9176   -0.6215 H   0  0  0  0  0  0
    2.9054    2.7231   -0.6573 H   0  0  0  0  0  0
  1  2  1  0  0  0
  1  5  2  0  0  0
  1 20  1  0  0  0
  2  3  1  0  0  0
  2 10  1  0  0  0
  3  4  2  0  0  0
  3 27  1  0  0  0
  4  5  1  0  0  0
  4  6  1  0  0  0
  6  7  1  0  0  0
  6  8  1  0  0  0
  6  9  1  0  0  0
 10 11  1  0  0  0
 10 15  2  0  0  0
 11 12  2  0  0  0
 11 28  1  0  0  0
 12 13  1  0  0  0
 12 29  1  0  0  0
 13 14  2  0  0  0
 13 16  1  0  0  0
 14 15  1  0  0  0
 14 30  1  0  0  0
 15 31  1  0  0  0
 16 17  2  0  0  0
 16 18  2  0  0  0
 16 19  1  0  0  0
 19 32  1  0  0  0
 19 33  1  0  0  0
 20 21  1  0  0  0
 20 25  2  0  0  0
 21 22  2  0  0  0
 21 34  1  0  0  0
 22 23  1  0  0  0
 22 35  1  0  0  0
 23 24  2  0  0  0
 23 26  1  0  0  0
 24 25  1  0  0  0
 24 36  1  0  0  0
 25 37  1  0  0  0
M  END
>  <Activity>
8

>  <set>
1

>  <Min_dist>
999.9

>  <Avg_dist>
999.9

$$$$
3-20
  Cerius2 12110214513D 1   1.00000                          
 
 37 39  0  0  0  0  0  0  0  0999 V2000
    1.8026    0.7653    0.0440 C   0  0  0  0  0  0
    1.0971   -0.4035   -0.0176 N   0  0  0  0  0  0
    2.0137   -1.4221   -0.0529 C   0  0  0  0  0  0
    3.2364   -0.8543   -0.0124 C   0  0  0  0  0  0
    3.0846    0.4738    0.0461 N   0  0  0  0  0  0
    4.5509   -1.5910   -0.0296 C   0  0  0  0  0  0
    5.6025   -0.6699    0.0248 F   0  0  0  0  0  0
    4.6214   -2.4450    1.0763 F   0  0  0  0  0  0
    4.6492   -2.3421   -1.2057 F   0  0  0  0  0  0
   -0.2979   -0.5355   -0.0400 C   0  0  0  0  0  0
   -0.9397   -1.3016    0.9238 C   0  0  0  0  0  0
   -2.3147   -1.4299    0.8991 C   0  0  0  0  0  0
   -3.0520   -0.7966   -0.0845 C   0  0  0  0  0  0
   -2.4157   -0.0329   -1.0457 C   0  0  0  0  0  0
   -1.0415    0.1042   -1.0226 C   0  0  0  0  0  0
   -4.8058   -0.9636   -0.1133 S   0  0  0  0  0  0
   -5.1979   -0.6881   -1.4511 O   0  0  0  0  0  0
   -5.0914   -2.1603    0.5976 O   0  0  0  0  0  0
   -5.4352    0.2646    0.8020 N   0  0  0  0  0  0
    1.2236    2.1250    0.0932 C   0  0  0  0  0  0
   -0.0963    2.3099    0.5070 C   0  0  0  0  0  0
   -0.6306    3.5812    0.5507 C   0  0  0  0  0  0
    0.1390    4.6712    0.1850 C   0  0  0  0  0  0
    1.4480    4.4946   -0.2265 C   0  0  0  0  0  0
    1.9964    3.2293   -0.2683 C   0  0  0  0  0  0
    1.7977   -2.4790   -0.1032 H   0  0  0  0  0  0
   -0.3643   -1.7970    1.6918 H   0  0  0  0  0  0
   -2.8144   -2.0257    1.6485 H   0  0  0  0  0  0
   -2.9942    0.4602   -1.8129 H   0  0  0  0  0  0
   -0.5451    0.7011   -1.7735 H   0  0  0  0  0  0
   -6.3957    0.3457    0.9102 H   0  0  0  0  0  0
   -4.8433    0.9029    1.2299 H   0  0  0  0  0  0
   -0.6983    1.4598    0.7920 H   0  0  0  0  0  0
   -1.6520    3.7257    0.8707 H   0  0  0  0  0  0
   -0.2841    5.6643    0.2206 H   0  0  0  0  0  0
    2.0434    5.3496   -0.5110 H   0  0  0  0  0  0
    3.0185    3.0928   -0.5894 H   0  0  0  0  0  0
  1  2  1  0  0  0
  1  5  2  0  0  0
  1 20  1  0  0  0
  2  3  1  0  0  0
  2 10  1  0  0  0
  3  4  2  0  0  0
  3 26  1  0  0  0
  4  5  1  0  0  0
  4  6  1  0  0  0
  6  7  1  0  0  0
  6  8  1  0  0  0
  6  9  1  0  0  0
 10 11  1  0  0  0
 10 15  2  0  0  0
 11 12  2  0  0  0
 11 27  1  0  0  0
 12 13  1  0  0  0
 12 28  1  0  0  0
 13 14  2  0  0  0
 13 16  1  0  0  0
 14 15  1  0  0  0
 14 29  1  0  0  0
 15 30  1  0  0  0
 16 17  2  0  0  0
 16 18  2  0  0  0
 16 19  1  0  0  0
 19 31  1  0  0  0
 19 32  1  0  0  0
 20 21  1  0  0  0
 20 25  2  0  0  0
 21 22  2  0  0  0
 21 33  1  0  0  0
 22 23  1  0  0  0
 22 34  1  0  0  0
 23 24  2  0  0  0
 23 35  1  0  0  0
 24 25  1  0  0  0
 24 36  1  0  0  0
 25 37  1  0  0  0
M  END
>  <Activity>
7.39794

>  <set>
1

>  <Min_dist>
999.9

>  <Avg_dist>
999.9

$$$$
3-22
  Cerius2 12110214513D 1   1.00000                          
 
 38 40  0  0  0  0  0  0  0  0999 V2000
    1.9204    0.6410   -0.0546 C   0  0  0  0  0  0
    1.3440   -0.5980   -0.0370 N   0  0  0  0  0  0
    2.3640   -1.5123    0.0155 C   0  0  0  0  0  0
    3.5185   -0.8154    0.0283 C   0  0  0  0  0  0
    3.2258    0.4895   -0.0149 N   0  0  0  0  0  0
    4.9038   -1.4063    0.0821 C   0  0  0  0  0  0
    5.8505   -0.3762    0.0802 F   0  0  0  0  0  0
    5.0423   -2.1648    1.2494 F   0  0  0  0  0  0
    5.1047   -2.2263   -1.0335 F   0  0  0  0  0  0
   -0.0283   -0.8801   -0.0668 C   0  0  0  0  0  0
   -0.6048   -1.6382    0.9434 C   0  0  0  0  0  0
   -1.9578   -1.9141    0.9115 C   0  0  0  0  0  0
   -2.7379   -1.4366   -0.1256 C   0  0  0  0  0  0
   -2.1666   -0.6817   -1.1334 C   0  0  0  0  0  0
   -0.8153   -0.3972   -1.1038 C   0  0  0  0  0  0
   -4.4635   -1.7912   -0.1632 S   0  0  0  0  0  0
   -4.7686   -1.7247   -1.5494 O   0  0  0  0  0  0
   -4.5519   -3.0039    0.5722 O   0  0  0  0  0  0
   -5.1908   -0.4020    0.7488 C   0  0  0  0  0  0
    1.1996    1.9307   -0.1145 C   0  0  0  0  0  0
   -0.1405    2.0029    0.2682 C   0  0  0  0  0  0
   -0.8076    3.2102    0.2097 C   0  0  0  0  0  0
   -0.1494    4.3473   -0.2280 C   0  0  0  0  0  0
    1.1787    4.2814   -0.6084 C   0  0  0  0  0  0
    1.8582    3.0818   -0.5486 C   0  0  0  0  0  0
   -2.4747    3.3029    0.6851 Cl  0  0  0  0  0  0
    2.2623   -2.5872    0.0417 H   0  0  0  0  0  0
    0.0041   -2.0120    1.7533 H   0  0  0  0  0  0
   -2.4068   -2.5038    1.6970 H   0  0  0  0  0  0
   -2.7784   -0.3104   -1.9423 H   0  0  0  0  0  0
   -0.3696    0.1924   -1.8912 H   0  0  0  0  0  0
   -6.2737   -0.5203    0.7881 H   0  0  0  0  0  0
   -4.7904   -0.3833    1.7624 H   0  0  0  0  0  0
   -4.9455    0.5323    0.2439 H   0  0  0  0  0  0
   -0.6546    1.1163    0.6089 H   0  0  0  0  0  0
   -0.6754    5.2895   -0.2727 H   0  0  0  0  0  0
    1.6864    5.1716   -0.9491 H   0  0  0  0  0  0
    2.8954    3.0321   -0.8457 H   0  0  0  0  0  0
  1  2  1  0  0  0
  1  5  2  0  0  0
  1 20  1  0  0  0
  2  3  1  0  0  0
  2 10  1  0  0  0
  3  4  2  0  0  0
  3 27  1  0  0  0
  4  5  1  0  0  0
  4  6  1  0  0  0
  6  7  1  0  0  0
  6  8  1  0  0  0
  6  9  1  0  0  0
 10 11  1  0  0  0
 10 15  2  0  0  0
 11 12  2  0  0  0
 11 28  1  0  0  0
 12 13  1  0  0  0
 12 29  1  0  0  0
 13 14  2  0  0  0
 13 16  1  0  0  0
 14 15  1  0  0  0
 14 30  1  0  0  0
 15 31  1  0  0  0
 16 17  2  0  0  0
 16 18  2  0  0  0
 16 19  1  0  0  0
 19 32  1  0  0  0
 19 33  1  0  0  0
 19 34  1  0  0  0
 20 21  1  0  0  0
 20 25  2  0  0  0
 21 22  2  0  0  0
 21 35  1  0  0  0
 22 23  1  0  0  0
 22 26  1  0  0  0
 23 24  2  0  0  0
 23 36  1  0  0  0
 24 25  1  0  0  0
 24 37  1  0  0  0
 25 38  1  0  0  0
M  END
>  <Activity>
7.22185

>  <set>
1

>  <Min_dist>
999.9

>  <Avg_dist>
999.9

$$$$
3-27
  Cerius2 12110214513D 1   1.00000                          
 
 42 44  0  0  0  0  0  0  0  0999 V2000
    1.8800    0.6255   -0.0361 C   0  0  0  0  0  0
    1.3039   -0.6137   -0.0289 N   0  0  0  0  0  0
    2.3243   -1.5283    0.0072 C   0  0  0  0  0  0
    3.4788   -0.8313    0.0209 C   0  0  0  0  0  0
    3.1855    0.4739   -0.0059 N   0  0  0  0  0  0
    4.8645   -1.4224    0.0608 C   0  0  0  0  0  0
    5.8110   -0.3922    0.0645 F   0  0  0  0  0  0
    5.0095   -2.1931    1.2193 F   0  0  0  0  0  0
    5.0592   -2.2306   -1.0644 F   0  0  0  0  0  0
   -0.0686   -0.8957   -0.0538 C   0  0  0  0  0  0
   -0.6389   -1.6652    0.9513 C   0  0  0  0  0  0
   -1.9919   -1.9415    0.9240 C   0  0  0  0  0  0
   -2.7782   -1.4530   -0.1032 C   0  0  0  0  0  0
   -2.2130   -0.6867   -1.1059 C   0  0  0  0  0  0
   -0.8618   -0.4015   -1.0806 C   0  0  0  0  0  0
   -4.5037   -1.8081   -0.1349 S   0  0  0  0  0  0
   -4.8169   -1.7265   -1.5185 O   0  0  0  0  0  0
   -4.5874   -3.0289    0.5876 O   0  0  0  0  0  0
   -5.2265   -0.4295    0.7965 C   0  0  0  0  0  0
    1.1586    1.9158   -0.0773 C   0  0  0  0  0  0
   -0.1786    1.9828    0.3143 C   0  0  0  0  0  0
   -0.8477    3.1942    0.2731 C   0  0  0  0  0  0
   -0.1883    4.3380   -0.1575 C   0  0  0  0  0  0
    1.1368    4.2730   -0.5458 C   0  0  0  0  0  0
    1.8148    3.0716   -0.5027 C   0  0  0  0  0  0
   -2.1505    3.2639    0.6537 O   0  0  0  0  0  0
   -2.5530    4.6266    0.5013 C   0  0  0  0  0  0
    2.2229   -2.6034    0.0220 H   0  0  0  0  0  0
   -0.0252   -2.0477    1.7535 H   0  0  0  0  0  0
   -2.4361   -2.5400    1.7056 H   0  0  0  0  0  0
   -2.8295   -0.3071   -1.9073 H   0  0  0  0  0  0
   -0.4209    0.1971   -1.8640 H   0  0  0  0  0  0
   -6.3091   -0.5488    0.8407 H   0  0  0  0  0  0
   -4.8203   -0.4217    1.8079 H   0  0  0  0  0  0
   -4.9845    0.5105    0.3005 H   0  0  0  0  0  0
   -0.6905    1.0924    0.6483 H   0  0  0  0  0  0
   -0.7127    5.2816   -0.1894 H   0  0  0  0  0  0
    1.6443    5.1659   -0.8798 H   0  0  0  0  0  0
    2.8501    3.0243   -0.8064 H   0  0  0  0  0  0
   -3.5970    4.7322    0.7963 H   0  0  0  0  0  0
   -1.9311    5.2618    1.1320 H   0  0  0  0  0  0
   -2.4379    4.9250   -0.5407 H   0  0  0  0  0  0
  1  2  1  0  0  0
  1  5  2  0  0  0
  1 20  1  0  0  0
  2  3  1  0  0  0
  2 10  1  0  0  0
  3  4  2  0  0  0
  3 28  1  0  0  0
  4  5  1  0  0  0
  4  6  1  0  0  0
  6  7  1  0  0  0
  6  8  1  0  0  0
  6  9  1  0  0  0
 10 11  1  0  0  0
 10 15  2  0  0  0
 11 12  2  0  0  0
 11 29  1  0  0  0
 12 13  1  0  0  0
 12 30  1  0  0  0
 13 14  2  0  0  0
 13 16  1  0  0  0
 14 15  1  0  0  0
 14 31  1  0  0  0
 15 32  1  0  0  0
 16 17  2  0  0  0
 16 18  2  0  0  0
 16 19  1  0  0  0
 19 33  1  0  0  0
 19 34  1  0  0  0
 19 35  1  0  0  0
 20 21  1  0  0  0
 20 25  2  0  0  0
 21 22  2  0  0  0
 21 36  1  0  0  0
 22 23  1  0  0  0
 22 26  1  0  0  0
 23 24  2  0  0  0
 23 37  1  0  0  0
 24 25  1  0  0  0
 24 38  1  0  0  0
 25 39  1  0  0  0
 26 27  1  0  0  0
 27 40  1  0  0  0
 27 41  1  0  0  0
 27 42  1  0  0  0
M  END
>  <Activity>
6.45593

>  <set>
1

>  <Min_dist>
999.9

>  <Avg_dist>
999.9

$$$$
3-28
  Cerius2 12110214513D 1   1.00000                          
 
 42 44  0  0  0  0  0  0  0  0999 V2000
    1.9626    0.6291   -0.0649 C   0  0  0  0  0  0
    1.4817   -0.6497   -0.0346 N   0  0  0  0  0  0
    2.5678   -1.4835    0.0304 C   0  0  0  0  0  0
    3.6662   -0.7010    0.0378 C   0  0  0  0  0  0
    3.2755    0.5774   -0.0206 N   0  0  0  0  0  0
    5.0921   -1.1845    0.1012 C   0  0  0  0  0  0
    5.9581   -0.0858    0.0898 F   0  0  0  0  0  0
    5.2841   -1.9175    1.2772 F   0  0  0  0  0  0
    5.3578   -1.9992   -1.0047 F   0  0  0  0  0  0
    0.1347   -1.0353   -0.0643 C   0  0  0  0  0  0
   -0.3857   -1.8238    0.9532 C   0  0  0  0  0  0
   -1.7137   -2.2022    0.9211 C   0  0  0  0  0  0
   -2.5246   -1.7966   -0.1229 C   0  0  0  0  0  0
   -2.0091   -1.0116   -1.1379 C   0  0  0  0  0  0
   -0.6835   -0.6249   -1.1082 C   0  0  0  0  0  0
   -4.2182   -2.2814   -0.1603 S   0  0  0  0  0  0
   -4.5233   -2.2534   -1.5478 O   0  0  0  0  0  0
   -4.2167   -3.4892    0.5884 O   0  0  0  0  0  0
   -5.0515   -0.9414    0.7345 C   0  0  0  0  0  0
    1.1463    1.8598   -0.1409 C   0  0  0  0  0  0
   -0.1952    1.8339    0.2386 C   0  0  0  0  0  0
   -0.9543    2.9923    0.1650 C   0  0  0  0  0  0
   -0.3766    4.1744   -0.2862 C   0  0  0  0  0  0
    0.9529    4.1993   -0.6620 C   0  0  0  0  0  0
    1.7178    3.0525   -0.5872 C   0  0  0  0  0  0
   -2.6502    2.9665    0.6424 S   0  0  0  0  0  0
   -3.0894    4.7001    0.3388 C   0  0  0  0  0  0
    2.5477   -2.5626    0.0689 H   0  0  0  0  0  0
    0.2473   -2.1412    1.7686 H   0  0  0  0  0  0
   -2.1190   -2.8158    1.7120 H   0  0  0  0  0  0
   -2.6448   -0.6967   -1.9522 H   0  0  0  0  0  0
   -0.2813   -0.0118   -1.9012 H   0  0  0  0  0  0
   -6.1224   -1.1410    0.7727 H   0  0  0  0  0  0
   -4.6567   -0.8812    1.7487 H   0  0  0  0  0  0
   -4.8761    0.0032    0.2197 H   0  0  0  0  0  0
   -0.6417    0.9148    0.5883 H   0  0  0  0  0  0
   -0.9690    5.0756   -0.3433 H   0  0  0  0  0  0
    1.3961    5.1200   -1.0116 H   0  0  0  0  0  0
    2.7566    3.0763   -0.8817 H   0  0  0  0  0  0
   -4.1379    4.8589    0.5910 H   0  0  0  0  0  0
   -2.4653    5.3465    0.9559 H   0  0  0  0  0  0
   -2.9289    4.9367   -0.7131 H   0  0  0  0  0  0
  1  2  1  0  0  0
  1  5  2  0  0  0
  1 20  1  0  0  0
  2  3  1  0  0  0
  2 10  1  0  0  0
  3  4  2  0  0  0
  3 28  1  0  0  0
  4  5  1  0  0  0
  4  6  1  0  0  0
  6  7  1  0  0  0
  6  8  1  0  0  0
  6  9  1  0  0  0
 10 11  1  0  0  0
 10 15  2  0  0  0
 11 12  2  0  0  0
 11 29  1  0  0  0
 12 13  1  0  0  0
 12 30  1  0  0  0
 13 14  2  0  0  0
 13 16  1  0  0  0
 14 15  1  0  0  0
 14 31  1  0  0  0
 15 32  1  0  0  0
 16 17  2  0  0  0
 16 18  2  0  0  0
 16 19  1  0  0  0
 19 33  1  0  0  0
 19 34  1  0  0  0
 19 35  1  0  0  0
 20 21  1  0  0  0
 20 25  2  0  0  0
 21 22  2  0  0  0
 21 36  1  0  0  0
 22 23  1  0  0  0
 22 26  1  0  0  0
 23 24  2  0  0  0
 23 37  1  0  0  0
 24 25  1  0  0  0
 24 38  1  0  0  0
 25 39  1  0  0  0
 26 27  1  0  0  0
 27 40  1  0  0  0
 27 41  1  0  0  0
 27 42  1  0  0  0
M  END
>  <Activity>
6.45593

>  <set>
1

>  <Min_dist>
999.9

>  <Avg_dist>
999.9

$$$$
3-30
  Cerius2 12110214513D 1   1.00000                          
 
 46 48  0  0  0  0  0  0  0  0999 V2000
    1.4973    0.2953   -0.1689 C   0  0  0  0  0  0
    0.5056    1.2231   -0.0167 N   0  0  0  0  0  0
    1.1150    2.4474    0.0767 C   0  0  0  0  0  0
    2.4434    2.2355   -0.0197 C   0  0  0  0  0  0
    2.6528    0.9223   -0.1682 N   0  0  0  0  0  0
    3.5110    3.2979    0.0305 C   0  0  0  0  0  0
    4.7694    2.7010   -0.1019 F   0  0  0  0  0  0
    3.3138    4.2069   -1.0145 F   0  0  0  0  0  0
    3.4410    3.9719    1.2544 F   0  0  0  0  0  0
   -0.8720    0.9710    0.0337 C   0  0  0  0  0  0
   -1.7273    1.5994   -0.8614 C   0  0  0  0  0  0
   -3.0846    1.3485   -0.8096 C   0  0  0  0  0  0
   -3.5917    0.4726    0.1326 C   0  0  0  0  0  0
   -2.7423   -0.1548    1.0254 C   0  0  0  0  0  0
   -1.3835    0.0880    0.9751 C   0  0  0  0  0  0
   -5.3238    0.1556    0.1960 S   0  0  0  0  0  0
   -5.5263   -0.2180    1.5520 O   0  0  0  0  0  0
   -5.8815    1.3422   -0.3518 O   0  0  0  0  0  0
   -5.5266   -1.2570   -0.9239 C   0  0  0  0  0  0
    1.3042   -1.1646   -0.3047 C   0  0  0  0  0  0
    2.3310   -2.0415    0.0442 C   0  0  0  0  0  0
    2.1426   -3.4088   -0.0859 C   0  0  0  0  0  0
    0.9331   -3.9015   -0.5627 C   0  0  0  0  0  0
   -0.0842   -3.0322   -0.9083 C   0  0  0  0  0  0
    0.0918   -1.6694   -0.7770 C   0  0  0  0  0  0
    3.1681   -4.2915    0.2617 N   0  0  0  0  0  0
    3.0152   -5.7269    0.0117 C   0  0  0  0  0  0
    4.3964   -3.7817    0.8763 C   0  0  0  0  0  0
    0.6243    3.4011    0.2036 H   0  0  0  0  0  0
   -1.3319    2.2839   -1.5973 H   0  0  0  0  0  0
   -3.7505    1.8372   -1.5054 H   0  0  0  0  0  0
   -3.1414   -0.8381    1.7604 H   0  0  0  0  0  0
   -0.7206   -0.4025    1.6725 H   0  0  0  0  0  0
   -6.5778   -1.5426   -0.9618 H   0  0  0  0  0  0
   -5.1890   -0.9803   -1.9227 H   0  0  0  0  0  0
   -4.9348   -2.0970   -0.5601 H   0  0  0  0  0  0
    3.2699   -1.6567    0.4140 H   0  0  0  0  0  0
    0.7882   -4.9669   -0.6637 H   0  0  0  0  0  0
   -1.0216   -3.4206   -1.2782 H   0  0  0  0  0  0
   -0.7058   -0.9934   -1.0478 H   0  0  0  0  0  0
    3.9103   -6.2513    0.3463 H   0  0  0  0  0  0
    2.1494   -6.1007    0.5584 H   0  0  0  0  0  0
    2.8721   -5.8966   -1.0554 H   0  0  0  0  0  0
    4.3658   -2.6924    0.8999 H   0  0  0  0  0  0
    4.4799   -4.1649    1.8933 H   0  0  0  0  0  0
    5.2572   -4.1085    0.2930 H   0  0  0  0  0  0
  1  2  1  0  0  0
  1  5  2  0  0  0
  1 20  1  0  0  0
  2  3  1  0  0  0
  2 10  1  0  0  0
  3  4  2  0  0  0
  3 29  1  0  0  0
  4  5  1  0  0  0
  4  6  1  0  0  0
  6  7  1  0  0  0
  6  8  1  0  0  0
  6  9  1  0  0  0
 10 11  1  0  0  0
 10 15  2  0  0  0
 11 12  2  0  0  0
 11 30  1  0  0  0
 12 13  1  0  0  0
 12 31  1  0  0  0
 13 14  2  0  0  0
 13 16  1  0  0  0
 14 15  1  0  0  0
 14 32  1  0  0  0
 15 33  1  0  0  0
 16 17  2  0  0  0
 16 18  2  0  0  0
 16 19  1  0  0  0
 19 34  1  0  0  0
 19 35  1  0  0  0
 19 36  1  0  0  0
 20 21  1  0  0  0
 20 25  2  0  0  0
 21 22  2  0  0  0
 21 37  1  0  0  0
 22 23  1  0  0  0
 22 26  1  0  0  0
 23 24  2  0  0  0
 23 38  1  0  0  0
 24 25  1  0  0  0
 24 39  1  0  0  0
 25 40  1  0  0  0
 26 27  1  0  0  0
 26 28  1  0  0  0
 27 41  1  0  0  0
 27 42  1  0  0  0
 27 43  1  0  0  0
 28 44  1  0  0  0
 28 45  1  0  0  0
 28 46  1  0  0  0
M  END
>  <Activity>
5.49485

>  <set>
1

>  <Min_dist>
999.9

>  <Avg_dist>
999.9

$$$$
3-31
  Cerius2 12110214513D 1   1.00000                          
 
 43 45  0  0  0  0  0  0  0  0999 V2000
    1.8868    0.6498   -0.0391 C   0  0  0  0  0  0
    1.3186   -0.5930   -0.0291 N   0  0  0  0  0  0
    2.3446   -1.5010    0.0124 C   0  0  0  0  0  0
    3.4946   -0.7966    0.0264 C   0  0  0  0  0  0
    3.1932    0.5066   -0.0054 N   0  0  0  0  0  0
    4.8839   -1.3788    0.0711 C   0  0  0  0  0  0
    5.8239   -0.3426    0.0736 F   0  0  0  0  0  0
    5.0314   -2.1449    1.2324 F   0  0  0  0  0  0
    5.0863   -2.1893   -1.0511 F   0  0  0  0  0  0
   -0.0521   -0.8838   -0.0557 C   0  0  0  0  0  0
   -0.6196   -1.6533    0.9510 C   0  0  0  0  0  0
   -1.9708   -1.9379    0.9223 C   0  0  0  0  0  0
   -2.7583   -1.4571   -0.1077 C   0  0  0  0  0  0
   -2.1960   -0.6904   -1.1117 C   0  0  0  0  0  0
   -0.8463   -0.3981   -1.0857 C   0  0  0  0  0  0
   -4.4816   -1.8227   -0.1411 S   0  0  0  0  0  0
   -4.7929   -1.7471   -1.5255 O   0  0  0  0  0  0
   -4.5592   -3.0419    0.5848 O   0  0  0  0  0  0
   -5.2143   -0.4457    0.7849 C   0  0  0  0  0  0
    1.1573    1.9353   -0.0862 C   0  0  0  0  0  0
   -0.1807    1.9951    0.3026 C   0  0  0  0  0  0
   -0.8580    3.2038    0.2557 C   0  0  0  0  0  0
   -0.2032    4.3510   -0.1779 C   0  0  0  0  0  0
    1.1227    4.2915   -0.5631 C   0  0  0  0  0  0
    1.8073    3.0938   -0.5145 C   0  0  0  0  0  0
   -2.1984    3.2690    0.6437 N   0  0  0  0  0  0
   -2.9141    4.5463    0.5941 C   0  0  0  0  0  0
    2.2500   -2.5767    0.0305 H   0  0  0  0  0  0
   -0.0050   -2.0294    1.7556 H   0  0  0  0  0  0
   -2.4128   -2.5367    1.7049 H   0  0  0  0  0  0
   -2.8135   -0.3167   -1.9151 H   0  0  0  0  0  0
   -0.4078    0.2010   -1.8700 H   0  0  0  0  0  0
   -6.2961   -0.5714    0.8276 H   0  0  0  0  0  0
   -4.8098   -0.4324    1.7970 H   0  0  0  0  0  0
   -4.9771    0.4943    0.2865 H   0  0  0  0  0  0
   -0.6876    1.1026    0.6388 H   0  0  0  0  0  0
   -0.7325    5.2917   -0.2141 H   0  0  0  0  0  0
    1.6262    5.1859   -0.8991 H   0  0  0  0  0  0
    2.8434    3.0515   -0.8161 H   0  0  0  0  0  0
   -2.6553    2.4685    0.9459 H   0  0  0  0  0  0
   -3.9404    4.4011    0.9314 H   0  0  0  0  0  0
   -2.4167    5.2669    1.2433 H   0  0  0  0  0  0
   -2.9177    4.9213   -0.4294 H   0  0  0  0  0  0
  1  2  1  0  0  0
  1  5  2  0  0  0
  1 20  1  0  0  0
  2  3  1  0  0  0
  2 10  1  0  0  0
  3  4  2  0  0  0
  3 28  1  0  0  0
  4  5  1  0  0  0
  4  6  1  0  0  0
  6  7  1  0  0  0
  6  8  1  0  0  0
  6  9  1  0  0  0
 10 11  1  0  0  0
 10 15  2  0  0  0
 11 12  2  0  0  0
 11 29  1  0  0  0
 12 13  1  0  0  0
 12 30  1  0  0  0
 13 14  2  0  0  0
 13 16  1  0  0  0
 14 15  1  0  0  0
 14 31  1  0  0  0
 15 32  1  0  0  0
 16 17  2  0  0  0
 16 18  2  0  0  0
 16 19  1  0  0  0
 19 33  1  0  0  0
 19 34  1  0  0  0
 19 35  1  0  0  0
 20 21  1  0  0  0
 20 25  2  0  0  0
 21 22  2  0  0  0
 21 36  1  0  0  0
 22 23  1  0  0  0
 22 26  1  0  0  0
 23 24  2  0  0  0
 23 37  1  0  0  0
 24 25  1  0  0  0
 24 38  1  0  0  0
 25 39  1  0  0  0
 26 27  1  0  0  0
 26 40  1  0  0  0
 27 41  1  0  0  0
 27 42  1  0  0  0
 27 43  1  0  0  0
M  END
>  <Activity>
6.03621

>  <set>
1

>  <Min_dist>
999.9

>  <Avg_dist>
999.9

$$$$
3-32
  Cerius2 12110214513D 1   1.00000                          
 
 40 42  0  0  0  0  0  0  0  0999 V2000
    1.8314    0.6923   -0.0078 C   0  0  0  0  0  0
    1.1761   -0.5067   -0.0276 N   0  0  0  0  0  0
    2.1350   -1.4862   -0.0182 C   0  0  0  0  0  0
    3.3324   -0.8661    0.0066 C   0  0  0  0  0  0
    3.1245    0.4557    0.0125 N   0  0  0  0  0  0
    4.6768   -1.5466    0.0255 C   0  0  0  0  0  0
    5.6883   -0.5804    0.0494 F   0  0  0  0  0  0
    4.7754   -2.3531    1.1643 F   0  0  0  0  0  0
    4.8150   -2.3381   -1.1198 F   0  0  0  0  0  0
   -0.2119   -0.6984   -0.0522 C   0  0  0  0  0  0
   -0.8275   -1.4532    0.9372 C   0  0  0  0  0  0
   -2.1958   -1.6400    0.9105 C   0  0  0  0  0  0
   -2.9523   -1.0762   -0.1003 C   0  0  0  0  0  0
   -2.3421   -0.3239   -1.0871 C   0  0  0  0  0  0
   -0.9749   -0.1292   -1.0629 C   0  0  0  0  0  0
   -4.6975   -1.3172   -0.1313 S   0  0  0  0  0  0
   -5.0099   -1.1813   -1.5108 O   0  0  0  0  0  0
   -4.8580   -2.5473    0.5617 O   0  0  0  0  0  0
   -5.3252    0.0823    0.8372 C   0  0  0  0  0  0
    1.1952    2.0273   -0.0146 C   0  0  0  0  0  0
   -0.1330    2.1713    0.3853 C   0  0  0  0  0  0
   -0.7227    3.4259    0.3762 C   0  0  0  0  0  0
    0.0100    4.5352   -0.0307 C   0  0  0  0  0  0
    1.3262    4.3922   -0.4270 C   0  0  0  0  0  0
    1.9239    3.1480   -0.4159 C   0  0  0  0  0  0
   -2.0530    3.5755    0.7754 N   0  0  0  0  0  0
    1.9640   -2.5525   -0.0288 H   0  0  0  0  0  0
   -0.2371   -1.8942    1.7268 H   0  0  0  0  0  0
   -2.6752   -2.2273    1.6797 H   0  0  0  0  0  0
   -2.9356    0.1149   -1.8755 H   0  0  0  0  0  0
   -0.4989    0.4587   -1.8337 H   0  0  0  0  0  0
   -6.4131    0.0328    0.8842 H   0  0  0  0  0  0
   -4.9155    0.0387    1.8463 H   0  0  0  0  0  0
   -5.0242    1.0165    0.3629 H   0  0  0  0  0  0
   -0.7005    1.3082    0.7007 H   0  0  0  0  0  0
   -0.4510    5.5119   -0.0375 H   0  0  0  0  0  0
    1.8905    5.2575   -0.7421 H   0  0  0  0  0  0
    2.9528    3.0404   -0.7260 H   0  0  0  0  0  0
   -2.4655    4.4534    0.7691 H   0  0  0  0  0  0
   -2.5642    2.8015    1.0590 H   0  0  0  0  0  0
  1  2  1  0  0  0
  1  5  2  0  0  0
  1 20  1  0  0  0
  2  3  1  0  0  0
  2 10  1  0  0  0
  3  4  2  0  0  0
  3 27  1  0  0  0
  4  5  1  0  0  0
  4  6  1  0  0  0
  6  7  1  0  0  0
  6  8  1  0  0  0
  6  9  1  0  0  0
 10 11  1  0  0  0
 10 15  2  0  0  0
 11 12  2  0  0  0
 11 28  1  0  0  0
 12 13  1  0  0  0
 12 29  1  0  0  0
 13 14  2  0  0  0
 13 16  1  0  0  0
 14 15  1  0  0  0
 14 30  1  0  0  0
 15 31  1  0  0  0
 16 17  2  0  0  0
 16 18  2  0  0  0
 16 19  1  0  0  0
 19 32  1  0  0  0
 19 33  1  0  0  0
 19 34  1  0  0  0
 20 21  1  0  0  0
 20 25  2  0  0  0
 21 22  2  0  0  0
 21 35  1  0  0  0
 22 23  1  0  0  0
 22 26  1  0  0  0
 23 24  2  0  0  0
 23 36  1  0  0  0
 24 25  1  0  0  0
 24 37  1  0  0  0
 25 38  1  0  0  0
 26 39  1  0  0  0
 26 40  1  0  0  0
M  END
>  <Activity>
5.22988

>  <set>
1

>  <Min_dist>
999.9

>  <Avg_dist>
999.9

$$$$
3-38
  Cerius2 12110214513D 1   1.00000                          
 
 38 40  0  0  0  0  0  0  0  0999 V2000
    1.5493    0.3661    0.3194 C   0  0  0  0  0  0
    0.7527   -0.7233    0.1039 N   0  0  0  0  0  0
    1.5824   -1.8089   -0.0089 C   0  0  0  0  0  0
    2.8446   -1.3580    0.1389 C   0  0  0  0  0  0
    2.8013   -0.0353    0.3371 N   0  0  0  0  0  0
    4.0928   -2.2010    0.0893 C   0  0  0  0  0  0
    5.2136   -1.3865    0.2834 F   0  0  0  0  0  0
    4.0410   -3.1707    1.0964 F   0  0  0  0  0  0
    4.1826   -2.8283   -1.1580 F   0  0  0  0  0  0
   -0.6459   -0.7295    0.0155 C   0  0  0  0  0  0
   -1.3921   -1.5496    0.8511 C   0  0  0  0  0  0
   -2.7704   -1.5532    0.7620 C   0  0  0  0  0  0
   -3.4072   -0.7412   -0.1584 C   0  0  0  0  0  0
   -2.6668    0.0767   -0.9921 C   0  0  0  0  0  0
   -1.2884    0.0886   -0.9040 C   0  0  0  0  0  0
   -5.1657   -0.7490   -0.2695 S   0  0  0  0  0  0
   -5.3981   -0.3527   -1.6142 O   0  0  0  0  0  0
   -5.5056   -2.0444    0.2055 O   0  0  0  0  0  0
   -5.6596    0.5439    0.9031 C   0  0  0  0  0  0
    1.0837    1.7581    0.4960 C   0  0  0  0  0  0
    1.6884    2.7960   -0.2170 C   0  0  0  0  0  0
    1.2482    4.0936   -0.0469 C   0  0  0  0  0  0
    0.2113    4.3662    0.8274 C   0  0  0  0  0  0
   -0.3912    3.3424    1.5366 C   0  0  0  0  0  0
    0.0343    2.0403    1.3712 C   0  0  0  0  0  0
    2.9904    2.4553   -1.3136 Cl  0  0  0  0  0  0
    1.2819   -2.8316   -0.1828 H   0  0  0  0  0  0
   -0.8952   -2.1844    1.5699 H   0  0  0  0  0  0
   -3.3513   -2.1912    1.4115 H   0  0  0  0  0  0
   -3.1669    0.7096   -1.7102 H   0  0  0  0  0  0
   -0.7107    0.7279   -1.5552 H   0  0  0  0  0  0
   -6.7464    0.6268    0.9160 H   0  0  0  0  0  0
   -5.3031    0.2854    1.9002 H   0  0  0  0  0  0
   -5.2262    1.4962    0.5978 H   0  0  0  0  0  0
    1.7145    4.8974   -0.5973 H   0  0  0  0  0  0
   -0.1291    5.3828    0.9572 H   0  0  0  0  0  0
   -1.1999    3.5624    2.2178 H   0  0  0  0  0  0
   -0.4372    1.2424    1.9257 H   0  0  0  0  0  0
  1  2  1  0  0  0
  1  5  2  0  0  0
  1 20  1  0  0  0
  2  3  1  0  0  0
  2 10  1  0  0  0
  3  4  2  0  0  0
  3 27  1  0  0  0
  4  5  1  0  0  0
  4  6  1  0  0  0
  6  7  1  0  0  0
  6  8  1  0  0  0
  6  9  1  0  0  0
 10 11  1  0  0  0
 10 15  2  0  0  0
 11 12  2  0  0  0
 11 28  1  0  0  0
 12 13  1  0  0  0
 12 29  1  0  0  0
 13 14  2  0  0  0
 13 16  1  0  0  0
 14 15  1  0  0  0
 14 30  1  0  0  0
 15 31  1  0  0  0
 16 17  2  0  0  0
 16 18  2  0  0  0
 16 19  1  0  0  0
 19 32  1  0  0  0
 19 33  1  0  0  0
 19 34  1  0  0  0
 20 21  1  0  0  0
 20 25  2  0  0  0
 21 22  2  0  0  0
 21 26  1  0  0  0
 22 23  1  0  0  0
 22 35  1  0  0  0
 23 24  2  0  0  0
 23 36  1  0  0  0
 24 25  1  0  0  0
 24 37  1  0  0  0
 25 38  1  0  0  0
M  END
>  <Activity>
6.04576

>  <set>
1

>  <Min_dist>
999.9

>  <Avg_dist>
999.9

$$$$
3-40
  Cerius2 12110214513D 1   1.00000                          
 
 41 43  0  0  0  0  0  0  0  0999 V2000
    1.6908    0.6024    0.1783 C   0  0  0  0  0  0
    0.9511   -0.5387    0.0426 N   0  0  0  0  0  0
    1.8366   -1.5826   -0.0293 C   0  0  0  0  0  0
    3.0751   -1.0567    0.0633 C   0  0  0  0  0  0
    2.9630    0.2707    0.1886 N   0  0  0  0  0  0
    4.3665   -1.8328    0.0314 C   0  0  0  0  0  0
    5.4445   -0.9494    0.1533 F   0  0  0  0  0  0
    4.3888   -2.7448    1.0921 F   0  0  0  0  0  0
    4.4651   -2.5245   -1.1806 F   0  0  0  0  0  0
   -0.4465   -0.6252   -0.0121 C   0  0  0  0  0  0
   -1.1290   -1.4357    0.8851 C   0  0  0  0  0  0
   -2.5065   -1.5189    0.8286 C   0  0  0  0  0  0
   -3.2059   -0.7964   -0.1206 C   0  0  0  0  0  0
   -2.5290    0.0117   -1.0155 C   0  0  0  0  0  0
   -1.1520    0.1038   -0.9600 C   0  0  0  0  0  0
   -4.9631   -0.9060   -0.1902 S   0  0  0  0  0  0
   -5.2442   -0.6003   -1.5491 O   0  0  0  0  0  0
   -5.2209   -2.1888    0.3641 O   0  0  0  0  0  0
   -5.5044    0.4228    0.9197 C   0  0  0  0  0  0
    1.1528    1.9753    0.2883 C   0  0  0  0  0  0
    1.6639    2.9949   -0.5162 C   0  0  0  0  0  0
    1.1577    4.2735   -0.4087 C   0  0  0  0  0  0
    0.1457    4.5465    0.4947 C   0  0  0  0  0  0
   -0.3649    3.5406    1.2954 C   0  0  0  0  0  0
    0.1281    2.2559    1.1929 C   0  0  0  0  0  0
    2.7667    2.6996   -1.4999 C   0  0  0  0  0  0
    1.5894   -2.6282   -0.1389 H   0  0  0  0  0  0
   -0.5833   -2.0008    1.6262 H   0  0  0  0  0  0
   -3.0379   -2.1492    1.5263 H   0  0  0  0  0  0
   -3.0779    0.5746   -1.7560 H   0  0  0  0  0  0
   -0.6239    0.7354   -1.6591 H   0  0  0  0  0  0
   -6.5936    0.4471    0.9532 H   0  0  0  0  0  0
   -5.1140    0.2413    1.9211 H   0  0  0  0  0  0
   -5.1308    1.3783    0.5518 H   0  0  0  0  0  0
    1.5522    5.0634   -1.0306 H   0  0  0  0  0  0
   -0.2470    5.5494    0.5753 H   0  0  0  0  0  0
   -1.1545    3.7602    1.9987 H   0  0  0  0  0  0
   -0.2716    1.4713    1.8183 H   0  0  0  0  0  0
    2.3322    2.4113   -2.4571 H   0  0  0  0  0  0
    3.3823    3.5892   -1.6335 H   0  0  0  0  0  0
    3.3833    1.8847   -1.1207 H   0  0  0  0  0  0
  1  2  1  0  0  0
  1  5  2  0  0  0
  1 20  1  0  0  0
  2  3  1  0  0  0
  2 10  1  0  0  0
  3  4  2  0  0  0
  3 27  1  0  0  0
  4  5  1  0  0  0
  4  6  1  0  0  0
  6  7  1  0  0  0
  6  8  1  0  0  0
  6  9  1  0  0  0
 10 11  1  0  0  0
 10 15  2  0  0  0
 11 12  2  0  0  0
 11 28  1  0  0  0
 12 13  1  0  0  0
 12 29  1  0  0  0
 13 14  2  0  0  0
 13 16  1  0  0  0
 14 15  1  0  0  0
 14 30  1  0  0  0
 15 31  1  0  0  0
 16 17  2  0  0  0
 16 18  2  0  0  0
 16 19  1  0  0  0
 19 32  1  0  0  0
 19 33  1  0  0  0
 19 34  1  0  0  0
 20 21  1  0  0  0
 20 25  2  0  0  0
 21 22  2  0  0  0
 21 26  1  0  0  0
 22 23  1  0  0  0
 22 35  1  0  0  0
 23 24  2  0  0  0
 23 36  1  0  0  0
 24 25  1  0  0  0
 24 37  1  0  0  0
 25 38  1  0  0  0
 26 39  1  0  0  0
 26 40  1  0  0  0
 26 41  1  0  0  0
M  END
>  <Activity>
6.09691

>  <set>
1

>  <Min_dist>
999.9

>  <Avg_dist>
999.9

$$$$
3-42
  Cerius2 12110214513D 1   1.00000                          
 
 37 39  0  0  0  0  0  0  0  0999 V2000
    1.6968    0.5520    0.1911 C   0  0  0  0  0  0
    0.9451   -0.5798    0.0432 N   0  0  0  0  0  0
    1.8201   -1.6327   -0.0376 C   0  0  0  0  0  0
    3.0636   -1.1210    0.0618 C   0  0  0  0  0  0
    2.9654    0.2066    0.2000 N   0  0  0  0  0  0
    4.3468   -1.9103    0.0239 C   0  0  0  0  0  0
    5.4339   -1.0397    0.1560 F   0  0  0  0  0  0
    4.3579   -2.8331    1.0753 F   0  0  0  0  0  0
    4.4397   -2.5908   -1.1949 F   0  0  0  0  0  0
   -0.4532   -0.6510   -0.0144 C   0  0  0  0  0  0
   -1.1457   -1.4626    0.8741 C   0  0  0  0  0  0
   -2.5239   -1.5307    0.8148 C   0  0  0  0  0  0
   -3.2141   -0.7918   -0.1285 C   0  0  0  0  0  0
   -2.5273    0.0171   -1.0150 C   0  0  0  0  0  0
   -1.1495    0.0945   -0.9564 C   0  0  0  0  0  0
   -4.9723   -0.8817   -0.2013 S   0  0  0  0  0  0
   -5.3248   -0.4862   -1.5198 O   0  0  0  0  0  0
   -5.3212   -2.1173    0.4077 O   0  0  0  0  0  0
   -5.5701    0.2966    0.7969 N   0  0  0  0  0  0
    1.1734    1.9291    0.3136 C   0  0  0  0  0  0
    1.7238    2.9603   -0.4531 C   0  0  0  0  0  0
    1.2285    4.2449   -0.3331 C   0  0  0  0  0  0
    0.1918    4.5099    0.5433 C   0  0  0  0  0  0
   -0.3562    3.4931    1.3049 C   0  0  0  0  0  0
    0.1240    2.2046    1.1908 C   0  0  0  0  0  0
    2.7370    2.7020   -1.3086 F   0  0  0  0  0  0
    1.5620   -2.6745   -0.1576 H   0  0  0  0  0  0
   -0.6071   -2.0405    1.6106 H   0  0  0  0  0  0
   -3.0631   -2.1619    1.5057 H   0  0  0  0  0  0
   -3.0690    0.5925   -1.7512 H   0  0  0  0  0  0
   -0.6136    0.7264   -1.6491 H   0  0  0  0  0  0
   -6.5285    0.4095    0.8942 H   0  0  0  0  0  0
   -4.9617    0.8739    1.2843 H   0  0  0  0  0  0
    1.6520    5.0433   -0.9243 H   0  0  0  0  0  0
   -0.1916    5.5155    0.6339 H   0  0  0  0  0  0
   -1.1653    3.7077    1.9873 H   0  0  0  0  0  0
   -0.3054    1.4126    1.7864 H   0  0  0  0  0  0
  1  2  1  0  0  0
  1  5  2  0  0  0
  1 20  1  0  0  0
  2  3  1  0  0  0
  2 10  1  0  0  0
  3  4  2  0  0  0
  3 27  1  0  0  0
  4  5  1  0  0  0
  4  6  1  0  0  0
  6  7  1  0  0  0
  6  8  1  0  0  0
  6  9  1  0  0  0
 10 11  1  0  0  0
 10 15  2  0  0  0
 11 12  2  0  0  0
 11 28  1  0  0  0
 12 13  1  0  0  0
 12 29  1  0  0  0
 13 14  2  0  0  0
 13 16  1  0  0  0
 14 15  1  0  0  0
 14 30  1  0  0  0
 15 31  1  0  0  0
 16 17  2  0  0  0
 16 18  2  0  0  0
 16 19  1  0  0  0
 19 32  1  0  0  0
 19 33  1  0  0  0
 20 21  1  0  0  0
 20 25  2  0  0  0
 21 22  2  0  0  0
 21 26  1  0  0  0
 22 23  1  0  0  0
 22 34  1  0  0  0
 23 24  2  0  0  0
 23 35  1  0  0  0
 24 25  1  0  0  0
 24 36  1  0  0  0
 25 37  1  0  0  0
M  END
>  <Activity>
7

>  <set>
1

>  <Min_dist>
999.9

>  <Avg_dist>
999.9

$$$$
3-43
  Cerius2 12110214513D 1   1.00000                          
 
 40 42  0  0  0  0  0  0  0  0999 V2000
    1.7153    0.5995    0.1804 C   0  0  0  0  0  0
    0.9741   -0.5400    0.0393 N   0  0  0  0  0  0
    1.8583   -1.5847   -0.0369 C   0  0  0  0  0  0
    3.0974   -1.0609    0.0586 C   0  0  0  0  0  0
    2.9870    0.2661    0.1898 N   0  0  0  0  0  0
    4.3878   -1.8385    0.0239 C   0  0  0  0  0  0
    5.4669   -0.9572    0.1502 F   0  0  0  0  0  0
    4.4083   -2.7553    1.0805 F   0  0  0  0  0  0
    4.4860   -2.5250   -1.1911 F   0  0  0  0  0  0
   -0.4236   -0.6243   -0.0165 C   0  0  0  0  0  0
   -1.1076   -1.4379    0.8768 C   0  0  0  0  0  0
   -2.4852   -1.5190    0.8193 C   0  0  0  0  0  0
   -3.1832   -0.7913   -0.1270 C   0  0  0  0  0  0
   -2.5048    0.0198   -1.0180 C   0  0  0  0  0  0
   -1.1277    0.1099   -0.9615 C   0  0  0  0  0  0
   -4.9405   -0.8983   -0.1979 S   0  0  0  0  0  0
   -5.2978   -0.5125   -1.5180 O   0  0  0  0  0  0
   -5.2772   -2.1342    0.4174 O   0  0  0  0  0  0
   -5.5487    0.2791    0.7951 N   0  0  0  0  0  0
    1.1790    1.9727    0.2963 C   0  0  0  0  0  0
    1.6919    2.9951   -0.5035 C   0  0  0  0  0  0
    1.1873    4.2740   -0.3905 C   0  0  0  0  0  0
    0.1752    4.5443    0.5137 C   0  0  0  0  0  0
   -0.3371    3.5355    1.3096 C   0  0  0  0  0  0
    0.1543    2.2506    1.2016 C   0  0  0  0  0  0
    2.7948    2.7028   -1.4880 C   0  0  0  0  0  0
    1.6097   -2.6295   -0.1513 H   0  0  0  0  0  0
   -0.5630   -2.0070    1.6156 H   0  0  0  0  0  0
   -3.0178   -2.1517    1.5139 H   0  0  0  0  0  0
   -3.0526    0.5867   -1.7562 H   0  0  0  0  0  0
   -0.5984    0.7438   -1.6575 H   0  0  0  0  0  0
   -6.5081    0.3833    0.8927 H   0  0  0  0  0  0
   -4.9455    0.8645    1.2792 H   0  0  0  0  0  0
    1.5832    5.0661   -1.0087 H   0  0  0  0  0  0
   -0.2162    5.5473    0.5986 H   0  0  0  0  0  0
   -1.1267    3.7530    2.0135 H   0  0  0  0  0  0
   -0.2468    1.4638    1.8233 H   0  0  0  0  0  0
    2.3603    2.4193   -2.4466 H   0  0  0  0  0  0
    3.4115    3.5921   -1.6173 H   0  0  0  0  0  0
    3.4101    1.8854   -1.1120 H   0  0  0  0  0  0
  1  2  1  0  0  0
  1  5  2  0  0  0
  1 20  1  0  0  0
  2  3  1  0  0  0
  2 10  1  0  0  0
  3  4  2  0  0  0
  3 27  1  0  0  0
  4  5  1  0  0  0
  4  6  1  0  0  0
  6  7  1  0  0  0
  6  8  1  0  0  0
  6  9  1  0  0  0
 10 11  1  0  0  0
 10 15  2  0  0  0
 11 12  2  0  0  0
 11 28  1  0  0  0
 12 13  1  0  0  0
 12 29  1  0  0  0
 13 14  2  0  0  0
 13 16  1  0  0  0
 14 15  1  0  0  0
 14 30  1  0  0  0
 15 31  1  0  0  0
 16 17  2  0  0  0
 16 18  2  0  0  0
 16 19  1  0  0  0
 19 32  1  0  0  0
 19 33  1  0  0  0
 20 21  1  0  0  0
 20 25  2  0  0  0
 21 22  2  0  0  0
 21 26  1  0  0  0
 22 23  1  0  0  0
 22 34  1  0  0  0
 23 24  2  0  0  0
 23 35  1  0  0  0
 24 25  1  0  0  0
 24 36  1  0  0  0
 25 37  1  0  0  0
 26 38  1  0  0  0
 26 39  1  0  0  0
 26 40  1  0  0  0
M  END
>  <Activity>
6.69897

>  <set>
1

>  <Min_dist>
999.9

>  <Avg_dist>
999.9

$$$$
3-44
  Cerius2 12110214513D 1   1.00000                          
 
 42 44  0  0  0  0  0  0  0  0999 V2000
    1.8443    0.2332    0.0145 C   0  0  0  0  0  0
    1.2003   -0.9716   -0.0266 N   0  0  0  0  0  0
    2.1692   -1.9426   -0.0331 C   0  0  0  0  0  0
    3.3601   -1.3119    0.0037 C   0  0  0  0  0  0
    3.1398    0.0081    0.0322 N   0  0  0  0  0  0
    4.7109   -1.9800    0.0116 C   0  0  0  0  0  0
    5.7132   -1.0049    0.0535 F   0  0  0  0  0  0
    4.8163   -2.8056    1.1360 F   0  0  0  0  0  0
    4.8572   -2.7496   -1.1475 F   0  0  0  0  0  0
   -0.1858   -1.1760   -0.0565 C   0  0  0  0  0  0
   -0.7954   -1.9539    0.9187 C   0  0  0  0  0  0
   -2.1617   -2.1536    0.8866 C   0  0  0  0  0  0
   -2.9223   -1.5800   -0.1157 C   0  0  0  0  0  0
   -2.3180   -0.8052   -1.0886 C   0  0  0  0  0  0
   -0.9530   -0.5964   -1.0581 C   0  0  0  0  0  0
   -4.6650   -1.8375   -0.1537 S   0  0  0  0  0  0
   -4.9766   -1.6813   -1.5312 O   0  0  0  0  0  0
   -4.8144   -3.0808    0.5181 O   0  0  0  0  0  0
   -5.3078   -0.4609    0.8374 C   0  0  0  0  0  0
    1.1961    1.5614    0.0299 C   0  0  0  0  0  0
   -0.1355    1.6857    0.4320 C   0  0  0  0  0  0
   -0.7367    2.9276    0.4448 C   0  0  0  0  0  0
   -0.0177    4.0536    0.0575 C   0  0  0  0  0  0
    1.3055    3.9322   -0.3428 C   0  0  0  0  0  0
    1.9150    2.6951   -0.3518 C   0  0  0  0  0  0
   -0.6125    5.2754    0.0707 O   0  0  0  0  0  0
    0.3672    6.2166   -0.3724 C   0  0  0  0  0  0
   -2.0248    3.0499    0.8334 F   0  0  0  0  0  0
    2.0084   -3.0102   -0.0618 H   0  0  0  0  0  0
   -0.2018   -2.4027    1.7014 H   0  0  0  0  0  0
   -2.6365   -2.7586    1.6449 H   0  0  0  0  0  0
   -2.9146   -0.3591   -1.8706 H   0  0  0  0  0  0
   -0.4816    0.0089   -1.8182 H   0  0  0  0  0  0
   -6.3952   -0.5219    0.8818 H   0  0  0  0  0  0
   -4.8992   -0.5177    1.8463 H   0  0  0  0  0  0
   -5.0153    0.4841    0.3796 H   0  0  0  0  0  0
   -0.6938    0.8113    0.7320 H   0  0  0  0  0  0
    1.8603    4.8087   -0.6435 H   0  0  0  0  0  0
    2.9448    2.6023   -0.6636 H   0  0  0  0  0  0
   -0.0663    7.2166   -0.3784 H   0  0  0  0  0  0
    1.2228    6.1955    0.3027 H   0  0  0  0  0  0
    0.6925    5.9555   -1.3794 H   0  0  0  0  0  0
  1  2  1  0  0  0
  1  5  2  0  0  0
  1 20  1  0  0  0
  2  3  1  0  0  0
  2 10  1  0  0  0
  3  4  2  0  0  0
  3 29  1  0  0  0
  4  5  1  0  0  0
  4  6  1  0  0  0
  6  7  1  0  0  0
  6  8  1  0  0  0
  6  9  1  0  0  0
 10 11  1  0  0  0
 10 15  2  0  0  0
 11 12  2  0  0  0
 11 30  1  0  0  0
 12 13  1  0  0  0
 12 31  1  0  0  0
 13 14  2  0  0  0
 13 16  1  0  0  0
 14 15  1  0  0  0
 14 32  1  0  0  0
 15 33  1  0  0  0
 16 17  2  0  0  0
 16 18  2  0  0  0
 16 19  1  0  0  0
 19 34  1  0  0  0
 19 35  1  0  0  0
 19 36  1  0  0  0
 20 21  1  0  0  0
 20 25  2  0  0  0
 21 22  2  0  0  0
 21 37  1  0  0  0
 22 23  1  0  0  0
 22 28  1  0  0  0
 23 24  2  0  0  0
 23 26  1  0  0  0
 24 25  1  0  0  0
 24 38  1  0  0  0
 25 39  1  0  0  0
 26 27  1  0  0  0
 27 40  1  0  0  0
 27 41  1  0  0  0
 27 42  1  0  0  0
M  END
>  <Activity>
6.82391

>  <set>
1

>  <Min_dist>
999.9

>  <Avg_dist>
999.9

$$$$
3-46
  Cerius2 12110214513D 1   1.00000                          
 
 42 44  0  0  0  0  0  0  0  0999 V2000
    1.6641   -0.5354    0.1208 C   0  0  0  0  0  0
    0.8200   -1.6061    0.0212 N   0  0  0  0  0  0
    1.6038   -2.7320   -0.0014 C   0  0  0  0  0  0
    2.8852   -2.3226    0.0837 C   0  0  0  0  0  0
    2.8993   -0.9860    0.1570 N   0  0  0  0  0  0
    4.0972   -3.2182    0.0954 C   0  0  0  0  0  0
    5.2535   -2.4369    0.1944 F   0  0  0  0  0  0
    4.0254   -4.0857    1.1906 F   0  0  0  0  0  0
    4.1378   -3.9634   -1.0879 F   0  0  0  0  0  0
   -0.5791   -1.5620   -0.0444 C   0  0  0  0  0  0
   -1.3413   -2.2680    0.8767 C   0  0  0  0  0  0
   -2.7201   -2.2222    0.8098 C   0  0  0  0  0  0
   -3.3415   -1.4744   -0.1734 C   0  0  0  0  0  0
   -2.5852   -0.7702   -1.0923 C   0  0  0  0  0  0
   -1.2060   -0.8078   -1.0272 C   0  0  0  0  0  0
   -5.1007   -1.4190   -0.2559 S   0  0  0  0  0  0
   -5.3431   -1.1416   -1.6283 O   0  0  0  0  0  0
   -5.4831   -2.6486    0.3450 O   0  0  0  0  0  0
   -5.5194   -0.0020    0.7965 C   0  0  0  0  0  0
    1.2589    0.8845    0.1725 C   0  0  0  0  0  0
    2.1021    1.8721   -0.3426 C   0  0  0  0  0  0
    1.7213    3.1955   -0.2929 C   0  0  0  0  0  0
    0.4974    3.5482    0.2702 C   0  0  0  0  0  0
   -0.3434    2.5665    0.7835 C   0  0  0  0  0  0
    0.0299    1.2412    0.7312 C   0  0  0  0  0  0
    0.0135    5.2413    0.3328 S   0  0  0  0  0  0
   -1.6022    5.0775    1.1410 C   0  0  0  0  0  0
    2.7683    4.4239   -0.9321 Cl  0  0  0  0  0  0
    1.2593   -3.7530   -0.0738 H   0  0  0  0  0  0
   -0.8565   -2.8525    1.6446 H   0  0  0  0  0  0
   -3.3134   -2.7714    1.5258 H   0  0  0  0  0  0
   -3.0733   -0.1873   -1.8592 H   0  0  0  0  0  0
   -0.6158   -0.2574   -1.7449 H   0  0  0  0  0  0
   -6.6015    0.1271    0.8184 H   0  0  0  0  0  0
   -5.1542   -0.1802    1.8079 H   0  0  0  0  0  0
   -5.0540    0.8984    0.3956 H   0  0  0  0  0  0
    3.0514    1.5986   -0.7790 H   0  0  0  0  0  0
   -1.2920    2.8429    1.2197 H   0  0  0  0  0  0
   -0.6237    0.4796    1.1301 H   0  0  0  0  0  0
   -2.0510    6.0637    1.2593 H   0  0  0  0  0  0
   -2.2530    4.4532    0.5288 H   0  0  0  0  0  0
   -1.4734    4.6170    2.1206 H   0  0  0  0  0  0
  1  2  1  0  0  0
  1  5  2  0  0  0
  1 20  1  0  0  0
  2  3  1  0  0  0
  2 10  1  0  0  0
  3  4  2  0  0  0
  3 29  1  0  0  0
  4  5  1  0  0  0
  4  6  1  0  0  0
  6  7  1  0  0  0
  6  8  1  0  0  0
  6  9  1  0  0  0
 10 11  1  0  0  0
 10 15  2  0  0  0
 11 12  2  0  0  0
 11 30  1  0  0  0
 12 13  1  0  0  0
 12 31  1  0  0  0
 13 14  2  0  0  0
 13 16  1  0  0  0
 14 15  1  0  0  0
 14 32  1  0  0  0
 15 33  1  0  0  0
 16 17  2  0  0  0
 16 18  2  0  0  0
 16 19  1  0  0  0
 19 34  1  0  0  0
 19 35  1  0  0  0
 19 36  1  0  0  0
 20 21  1  0  0  0
 20 25  2  0  0  0
 21 22  2  0  0  0
 21 37  1  0  0  0
 22 23  1  0  0  0
 22 28  1  0  0  0
 23 24  2  0  0  0
 23 26  1  0  0  0
 24 25  1  0  0  0
 24 38  1  0  0  0
 25 39  1  0  0  0
 26 27  1  0  0  0
 27 40  1  0  0  0
 27 41  1  0  0  0
 27 42  1  0  0  0
M  END
>  <Activity>
7.39794

>  <set>
1

>  <Min_dist>
999.9

>  <Avg_dist>
999.9

$$$$
3-47
  Cerius2 12110214513D 1   1.00000                          
 
 46 48  0  0  0  0  0  0  0  0999 V2000
    1.9539    0.2289   -0.0185 C   0  0  0  0  0  0
    1.4931   -1.0579   -0.0391 N   0  0  0  0  0  0
    2.5937   -1.8768   -0.0152 C   0  0  0  0  0  0
    3.6791   -1.0782    0.0188 C   0  0  0  0  0  0
    3.2682    0.1959    0.0162 N   0  0  0  0  0  0
    5.1128   -1.5413    0.0538 C   0  0  0  0  0  0
    5.9614   -0.4294    0.0836 F   0  0  0  0  0  0
    5.3236   -2.3196    1.1971 F   0  0  0  0  0  0
    5.3842   -2.3047   -1.0866 F   0  0  0  0  0  0
    0.1522   -1.4633   -0.0769 C   0  0  0  0  0  0
   -0.3474   -2.3070    0.9061 C   0  0  0  0  0  0
   -1.6695   -2.7045    0.8664 C   0  0  0  0  0  0
   -2.4953   -2.2635   -0.1513 C   0  0  0  0  0  0
   -2.0006   -1.4232   -1.1318 C   0  0  0  0  0  0
   -0.6808   -1.0177   -1.0943 C   0  0  0  0  0  0
   -4.1811   -2.7737   -0.1992 S   0  0  0  0  0  0
   -4.4978   -2.6854   -1.5816 O   0  0  0  0  0  0
   -4.1542   -4.0153    0.4915 O   0  0  0  0  0  0
   -5.0285   -1.4912    0.7639 C   0  0  0  0  0  0
    1.1188    1.4479   -0.0382 C   0  0  0  0  0  0
   -0.2016    1.3989    0.4147 C   0  0  0  0  0  0
   -0.9777    2.5378    0.3955 C   0  0  0  0  0  0
   -0.4466    3.7352   -0.0752 C   0  0  0  0  0  0
    0.8670    3.7861   -0.5269 C   0  0  0  0  0  0
    1.6498    2.6520   -0.5042 C   0  0  0  0  0  0
   -1.2346    4.8867   -0.0941 N   0  0  0  0  0  0
   -0.5585    5.8749    0.7570 C   0  0  0  0  0  0
   -1.1868    5.4085   -1.4665 C   0  0  0  0  0  0
   -2.6189    2.4786    0.9580 Cl  0  0  0  0  0  0
    2.5909   -2.9568   -0.0218 H   0  0  0  0  0  0
    0.2972   -2.6523    1.7009 H   0  0  0  0  0  0
   -2.0587   -3.3607    1.6308 H   0  0  0  0  0  0
   -2.6479   -1.0804   -1.9255 H   0  0  0  0  0  0
   -0.2950   -0.3614   -1.8604 H   0  0  0  0  0  0
   -6.0957   -1.7100    0.8005 H   0  0  0  0  0  0
   -4.6266   -1.4724    1.7769 H   0  0  0  0  0  0
   -4.8725   -0.5206    0.2931 H   0  0  0  0  0  0
   -0.6140    0.4697    0.7793 H   0  0  0  0  0  0
    1.2761    4.7166   -0.8921 H   0  0  0  0  0  0
    2.6704    2.6926   -0.8550 H   0  0  0  0  0  0
   -1.1391    6.7973    0.7743 H   0  0  0  0  0  0
   -0.4701    5.4822    1.7699 H   0  0  0  0  0  0
    0.4353    6.0786    0.3582 H   0  0  0  0  0  0
   -1.7909    6.3134   -1.5324 H   0  0  0  0  0  0
   -0.1552    5.6402   -1.7314 H   0  0  0  0  0  0
   -1.5789    4.6590   -2.1540 H   0  0  0  0  0  0
  1  2  1  0  0  0
  1  5  2  0  0  0
  1 20  1  0  0  0
  2  3  1  0  0  0
  2 10  1  0  0  0
  3  4  2  0  0  0
  3 30  1  0  0  0
  4  5  1  0  0  0
  4  6  1  0  0  0
  6  7  1  0  0  0
  6  8  1  0  0  0
  6  9  1  0  0  0
 10 11  1  0  0  0
 10 15  2  0  0  0
 11 12  2  0  0  0
 11 31  1  0  0  0
 12 13  1  0  0  0
 12 32  1  0  0  0
 13 14  2  0  0  0
 13 16  1  0  0  0
 14 15  1  0  0  0
 14 33  1  0  0  0
 15 34  1  0  0  0
 16 17  2  0  0  0
 16 18  2  0  0  0
 16 19  1  0  0  0
 19 35  1  0  0  0
 19 36  1  0  0  0
 19 37  1  0  0  0
 20 21  1  0  0  0
 20 25  2  0  0  0
 21 22  2  0  0  0
 21 38  1  0  0  0
 22 23  1  0  0  0
 22 29  1  0  0  0
 23 24  2  0  0  0
 23 26  1  0  0  0
 24 25  1  0  0  0
 24 39  1  0  0  0
 25 40  1  0  0  0
 26 27  1  0  0  0
 26 28  1  0  0  0
 27 41  1  0  0  0
 27 42  1  0  0  0
 27 43  1  0  0  0
 28 44  1  0  0  0
 28 45  1  0  0  0
 28 46  1  0  0  0
M  END
>  <Activity>
6.49485

>  <set>
1

>  <Min_dist>
999.9

>  <Avg_dist>
999.9

$$$$
3-50
  Cerius2 12110214513D 1   1.00000                          
 
 41 43  0  0  0  0  0  0  0  0999 V2000
    1.9368    0.5087   -0.0412 C   0  0  0  0  0  0
    1.4002   -0.7482   -0.0362 N   0  0  0  0  0  0
    2.4488   -1.6301    0.0060 C   0  0  0  0  0  0
    3.5806   -0.8969    0.0253 C   0  0  0  0  0  0
    3.2464    0.3984   -0.0040 N   0  0  0  0  0  0
    4.9840   -1.4439    0.0719 C   0  0  0  0  0  0
    5.8975   -0.3843    0.0802 F   0  0  0  0  0  0
    5.1477   -2.2098    1.2312 F   0  0  0  0  0  0
    5.2097   -2.2454   -1.0523 F   0  0  0  0  0  0
    0.0375   -1.0735   -0.0681 C   0  0  0  0  0  0
   -0.5136   -1.8600    0.9345 C   0  0  0  0  0  0
   -1.8571   -2.1785    0.9005 C   0  0  0  0  0  0
   -2.6531   -1.7153   -0.1309 C   0  0  0  0  0  0
   -2.1071   -0.9320   -1.1312 C   0  0  0  0  0  0
   -0.7655   -0.6050   -1.0994 C   0  0  0  0  0  0
   -4.3665   -2.1242   -0.1710 S   0  0  0  0  0  0
   -4.6750   -2.0529   -1.5563 O   0  0  0  0  0  0
   -4.4156   -3.3468    0.5516 O   0  0  0  0  0  0
   -5.1368   -0.7685    0.7559 C   0  0  0  0  0  0
    1.1753    1.7754   -0.0872 C   0  0  0  0  0  0
   -0.1660    1.8008    0.2971 C   0  0  0  0  0  0
   -0.8713    2.9868    0.2518 C   0  0  0  0  0  0
   -0.2500    4.1489   -0.1743 C   0  0  0  0  0  0
    1.0792    4.1292   -0.5563 C   0  0  0  0  0  0
    1.7965    2.9513   -0.5096 C   0  0  0  0  0  0
   -1.0255    5.4401   -0.2225 C   0  0  0  0  0  0
   -2.5400    3.0215    0.7293 Cl  0  0  0  0  0  0
    2.3814   -2.7078    0.0210 H   0  0  0  0  0  0
    0.1077   -2.2228    1.7400 H   0  0  0  0  0  0
   -2.2864   -2.7904    1.6802 H   0  0  0  0  0  0
   -2.7312   -0.5719   -1.9357 H   0  0  0  0  0  0
   -0.3396    0.0067   -1.8809 H   0  0  0  0  0  0
   -6.2153   -0.9216    0.7947 H   0  0  0  0  0  0
   -4.7361   -0.7476    1.7694 H   0  0  0  0  0  0
   -4.9218    0.1784    0.2606 H   0  0  0  0  0  0
   -0.6513    0.8948    0.6289 H   0  0  0  0  0  0
    1.5579    5.0387   -0.8881 H   0  0  0  0  0  0
    2.8344    2.9378   -0.8079 H   0  0  0  0  0  0
   -0.9318    5.9561    0.7331 H   0  0  0  0  0  0
   -0.6295    6.0724   -1.0172 H   0  0  0  0  0  0
   -2.0762    5.2258   -0.4183 H   0  0  0  0  0  0
  1  2  1  0  0  0
  1  5  2  0  0  0
  1 20  1  0  0  0
  2  3  1  0  0  0
  2 10  1  0  0  0
  3  4  2  0  0  0
  3 28  1  0  0  0
  4  5  1  0  0  0
  4  6  1  0  0  0
  6  7  1  0  0  0
  6  8  1  0  0  0
  6  9  1  0  0  0
 10 11  1  0  0  0
 10 15  2  0  0  0
 11 12  2  0  0  0
 11 29  1  0  0  0
 12 13  1  0  0  0
 12 30  1  0  0  0
 13 14  2  0  0  0
 13 16  1  0  0  0
 14 15  1  0  0  0
 14 31  1  0  0  0
 15 32  1  0  0  0
 16 17  2  0  0  0
 16 18  2  0  0  0
 16 19  1  0  0  0
 19 33  1  0  0  0
 19 34  1  0  0  0
 19 35  1  0  0  0
 20 21  1  0  0  0
 20 25  2  0  0  0
 21 22  2  0  0  0
 21 36  1  0  0  0
 22 23  1  0  0  0
 22 27  1  0  0  0
 23 24  2  0  0  0
 23 26  1  0  0  0
 24 25  1  0  0  0
 24 37  1  0  0  0
 25 38  1  0  0  0
 26 39  1  0  0  0
 26 40  1  0  0  0
 26 41  1  0  0  0
M  END
>  <Activity>
7.52288

>  <set>
1

>  <Min_dist>
999.9

>  <Avg_dist>
999.9

$$$$
3-52
  Cerius2 12110214513D 1   1.00000                          
 
 41 43  0  0  0  0  0  0  0  0999 V2000
    1.8454    0.4885   -0.0051 C   0  0  0  0  0  0
    1.2204   -0.7266   -0.0267 N   0  0  0  0  0  0
    2.2040   -1.6820   -0.0188 C   0  0  0  0  0  0
    3.3851   -1.0322    0.0070 C   0  0  0  0  0  0
    3.1441    0.2842    0.0149 N   0  0  0  0  0  0
    4.7463   -1.6787    0.0245 C   0  0  0  0  0  0
    5.7331   -0.6875    0.0500 F   0  0  0  0  0  0
    4.8652   -2.4845    1.1619 F   0  0  0  0  0  0
    4.9041   -2.4645   -1.1222 F   0  0  0  0  0  0
   -0.1624   -0.9532   -0.0517 C   0  0  0  0  0  0
   -0.7588   -1.7248    0.9365 C   0  0  0  0  0  0
   -2.1218   -1.9463    0.9092 C   0  0  0  0  0  0
   -2.8923   -1.4005   -0.1010 C   0  0  0  0  0  0
   -2.3011   -0.6319   -1.0869 C   0  0  0  0  0  0
   -0.9395   -0.4017   -1.0615 C   0  0  0  0  0  0
   -4.6309   -1.6853   -0.1324 S   0  0  0  0  0  0
   -4.9465   -1.5557   -1.5118 O   0  0  0  0  0  0
   -4.7603   -2.9199    0.5591 O   0  0  0  0  0  0
   -5.2937   -0.3032    0.8377 C   0  0  0  0  0  0
    1.1761    1.8068   -0.0099 C   0  0  0  0  0  0
   -0.1564    1.9173    0.3910 C   0  0  0  0  0  0
   -0.7757    3.1492    0.3851 C   0  0  0  0  0  0
   -0.0775    4.2768   -0.0180 C   0  0  0  0  0  0
    1.2454    4.1726   -0.4173 C   0  0  0  0  0  0
    1.8761    2.9460   -0.4097 C   0  0  0  0  0  0
   -0.6889    5.4815   -0.0219 F   0  0  0  0  0  0
   -2.2144    3.2700    0.8171 C   0  0  0  0  0  0
    2.0599   -2.7523   -0.0307 H   0  0  0  0  0  0
   -0.1575   -2.1517    1.7256 H   0  0  0  0  0  0
   -2.5863   -2.5467    1.6774 H   0  0  0  0  0  0
   -2.9054   -0.2072   -1.8748 H   0  0  0  0  0  0
   -0.4783    0.1987   -1.8317 H   0  0  0  0  0  0
   -6.3799   -0.3802    0.8846 H   0  0  0  0  0  0
   -4.8831   -0.3377    1.8468 H   0  0  0  0  0  0
   -5.0163    0.6388    0.3646 H   0  0  0  0  0  0
   -0.7015    1.0393    0.7049 H   0  0  0  0  0  0
    1.7848    5.0542   -0.7308 H   0  0  0  0  0  0
    2.9071    2.8659   -0.7212 H   0  0  0  0  0  0
   -2.2571    3.4566    1.8902 H   0  0  0  0  0  0
   -2.6852    4.0969    0.2855 H   0  0  0  0  0  0
   -2.7415    2.3437    0.5882 H   0  0  0  0  0  0
  1  2  1  0  0  0
  1  5  2  0  0  0
  1 20  1  0  0  0
  2  3  1  0  0  0
  2 10  1  0  0  0
  3  4  2  0  0  0
  3 28  1  0  0  0
  4  5  1  0  0  0
  4  6  1  0  0  0
  6  7  1  0  0  0
  6  8  1  0  0  0
  6  9  1  0  0  0
 10 11  1  0  0  0
 10 15  2  0  0  0
 11 12  2  0  0  0
 11 29  1  0  0  0
 12 13  1  0  0  0
 12 30  1  0  0  0
 13 14  2  0  0  0
 13 16  1  0  0  0
 14 15  1  0  0  0
 14 31  1  0  0  0
 15 32  1  0  0  0
 16 17  2  0  0  0
 16 18  2  0  0  0
 16 19  1  0  0  0
 19 33  1  0  0  0
 19 34  1  0  0  0
 19 35  1  0  0  0
 20 21  1  0  0  0
 20 25  2  0  0  0
 21 22  2  0  0  0
 21 36  1  0  0  0
 22 23  1  0  0  0
 22 27  1  0  0  0
 23 24  2  0  0  0
 23 26  1  0  0  0
 24 25  1  0  0  0
 24 37  1  0  0  0
 25 38  1  0  0  0
 27 39  1  0  0  0
 27 40  1  0  0  0
 27 41  1  0  0  0
M  END
>  <Activity>
6.76955

>  <set>
1

>  <Min_dist>
999.9

>  <Avg_dist>
999.9

$$$$
3-54
  Cerius2 12110214513D 1   1.00000                          
 
 42 44  0  0  0  0  0  0  0  0999 V2000
    1.5824   -0.4035    0.1216 C   0  0  0  0  0  0
    0.6779   -1.4230    0.0201 N   0  0  0  0  0  0
    1.3951   -2.5907   -0.0213 C   0  0  0  0  0  0
    2.6992   -2.2558    0.0552 C   0  0  0  0  0  0
    2.7898   -0.9235    0.1412 N   0  0  0  0  0  0
    3.8582   -3.2190    0.0453 C   0  0  0  0  0  0
    5.0580   -2.5058    0.1406 F   0  0  0  0  0  0
    3.7476   -4.0928    1.1322 F   0  0  0  0  0  0
    3.8450   -3.9524   -1.1459 F   0  0  0  0  0  0
   -0.7170   -1.2986   -0.0315 C   0  0  0  0  0  0
   -1.5092   -1.9598    0.8974 C   0  0  0  0  0  0
   -2.8837   -1.8352    0.8440 C   0  0  0  0  0  0
   -3.4710   -1.0533   -0.1337 C   0  0  0  0  0  0
   -2.6846   -0.3935   -1.0602 C   0  0  0  0  0  0
   -1.3093   -0.5092   -1.0081 C   0  0  0  0  0  0
   -5.2249   -0.8978   -0.1993 S   0  0  0  0  0  0
   -5.4643   -0.6072   -1.5695 O   0  0  0  0  0  0
   -5.6709   -2.1036    0.4061 O   0  0  0  0  0  0
   -5.5519    0.5408    0.8562 C   0  0  0  0  0  0
    1.2589    1.0376    0.1911 C   0  0  0  0  0  0
    2.1973    1.9860   -0.2170 C   0  0  0  0  0  0
    1.8881    3.3333   -0.1494 C   0  0  0  0  0  0
    0.6461    3.7387    0.3244 C   0  0  0  0  0  0
   -0.2848    2.7992    0.7298 C   0  0  0  0  0  0
    0.0118    1.4532    0.6598 C   0  0  0  0  0  0
    0.2620    5.4296    0.4084 Cl  0  0  0  0  0  0
    2.7996    4.2603   -0.5460 O   0  0  0  0  0  0
    3.9589    3.5429   -0.9742 C   0  0  0  0  0  0
    0.9921   -3.5896   -0.0998 H   0  0  0  0  0  0
   -1.0511   -2.5713    1.6608 H   0  0  0  0  0  0
   -3.5004   -2.3494    1.5663 H   0  0  0  0  0  0
   -3.1462    0.2162   -1.8228 H   0  0  0  0  0  0
   -0.6956    0.0066   -1.7318 H   0  0  0  0  0  0
   -6.6247    0.7314    0.8884 H   0  0  0  0  0  0
   -5.1878    0.3422    1.8642 H   0  0  0  0  0  0
   -5.0399    1.4132    0.4502 H   0  0  0  0  0  0
    3.1624    1.6697   -0.5844 H   0  0  0  0  0  0
   -1.2484    3.1198    1.0975 H   0  0  0  0  0  0
   -0.7171    0.7221    0.9769 H   0  0  0  0  0  0
    4.7218    4.2484   -1.3034 H   0  0  0  0  0  0
    4.3458    2.9498   -0.1455 H   0  0  0  0  0  0
    3.6934    2.8832   -1.8003 H   0  0  0  0  0  0
  1  2  1  0  0  0
  1  5  2  0  0  0
  1 20  1  0  0  0
  2  3  1  0  0  0
  2 10  1  0  0  0
  3  4  2  0  0  0
  3 29  1  0  0  0
  4  5  1  0  0  0
  4  6  1  0  0  0
  6  7  1  0  0  0
  6  8  1  0  0  0
  6  9  1  0  0  0
 10 11  1  0  0  0
 10 15  2  0  0  0
 11 12  2  0  0  0
 11 30  1  0  0  0
 12 13  1  0  0  0
 12 31  1  0  0  0
 13 14  2  0  0  0
 13 16  1  0  0  0
 14 15  1  0  0  0
 14 32  1  0  0  0
 15 33  1  0  0  0
 16 17  2  0  0  0
 16 18  2  0  0  0
 16 19  1  0  0  0
 19 34  1  0  0  0
 19 35  1  0  0  0
 19 36  1  0  0  0
 20 21  1  0  0  0
 20 25  2  0  0  0
 21 22  2  0  0  0
 21 37  1  0  0  0
 22 23  1  0  0  0
 22 27  1  0  0  0
 23 24  2  0  0  0
 23 26  1  0  0  0
 24 25  1  0  0  0
 24 38  1  0  0  0
 25 39  1  0  0  0
 27 28  1  0  0  0
 28 40  1  0  0  0
 28 41  1  0  0  0
 28 42  1  0  0  0
M  END
>  <Activity>
6.60206

>  <set>
1

>  <Min_dist>
999.9

>  <Avg_dist>
999.9

$$$$
3-55
  Cerius2 12110214513D 1   1.00000                          
 
 46 48  0  0  0  0  0  0  0  0999 V2000
    1.3850    0.7559   -0.1392 C   0  0  0  0  0  0
    0.3382    1.6270   -0.0235 N   0  0  0  0  0  0
    0.8723    2.8885    0.0294 C   0  0  0  0  0  0
    2.2115    2.7540   -0.0543 C   0  0  0  0  0  0
    2.5006    1.4514   -0.1560 N   0  0  0  0  0  0
    3.2129    3.8800   -0.0365 C   0  0  0  0  0  0
    4.5057    3.3560   -0.1432 F   0  0  0  0  0  0
    2.9677    4.7393   -1.1129 F   0  0  0  0  0  0
    3.0950    4.5900    1.1632 F   0  0  0  0  0  0
   -1.0220    1.2940    0.0301 C   0  0  0  0  0  0
   -1.9083    1.8390   -0.8892 C   0  0  0  0  0  0
   -3.2483    1.5091   -0.8339 C   0  0  0  0  0  0
   -3.7076    0.6372    0.1362 C   0  0  0  0  0  0
   -2.8274    0.0931    1.0535 C   0  0  0  0  0  0
   -1.4851    0.4141    0.9991 C   0  0  0  0  0  0
   -5.4179    0.2191    0.2040 S   0  0  0  0  0  0
   -5.6056   -0.1190    1.5713 O   0  0  0  0  0  0
   -6.0424    1.3506   -0.3867 O   0  0  0  0  0  0
   -5.5292   -1.2408   -0.8669 C   0  0  0  0  0  0
    1.2810   -0.7166   -0.2244 C   0  0  0  0  0  0
    2.3525   -1.5176    0.1709 C   0  0  0  0  0  0
    2.2482   -2.8969    0.0883 C   0  0  0  0  0  0
    1.0773   -3.4785   -0.3878 C   0  0  0  0  0  0
    0.0156   -2.6838   -0.7800 C   0  0  0  0  0  0
    0.1085   -1.3093   -0.6952 C   0  0  0  0  0  0
    0.9490   -5.2067   -0.4904 Cl  0  0  0  0  0  0
    3.3192   -3.7038    0.4828 N   0  0  0  0  0  0
    4.4588   -3.3389   -0.3693 C   0  0  0  0  0  0
    3.6694   -3.3010    1.8514 C   0  0  0  0  0  0
    0.3243    3.8147    0.1203 H   0  0  0  0  0  0
   -1.5503    2.5206   -1.6467 H   0  0  0  0  0  0
   -3.9382    1.9327   -1.5487 H   0  0  0  0  0  0
   -3.1892   -0.5870    1.8105 H   0  0  0  0  0  0
   -0.7981   -0.0114    1.7156 H   0  0  0  0  0  0
   -6.5612   -1.5902   -0.8989 H   0  0  0  0  0  0
   -5.2029   -0.9789   -1.8734 H   0  0  0  0  0  0
   -4.8903   -2.0307   -0.4719 H   0  0  0  0  0  0
    3.2606   -1.0641    0.5399 H   0  0  0  0  0  0
   -0.8909   -3.1404   -1.1491 H   0  0  0  0  0  0
   -0.7228   -0.6920   -1.0025 H   0  0  0  0  0  0
    5.3236   -3.9446   -0.0985 H   0  0  0  0  0  0
    4.2032   -3.5172   -1.4138 H   0  0  0  0  0  0
    4.6952   -2.2843   -0.2280 H   0  0  0  0  0  0
    4.5047   -3.9053    2.2054 H   0  0  0  0  0  0
    3.9534   -2.2486    1.8590 H   0  0  0  0  0  0
    2.8102   -3.4502    2.5052 H   0  0  0  0  0  0
  1  2  1  0  0  0
  1  5  2  0  0  0
  1 20  1  0  0  0
  2  3  1  0  0  0
  2 10  1  0  0  0
  3  4  2  0  0  0
  3 30  1  0  0  0
  4  5  1  0  0  0
  4  6  1  0  0  0
  6  7  1  0  0  0
  6  8  1  0  0  0
  6  9  1  0  0  0
 10 11  1  0  0  0
 10 15  2  0  0  0
 11 12  2  0  0  0
 11 31  1  0  0  0
 12 13  1  0  0  0
 12 32  1  0  0  0
 13 14  2  0  0  0
 13 16  1  0  0  0
 14 15  1  0  0  0
 14 33  1  0  0  0
 15 34  1  0  0  0
 16 17  2  0  0  0
 16 18  2  0  0  0
 16 19  1  0  0  0
 19 35  1  0  0  0
 19 36  1  0  0  0
 19 37  1  0  0  0
 20 21  1  0  0  0
 20 25  2  0  0  0
 21 22  2  0  0  0
 21 38  1  0  0  0
 22 23  1  0  0  0
 22 27  1  0  0  0
 23 24  2  0  0  0
 23 26  1  0  0  0
 24 25  1  0  0  0
 24 39  1  0  0  0
 25 40  1  0  0  0
 27 28  1  0  0  0
 27 29  1  0  0  0
 28 41  1  0  0  0
 28 42  1  0  0  0
 28 43  1  0  0  0
 29 44  1  0  0  0
 29 45  1  0  0  0
 29 46  1  0  0  0
M  END
>  <Activity>
5.98297

>  <set>
1

>  <Min_dist>
999.9

>  <Avg_dist>
999.9

$$$$
3-56
  Cerius2 12110214513D 1   1.00000                          
 
 41 44  0  0  0  0  0  0  0  0999 V2000
    1.8848    0.4813   -0.0416 C   0  0  0  0  0  0
    1.3493   -0.7762   -0.0282 N   0  0  0  0  0  0
    2.3998   -1.6574    0.0134 C   0  0  0  0  0  0
    3.5305   -0.9232    0.0240 C   0  0  0  0  0  0
    3.1949    0.3721   -0.0099 N   0  0  0  0  0  0
    4.9346   -1.4687    0.0672 C   0  0  0  0  0  0
    5.8471   -0.4082    0.0661 F   0  0  0  0  0  0
    5.1042   -2.2286    1.2296 F   0  0  0  0  0  0
    5.1561   -2.2757   -1.0539 F   0  0  0  0  0  0
   -0.0132   -1.1030   -0.0518 C   0  0  0  0  0  0
   -0.5585   -1.8853    0.9573 C   0  0  0  0  0  0
   -1.9019   -2.2053    0.9314 C   0  0  0  0  0  0
   -2.7034   -1.7478   -0.0983 C   0  0  0  0  0  0
   -2.1632   -0.9684   -1.1047 C   0  0  0  0  0  0
   -0.8217   -0.6403   -1.0814 C   0  0  0  0  0  0
   -4.4164   -2.1591   -0.1284 S   0  0  0  0  0  0
   -4.7317   -2.0946   -1.5125 O   0  0  0  0  0  0
   -4.4605   -3.3784    0.6000 O   0  0  0  0  0  0
   -5.1841   -0.8001    0.7960 C   0  0  0  0  0  0
    1.1223    1.7466   -0.0901 C   0  0  0  0  0  0
   -0.2174    1.7717    0.3022 C   0  0  0  0  0  0
   -0.9271    2.9567    0.2554 C   0  0  0  0  0  0
   -0.3043    4.1251   -0.1833 C   0  0  0  0  0  0
    1.0264    4.0986   -0.5735 C   0  0  0  0  0  0
    1.7414    2.9201   -0.5226 C   0  0  0  0  0  0
   -1.2102    5.1450   -0.1359 O   0  0  0  0  0  0
   -2.2697    4.6793    0.7204 C   0  0  0  0  0  0
   -2.2218    3.2475    0.5771 O   0  0  0  0  0  0
    2.3336   -2.7351    0.0342 H   0  0  0  0  0  0
    0.0671   -2.2436    1.7614 H   0  0  0  0  0  0
   -2.3267   -2.8139    1.7161 H   0  0  0  0  0  0
   -2.7917   -0.6125   -1.9077 H   0  0  0  0  0  0
   -0.4003   -0.0316   -1.8677 H   0  0  0  0  0  0
   -6.2622   -0.9545    0.8407 H   0  0  0  0  0  0
   -4.7786   -0.7741    1.8075 H   0  0  0  0  0  0
   -4.9727    0.1448    0.2955 H   0  0  0  0  0  0
   -0.6986    0.8662    0.6413 H   0  0  0  0  0  0
    1.5058    5.0048   -0.9131 H   0  0  0  0  0  0
    2.7774    2.9034   -0.8272 H   0  0  0  0  0  0
   -2.0807    4.9672    1.7546 H   0  0  0  0  0  0
   -3.2318    5.0658    0.3841 H   0  0  0  0  0  0
  1  2  1  0  0  0
  1  5  2  0  0  0
  1 20  1  0  0  0
  2  3  1  0  0  0
  2 10  1  0  0  0
  3  4  2  0  0  0
  3 29  1  0  0  0
  4  5  1  0  0  0
  4  6  1  0  0  0
  6  7  1  0  0  0
  6  8  1  0  0  0
  6  9  1  0  0  0
 10 11  1  0  0  0
 10 15  2  0  0  0
 11 12  2  0  0  0
 11 30  1  0  0  0
 12 13  1  0  0  0
 12 31  1  0  0  0
 13 14  2  0  0  0
 13 16  1  0  0  0
 14 15  1  0  0  0
 14 32  1  0  0  0
 15 33  1  0  0  0
 16 17  2  0  0  0
 16 18  2  0  0  0
 16 19  1  0  0  0
 19 34  1  0  0  0
 19 35  1  0  0  0
 19 36  1  0  0  0
 20 21  1  0  0  0
 20 25  2  0  0  0
 21 22  2  0  0  0
 21 37  1  0  0  0
 22 23  1  0  0  0
 22 28  1  0  0  0
 23 24  2  0  0  0
 23 26  1  0  0  0
 24 25  1  0  0  0
 24 38  1  0  0  0
 25 39  1  0  0  0
 26 27  1  0  0  0
 27 28  1  0  0  0
 27 40  1  0  0  0
 27 41  1  0  0  0
M  END
>  <Activity>
6.76955

>  <set>
1

>  <Min_dist>
999.9

>  <Avg_dist>
999.9

$$$$
3-57
  Cerius2 12110214513D 1   1.00000                          
 
 38 40  0  0  0  0  0  0  0  0999 V2000
    1.8543    0.4692   -0.0107 C   0  0  0  0  0  0
    1.2374   -0.7502   -0.0287 N   0  0  0  0  0  0
    2.2275   -1.6989   -0.0176 C   0  0  0  0  0  0
    3.4042   -1.0410    0.0064 C   0  0  0  0  0  0
    3.1543    0.2737    0.0102 N   0  0  0  0  0  0
    4.7697   -1.6784    0.0265 C   0  0  0  0  0  0
    5.7498   -0.6804    0.0490 F   0  0  0  0  0  0
    4.8936   -2.4795    1.1666 F   0  0  0  0  0  0
    4.9332   -2.4668   -1.1175 F   0  0  0  0  0  0
   -0.1437   -0.9862   -0.0536 C   0  0  0  0  0  0
   -0.7354   -1.7589    0.9366 C   0  0  0  0  0  0
   -2.0969   -1.9897    0.9093 C   0  0  0  0  0  0
   -2.8706   -1.4520   -0.1029 C   0  0  0  0  0  0
   -2.2841   -0.6824   -1.0907 C   0  0  0  0  0  0
   -0.9240   -0.4429   -1.0654 C   0  0  0  0  0  0
   -4.6071   -1.7487   -0.1343 S   0  0  0  0  0  0
   -4.9229   -1.6252   -1.5142 O   0  0  0  0  0  0
   -4.7286   -2.9821    0.5608 O   0  0  0  0  0  0
   -5.2797   -0.3682    0.8314 C   0  0  0  0  0  0
    1.1761    1.7829   -0.0197 C   0  0  0  0  0  0
   -0.1573    1.8853    0.3801 C   0  0  0  0  0  0
   -0.7855    3.1150    0.3701 C   0  0  0  0  0  0
   -0.0924    4.2469   -0.0367 C   0  0  0  0  0  0
    1.2307    4.1486   -0.4344 C   0  0  0  0  0  0
    1.8687    2.9254   -0.4224 C   0  0  0  0  0  0
   -0.7105    5.4481   -0.0450 F   0  0  0  0  0  0
   -2.0761    3.2165    0.7562 F   0  0  0  0  0  0
    2.0907   -2.7702   -0.0265 H   0  0  0  0  0  0
   -0.1316   -2.1794    1.7272 H   0  0  0  0  0  0
   -2.5577   -2.5910    1.6790 H   0  0  0  0  0  0
   -2.8909   -0.2640   -1.8802 H   0  0  0  0  0  0
   -0.4665    0.1583   -1.8372 H   0  0  0  0  0  0
   -6.3655   -0.4524    0.8780 H   0  0  0  0  0  0
   -4.8694   -0.3970    1.8408 H   0  0  0  0  0  0
   -5.0085    0.5742    0.3557 H   0  0  0  0  0  0
   -0.6967    1.0046    0.6962 H   0  0  0  0  0  0
    1.7654    5.0322   -0.7503 H   0  0  0  0  0  0
    2.9005    2.8509   -0.7326 H   0  0  0  0  0  0
  1  2  1  0  0  0
  1  5  2  0  0  0
  1 20  1  0  0  0
  2  3  1  0  0  0
  2 10  1  0  0  0
  3  4  2  0  0  0
  3 28  1  0  0  0
  4  5  1  0  0  0
  4  6  1  0  0  0
  6  7  1  0  0  0
  6  8  1  0  0  0
  6  9  1  0  0  0
 10 11  1  0  0  0
 10 15  2  0  0  0
 11 12  2  0  0  0
 11 29  1  0  0  0
 12 13  1  0  0  0
 12 30  1  0  0  0
 13 14  2  0  0  0
 13 16  1  0  0  0
 14 15  1  0  0  0
 14 31  1  0  0  0
 15 32  1  0  0  0
 16 17  2  0  0  0
 16 18  2  0  0  0
 16 19  1  0  0  0
 19 33  1  0  0  0
 19 34  1  0  0  0
 19 35  1  0  0  0
 20 21  1  0  0  0
 20 25  2  0  0  0
 21 22  2  0  0  0
 21 36  1  0  0  0
 22 23  1  0  0  0
 22 27  1  0  0  0
 23 24  2  0  0  0
 23 26  1  0  0  0
 24 25  1  0  0  0
 24 37  1  0  0  0
 25 38  1  0  0  0
M  END
>  <Activity>
6.92082

>  <set>
1

>  <Min_dist>
999.9

>  <Avg_dist>
999.9

$$$$
3-58
  Cerius2 12110214513D 1   1.00000                          
 
 44 46  0  0  0  0  0  0  0  0999 V2000
    1.8437    0.5320   -0.0051 C   0  0  0  0  0  0
    1.2161   -0.6818   -0.0265 N   0  0  0  0  0  0
    2.1973   -1.6390   -0.0188 C   0  0  0  0  0  0
    3.3801   -0.9915    0.0069 C   0  0  0  0  0  0
    3.1418    0.3251    0.0148 N   0  0  0  0  0  0
    4.7399   -1.6409    0.0243 C   0  0  0  0  0  0
    5.7288   -0.6517    0.0496 F   0  0  0  0  0  0
    4.8573   -2.4469    1.1617 F   0  0  0  0  0  0
    4.8959   -2.4270   -1.1224 F   0  0  0  0  0  0
   -0.1671   -0.9054   -0.0513 C   0  0  0  0  0  0
   -0.7651   -1.6756    0.9371 C   0  0  0  0  0  0
   -2.1286   -1.8942    0.9099 C   0  0  0  0  0  0
   -2.8979   -1.3473   -0.1005 C   0  0  0  0  0  0
   -2.3053   -0.5798   -1.0863 C   0  0  0  0  0  0
   -0.9431   -0.3525   -1.0611 C   0  0  0  0  0  0
   -4.6369   -1.6294   -0.1324 S   0  0  0  0  0  0
   -4.9519   -1.4995   -1.5119 O   0  0  0  0  0  0
   -4.7685   -2.8638    0.5592 O   0  0  0  0  0  0
   -5.2978   -0.2462    0.8373 C   0  0  0  0  0  0
    1.1770    1.8519   -0.0098 C   0  0  0  0  0  0
   -0.1554    1.9655    0.3903 C   0  0  0  0  0  0
   -0.7715    3.1997    0.3835 C   0  0  0  0  0  0
   -0.0717    4.3235   -0.0192 C   0  0  0  0  0  0
    1.2489    4.2176   -0.4174 C   0  0  0  0  0  0
    1.8788    2.9899   -0.4088 C   0  0  0  0  0  0
   -0.7513    5.6685   -0.0246 C   0  0  0  0  0  0
   -2.2100    3.3243    0.8151 C   0  0  0  0  0  0
    2.0510   -2.7089   -0.0306 H   0  0  0  0  0  0
   -0.1646   -2.1036    1.7261 H   0  0  0  0  0  0
   -2.5943   -2.4933    1.6785 H   0  0  0  0  0  0
   -2.9087   -0.1542   -1.8745 H   0  0  0  0  0  0
   -0.4809    0.2474   -1.8311 H   0  0  0  0  0  0
   -6.3842   -0.3215    0.8840 H   0  0  0  0  0  0
   -4.8875   -0.2812    1.8466 H   0  0  0  0  0  0
   -5.0188    0.6953    0.3642 H   0  0  0  0  0  0
   -0.7028    1.0891    0.7041 H   0  0  0  0  0  0
    1.7894    5.0984   -0.7309 H   0  0  0  0  0  0
    2.9100    2.9086   -0.7196 H   0  0  0  0  0  0
   -0.6108    6.1505    0.9429 H   0  0  0  0  0  0
   -0.3180    6.2914   -0.8071 H   0  0  0  0  0  0
   -1.8167    5.5365   -0.2134 H   0  0  0  0  0  0
   -2.2524    3.5116    1.8881 H   0  0  0  0  0  0
   -2.6786    4.1522    0.2830 H   0  0  0  0  0  0
   -2.7393    2.3993    0.5865 H   0  0  0  0  0  0
  1  2  1  0  0  0
  1  5  2  0  0  0
  1 20  1  0  0  0
  2  3  1  0  0  0
  2 10  1  0  0  0
  3  4  2  0  0  0
  3 28  1  0  0  0
  4  5  1  0  0  0
  4  6  1  0  0  0
  6  7  1  0  0  0
  6  8  1  0  0  0
  6  9  1  0  0  0
 10 11  1  0  0  0
 10 15  2  0  0  0
 11 12  2  0  0  0
 11 29  1  0  0  0
 12 13  1  0  0  0
 12 30  1  0  0  0
 13 14  2  0  0  0
 13 16  1  0  0  0
 14 15  1  0  0  0
 14 31  1  0  0  0
 15 32  1  0  0  0
 16 17  2  0  0  0
 16 18  2  0  0  0
 16 19  1  0  0  0
 19 33  1  0  0  0
 19 34  1  0  0  0
 19 35  1  0  0  0
 20 21  1  0  0  0
 20 25  2  0  0  0
 21 22  2  0  0  0
 21 36  1  0  0  0
 22 23  1  0  0  0
 22 27  1  0  0  0
 23 24  2  0  0  0
 23 26  1  0  0  0
 24 25  1  0  0  0
 24 37  1  0  0  0
 25 38  1  0  0  0
 26 39  1  0  0  0
 26 40  1  0  0  0
 26 41  1  0  0  0
 27 42  1  0  0  0
 27 43  1  0  0  0
 27 44  1  0  0  0
M  END
>  <Activity>
6.48149

>  <set>
1

>  <Min_dist>
999.9

>  <Avg_dist>
999.9

$$$$
3-61
  Cerius2 12110214513D 1   1.00000                          
 
 42 44  0  0  0  0  0  0  0  0999 V2000
    1.8282    0.2474    0.0299 C   0  0  0  0  0  0
    1.1566   -0.9420   -0.0133 N   0  0  0  0  0  0
    2.1017   -1.9348   -0.0062 C   0  0  0  0  0  0
    3.3072   -1.3318    0.0405 C   0  0  0  0  0  0
    3.1175   -0.0075    0.0617 N   0  0  0  0  0  0
    4.6418   -2.0312    0.0652 C   0  0  0  0  0  0
    5.6662   -1.0796    0.1136 F   0  0  0  0  0  0
    4.7162   -2.8543    1.1940 F   0  0  0  0  0  0
    4.7821   -2.8091   -1.0891 F   0  0  0  0  0  0
   -0.2335   -1.1140   -0.0560 C   0  0  0  0  0  0
   -0.8707   -1.8730    0.9165 C   0  0  0  0  0  0
   -2.2409   -2.0408    0.8718 C   0  0  0  0  0  0
   -2.9780   -1.4541   -0.1405 C   0  0  0  0  0  0
   -2.3462   -0.6980   -1.1107 C   0  0  0  0  0  0
   -0.9771   -0.5211   -1.0675 C   0  0  0  0  0  0
   -4.7258   -1.6708   -0.1945 S   0  0  0  0  0  0
   -5.0202   -1.5135   -1.5757 O   0  0  0  0  0  0
   -4.9109   -2.9072    0.4811 O   0  0  0  0  0  0
   -5.3458   -0.2751    0.7843 C   0  0  0  0  0  0
    1.2106    1.5911    0.0337 C   0  0  0  0  0  0
   -0.1204    1.7483    0.4207 C   0  0  0  0  0  0
   -0.6932    3.0089    0.4228 C   0  0  0  0  0  0
    0.0556    4.1135    0.0405 C   0  0  0  0  0  0
    1.3767    3.9602   -0.3444 C   0  0  0  0  0  0
    1.9590    2.7063   -0.3442 C   0  0  0  0  0  0
    2.0999    5.0391   -0.7162 F   0  0  0  0  0  0
   -1.9898    3.1649    0.7989 O   0  0  0  0  0  0
   -2.2845    4.5595    0.6973 C   0  0  0  0  0  0
    1.9162   -2.9984   -0.0326 H   0  0  0  0  0  0
   -0.2954   -2.3321    1.7069 H   0  0  0  0  0  0
   -2.7371   -2.6310    1.6279 H   0  0  0  0  0  0
   -2.9245   -0.2415   -1.9004 H   0  0  0  0  0  0
   -0.4842    0.0698   -1.8253 H   0  0  0  0  0  0
   -6.4347   -0.3103    0.8183 H   0  0  0  0  0  0
   -4.9485   -0.3368    1.7975 H   0  0  0  0  0  0
   -5.0267    0.6607    0.3254 H   0  0  0  0  0  0
   -0.7029    0.8887    0.7177 H   0  0  0  0  0  0
   -0.3938    5.0956    0.0431 H   0  0  0  0  0  0
    2.9897    2.5890   -0.6446 H   0  0  0  0  0  0
   -3.3196    4.7344    0.9906 H   0  0  0  0  0  0
   -1.6206    5.1200    1.3554 H   0  0  0  0  0  0
   -2.1380    4.8877   -0.3318 H   0  0  0  0  0  0
  1  2  1  0  0  0
  1  5  2  0  0  0
  1 20  1  0  0  0
  2  3  1  0  0  0
  2 10  1  0  0  0
  3  4  2  0  0  0
  3 29  1  0  0  0
  4  5  1  0  0  0
  4  6  1  0  0  0
  6  7  1  0  0  0
  6  8  1  0  0  0
  6  9  1  0  0  0
 10 11  1  0  0  0
 10 15  2  0  0  0
 11 12  2  0  0  0
 11 30  1  0  0  0
 12 13  1  0  0  0
 12 31  1  0  0  0
 13 14  2  0  0  0
 13 16  1  0  0  0
 14 15  1  0  0  0
 14 32  1  0  0  0
 15 33  1  0  0  0
 16 17  2  0  0  0
 16 18  2  0  0  0
 16 19  1  0  0  0
 19 34  1  0  0  0
 19 35  1  0  0  0
 19 36  1  0  0  0
 20 21  1  0  0  0
 20 25  2  0  0  0
 21 22  2  0  0  0
 21 37  1  0  0  0
 22 23  1  0  0  0
 22 27  1  0  0  0
 23 24  2  0  0  0
 23 38  1  0  0  0
 24 25  1  0  0  0
 24 26  1  0  0  0
 25 39  1  0  0  0
 27 28  1  0  0  0
 28 40  1  0  0  0
 28 41  1  0  0  0
 28 42  1  0  0  0
M  END
>  <Activity>
6.01773

>  <set>
1

>  <Min_dist>
999.9

>  <Avg_dist>
999.9

$$$$
3-66
  Cerius2 12110214513D 1   1.00000                          
 
 41 43  0  0  0  0  0  0  0  0999 V2000
    1.8674    0.2213    0.0144 C   0  0  0  0  0  0
    1.2136   -0.9783   -0.0297 N   0  0  0  0  0  0
    2.1747   -1.9570   -0.0381 C   0  0  0  0  0  0
    3.3707   -1.3360    0.0007 C   0  0  0  0  0  0
    3.1610   -0.0143    0.0321 N   0  0  0  0  0  0
    4.7160   -2.0149    0.0075 C   0  0  0  0  0  0
    5.7261   -1.0480    0.0520 F   0  0  0  0  0  0
    4.8143   -2.8440    1.1300 F   0  0  0  0  0  0
    4.8566   -2.7830   -1.1533 F   0  0  0  0  0  0
   -0.1740   -1.1714   -0.0606 C   0  0  0  0  0  0
   -0.7903   -1.9467    0.9125 C   0  0  0  0  0  0
   -2.1581   -2.1353    0.8794 C   0  0  0  0  0  0
   -2.9136   -1.5533   -0.1219 C   0  0  0  0  0  0
   -2.3027   -0.7810   -1.0927 C   0  0  0  0  0  0
   -0.9361   -0.5833   -1.0611 C   0  0  0  0  0  0
   -4.6583   -1.7967   -0.1610 S   0  0  0  0  0  0
   -5.0505   -1.5639   -1.5069 O   0  0  0  0  0  0
   -4.8980   -2.9910    0.5706 O   0  0  0  0  0  0
   -5.3480   -0.5798    0.7255 N   0  0  0  0  0  0
    1.2298    1.5546    0.0327 C   0  0  0  0  0  0
   -0.1008    1.6887    0.4345 C   0  0  0  0  0  0
   -0.6921    2.9353    0.4501 C   0  0  0  0  0  0
    0.0361    4.0564    0.0657 C   0  0  0  0  0  0
    1.3584    3.9253   -0.3344 C   0  0  0  0  0  0
    1.9579    2.6834   -0.3461 C   0  0  0  0  0  0
   -0.5489    5.2829    0.0815 O   0  0  0  0  0  0
    0.4386    6.2172   -0.3590 C   0  0  0  0  0  0
   -1.9793    3.0671    0.8385 F   0  0  0  0  0  0
    2.0054   -3.0232   -0.0694 H   0  0  0  0  0  0
   -0.2006   -2.4020    1.6944 H   0  0  0  0  0  0
   -2.6380   -2.7382    1.6361 H   0  0  0  0  0  0
   -2.8954   -0.3283   -1.8739 H   0  0  0  0  0  0
   -0.4595    0.0199   -1.8196 H   0  0  0  0  0  0
   -6.3120   -0.5384    0.8247 H   0  0  0  0  0  0
   -4.7879    0.0916    1.1456 H   0  0  0  0  0  0
   -0.6663    0.8181    0.7323 H   0  0  0  0  0  0
    1.9204    4.7980   -0.6328 H   0  0  0  0  0  0
    2.9871    2.5830   -0.6577 H   0  0  0  0  0  0
    0.0131    7.2207   -0.3629 H   0  0  0  0  0  0
    1.2936    6.1876    0.3163 H   0  0  0  0  0  0
    0.7621    5.9559   -1.3666 H   0  0  0  0  0  0
  1  2  1  0  0  0
  1  5  2  0  0  0
  1 20  1  0  0  0
  2  3  1  0  0  0
  2 10  1  0  0  0
  3  4  2  0  0  0
  3 29  1  0  0  0
  4  5  1  0  0  0
  4  6  1  0  0  0
  6  7  1  0  0  0
  6  8  1  0  0  0
  6  9  1  0  0  0
 10 11  1  0  0  0
 10 15  2  0  0  0
 11 12  2  0  0  0
 11 30  1  0  0  0
 12 13  1  0  0  0
 12 31  1  0  0  0
 13 14  2  0  0  0
 13 16  1  0  0  0
 14 15  1  0  0  0
 14 32  1  0  0  0
 15 33  1  0  0  0
 16 17  2  0  0  0
 16 18  2  0  0  0
 16 19  1  0  0  0
 19 34  1  0  0  0
 19 35  1  0  0  0
 20 21  1  0  0  0
 20 25  2  0  0  0
 21 22  2  0  0  0
 21 36  1  0  0  0
 22 23  1  0  0  0
 22 28  1  0  0  0
 23 24  2  0  0  0
 23 26  1  0  0  0
 24 25  1  0  0  0
 24 37  1  0  0  0
 25 38  1  0  0  0
 26 27  1  0  0  0
 27 39  1  0  0  0
 27 40  1  0  0  0
 27 41  1  0  0  0
M  END
>  <Activity>
7.52288

>  <set>
1

>  <Min_dist>
999.9

>  <Avg_dist>
999.9

$$$$
3-69
  Cerius2 12110214513D 1   1.00000                          
 
 41 43  0  0  0  0  0  0  0  0999 V2000
    1.6810   -0.5457    0.1196 C   0  0  0  0  0  0
    0.8303   -1.6109    0.0179 N   0  0  0  0  0  0
    1.6070   -2.7417   -0.0063 C   0  0  0  0  0  0
    2.8910   -2.3405    0.0800 C   0  0  0  0  0  0
    2.9133   -1.0041    0.1555 N   0  0  0  0  0  0
    4.0973   -3.2436    0.0906 C   0  0  0  0  0  0
    5.2584   -2.4697    0.1913 F   0  0  0  0  0  0
    4.0197   -4.1125    1.1843 F   0  0  0  0  0  0
    4.1336   -3.9871   -1.0940 F   0  0  0  0  0  0
   -0.5685   -1.5580   -0.0481 C   0  0  0  0  0  0
   -1.3354   -2.2607    0.8716 C   0  0  0  0  0  0
   -2.7139   -2.2062    0.8042 C   0  0  0  0  0  0
   -3.3303   -1.4529   -0.1779 C   0  0  0  0  0  0
   -2.5692   -0.7519   -1.0953 C   0  0  0  0  0  0
   -1.1904   -0.7982   -1.0298 C   0  0  0  0  0  0
   -5.0891   -1.3864   -0.2609 S   0  0  0  0  0  0
   -5.3989   -1.0227   -1.5992 O   0  0  0  0  0  0
   -5.5513   -2.5553    0.4018 O   0  0  0  0  0  0
   -5.5812   -0.1132    0.6767 N   0  0  0  0  0  0
    1.2846    0.8766    0.1736 C   0  0  0  0  0  0
    2.1341    1.8597   -0.3396 C   0  0  0  0  0  0
    1.7617    3.1854   -0.2879 C   0  0  0  0  0  0
    0.5398    3.5449    0.2754 C   0  0  0  0  0  0
   -0.3073    2.5676    0.7868 C   0  0  0  0  0  0
    0.0577    1.2400    0.7324 C   0  0  0  0  0  0
    0.0665    5.2409    0.3407 S   0  0  0  0  0  0
   -1.5505    5.0858    1.1480 C   0  0  0  0  0  0
    2.8165    4.4083   -0.9247 Cl  0  0  0  0  0  0
    1.2561   -3.7604   -0.0805 H   0  0  0  0  0  0
   -0.8546   -2.8496    1.6387 H   0  0  0  0  0  0
   -3.3109   -2.7529    1.5191 H   0  0  0  0  0  0
   -3.0535   -0.1647   -1.8615 H   0  0  0  0  0  0
   -0.5965   -0.2503   -1.7464 H   0  0  0  0  0  0
   -6.5258    0.0906    0.7608 H   0  0  0  0  0  0
   -4.9248    0.4288    1.1418 H   0  0  0  0  0  0
    3.0819    1.5811   -0.7761 H   0  0  0  0  0  0
   -1.2543    2.8492    1.2231 H   0  0  0  0  0  0
   -0.6008    0.4818    1.1298 H   0  0  0  0  0  0
   -1.9932    6.0746    1.2678 H   0  0  0  0  0  0
   -2.2050    4.4666    0.5346 H   0  0  0  0  0  0
   -1.4250    4.6229    2.1269 H   0  0  0  0  0  0
  1  2  1  0  0  0
  1  5  2  0  0  0
  1 20  1  0  0  0
  2  3  1  0  0  0
  2 10  1  0  0  0
  3  4  2  0  0  0
  3 29  1  0  0  0
  4  5  1  0  0  0
  4  6  1  0  0  0
  6  7  1  0  0  0
  6  8  1  0  0  0
  6  9  1  0  0  0
 10 11  1  0  0  0
 10 15  2  0  0  0
 11 12  2  0  0  0
 11 30  1  0  0  0
 12 13  1  0  0  0
 12 31  1  0  0  0
 13 14  2  0  0  0
 13 16  1  0  0  0
 14 15  1  0  0  0
 14 32  1  0  0  0
 15 33  1  0  0  0
 16 17  2  0  0  0
 16 18  2  0  0  0
 16 19  1  0  0  0
 19 34  1  0  0  0
 19 35  1  0  0  0
 20 21  1  0  0  0
 20 25  2  0  0  0
 21 22  2  0  0  0
 21 36  1  0  0  0
 22 23  1  0  0  0
 22 28  1  0  0  0
 23 24  2  0  0  0
 23 26  1  0  0  0
 24 25  1  0  0  0
 24 37  1  0  0  0
 25 38  1  0  0  0
 26 27  1  0  0  0
 27 39  1  0  0  0
 27 40  1  0  0  0
 27 41  1  0  0  0
M  END
>  <Activity>
8

>  <set>
1

>  <Min_dist>
999.9

>  <Avg_dist>
999.9

$$$$
3-70
  Cerius2 12110214513D 1   1.00000                          
 
 40 42  0  0  0  0  0  0  0  0999 V2000
    1.9615    0.4976   -0.0407 C   0  0  0  0  0  0
    1.4148   -0.7549   -0.0391 N   0  0  0  0  0  0
    2.4562   -1.6452    0.0009 C   0  0  0  0  0  0
    3.5938   -0.9212    0.0223 C   0  0  0  0  0  0
    3.2701    0.3768   -0.0035 N   0  0  0  0  0  0
    4.9929   -1.4796    0.0677 C   0  0  0  0  0  0
    5.9148   -0.4274    0.0790 F   0  0  0  0  0  0
    5.1502   -2.2499    1.2248 F   0  0  0  0  0  0
    5.2123   -2.2798   -1.0587 F   0  0  0  0  0  0
    0.0495   -1.0691   -0.0721 C   0  0  0  0  0  0
   -0.5081   -1.8540    0.9283 C   0  0  0  0  0  0
   -1.8541   -2.1616    0.8933 C   0  0  0  0  0  0
   -2.6462   -1.6891   -0.1371 C   0  0  0  0  0  0
   -2.0937   -0.9076   -1.1351 C   0  0  0  0  0  0
   -0.7496   -0.5915   -1.1023 C   0  0  0  0  0  0
   -4.3628   -2.0842   -0.1785 S   0  0  0  0  0  0
   -4.7590   -1.9420   -1.5358 O   0  0  0  0  0  0
   -4.5065   -3.2636    0.6010 O   0  0  0  0  0  0
   -5.1645   -0.8961    0.6510 N   0  0  0  0  0  0
    1.2101    1.7705   -0.0833 C   0  0  0  0  0  0
   -0.1311    1.8057    0.3008 C   0  0  0  0  0  0
   -0.8268    2.9975    0.2586 C   0  0  0  0  0  0
   -0.1961    4.1556   -0.1643 C   0  0  0  0  0  0
    1.1330    4.1263   -0.5461 C   0  0  0  0  0  0
    1.8408    2.9426   -0.5024 C   0  0  0  0  0  0
   -0.9612    5.4532   -0.2091 C   0  0  0  0  0  0
   -2.4952    3.0442    0.7358 Cl  0  0  0  0  0  0
    2.3801   -2.7225    0.0129 H   0  0  0  0  0  0
    0.1102   -2.2238    1.7329 H   0  0  0  0  0  0
   -2.2884   -2.7720    1.6712 H   0  0  0  0  0  0
   -2.7148   -0.5403   -1.9387 H   0  0  0  0  0  0
   -0.3186    0.0189   -1.8821 H   0  0  0  0  0  0
   -6.1295   -0.9344    0.7414 H   0  0  0  0  0  0
   -4.6690   -0.1619    1.0465 H   0  0  0  0  0  0
   -0.6237    0.9027    0.6300 H   0  0  0  0  0  0
    1.6190    5.0329   -0.8752 H   0  0  0  0  0  0
    2.8787    2.9216   -0.8005 H   0  0  0  0  0  0
   -0.8636    5.9658    0.7479 H   0  0  0  0  0  0
   -0.5599    6.0844   -1.0019 H   0  0  0  0  0  0
   -2.0135    5.2479   -0.4056 H   0  0  0  0  0  0
  1  2  1  0  0  0
  1  5  2  0  0  0
  1 20  1  0  0  0
  2  3  1  0  0  0
  2 10  1  0  0  0
  3  4  2  0  0  0
  3 28  1  0  0  0
  4  5  1  0  0  0
  4  6  1  0  0  0
  6  7  1  0  0  0
  6  8  1  0  0  0
  6  9  1  0  0  0
 10 11  1  0  0  0
 10 15  2  0  0  0
 11 12  2  0  0  0
 11 29  1  0  0  0
 12 13  1  0  0  0
 12 30  1  0  0  0
 13 14  2  0  0  0
 13 16  1  0  0  0
 14 15  1  0  0  0
 14 31  1  0  0  0
 15 32  1  0  0  0
 16 17  2  0  0  0
 16 18  2  0  0  0
 16 19  1  0  0  0
 19 33  1  0  0  0
 19 34  1  0  0  0
 20 21  1  0  0  0
 20 25  2  0  0  0
 21 22  2  0  0  0
 21 35  1  0  0  0
 22 23  1  0  0  0
 22 27  1  0  0  0
 23 24  2  0  0  0
 23 26  1  0  0  0
 24 25  1  0  0  0
 24 36  1  0  0  0
 25 37  1  0  0  0
 26 38  1  0  0  0
 26 39  1  0  0  0
 26 40  1  0  0  0
M  END
>  <Activity>
8.52288

>  <set>
1

>  <Min_dist>
999.9

>  <Avg_dist>
999.9

$$$$
3-71
  Cerius2 12110214513D 1   1.00000                          
 
 41 43  0  0  0  0  0  0  0  0999 V2000
    1.6038   -0.4039    0.1207 C   0  0  0  0  0  0
    0.7001   -1.4239    0.0167 N   0  0  0  0  0  0
    1.4181   -2.5910   -0.0264 C   0  0  0  0  0  0
    2.7219   -2.2553    0.0514 C   0  0  0  0  0  0
    2.8115   -0.9231    0.1400 N   0  0  0  0  0  0
    3.8816   -3.2176    0.0405 C   0  0  0  0  0  0
    5.0808   -2.5038    0.1378 F   0  0  0  0  0  0
    3.7709   -4.0936    1.1256 F   0  0  0  0  0  0
    3.8696   -3.9488   -1.1522 F   0  0  0  0  0  0
   -0.6949   -1.3003   -0.0355 C   0  0  0  0  0  0
   -1.4872   -1.9638    0.8917 C   0  0  0  0  0  0
   -2.8617   -1.8401    0.8377 C   0  0  0  0  0  0
   -3.4490   -1.0567   -0.1388 C   0  0  0  0  0  0
   -2.6626   -0.3947   -1.0637 C   0  0  0  0  0  0
   -1.2872   -0.5095   -1.0110 C   0  0  0  0  0  0
   -5.2030   -0.9023   -0.2052 S   0  0  0  0  0  0
   -5.5069   -0.5235   -1.5406 O   0  0  0  0  0  0
   -5.7168   -2.0467    0.4623 O   0  0  0  0  0  0
   -5.6218    0.3937    0.7366 N   0  0  0  0  0  0
    1.2792    1.0368    0.1927 C   0  0  0  0  0  0
    2.2172    1.9867   -0.2131 C   0  0  0  0  0  0
    1.9070    3.3336   -0.1431 C   0  0  0  0  0  0
    0.6645    3.7372    0.3307 C   0  0  0  0  0  0
   -0.2661    2.7963    0.7337 C   0  0  0  0  0  0
    0.0316    1.4506    0.6614 C   0  0  0  0  0  0
    0.2791    5.4277    0.4177 Cl  0  0  0  0  0  0
    2.8181    4.2620   -0.5375 O   0  0  0  0  0  0
    3.9782    3.5462   -0.9663 C   0  0  0  0  0  0
    1.0158   -3.5900   -0.1071 H   0  0  0  0  0  0
   -1.0291   -2.5764    1.6542 H   0  0  0  0  0  0
   -3.4786   -2.3560    1.5586 H   0  0  0  0  0  0
   -3.1241    0.2162   -1.8254 H   0  0  0  0  0  0
   -0.6734    0.0081   -1.7334 H   0  0  0  0  0  0
   -6.5542    0.6445    0.8297 H   0  0  0  0  0  0
   -4.9348    0.9022    1.1953 H   0  0  0  0  0  0
    3.1827    1.6717   -0.5805 H   0  0  0  0  0  0
   -1.2300    3.1155    1.1015 H   0  0  0  0  0  0
   -0.6970    0.7185    0.9767 H   0  0  0  0  0  0
    4.7408    4.2528   -1.2937 H   0  0  0  0  0  0
    4.3650    2.9518   -0.1385 H   0  0  0  0  0  0
    3.7136    2.8879   -1.7938 H   0  0  0  0  0  0
  1  2  1  0  0  0
  1  5  2  0  0  0
  1 20  1  0  0  0
  2  3  1  0  0  0
  2 10  1  0  0  0
  3  4  2  0  0  0
  3 29  1  0  0  0
  4  5  1  0  0  0
  4  6  1  0  0  0
  6  7  1  0  0  0
  6  8  1  0  0  0
  6  9  1  0  0  0
 10 11  1  0  0  0
 10 15  2  0  0  0
 11 12  2  0  0  0
 11 30  1  0  0  0
 12 13  1  0  0  0
 12 31  1  0  0  0
 13 14  2  0  0  0
 13 16  1  0  0  0
 14 15  1  0  0  0
 14 32  1  0  0  0
 15 33  1  0  0  0
 16 17  2  0  0  0
 16 18  2  0  0  0
 16 19  1  0  0  0
 19 34  1  0  0  0
 19 35  1  0  0  0
 20 21  1  0  0  0
 20 25  2  0  0  0
 21 22  2  0  0  0
 21 36  1  0  0  0
 22 23  1  0  0  0
 22 27  1  0  0  0
 23 24  2  0  0  0
 23 26  1  0  0  0
 24 25  1  0  0  0
 24 37  1  0  0  0
 25 38  1  0  0  0
 27 28  1  0  0  0
 28 39  1  0  0  0
 28 40  1  0  0  0
 28 41  1  0  0  0
M  END
>  <Activity>
7.69897

>  <set>
1

>  <Min_dist>
999.9

>  <Avg_dist>
999.9

$$$$
3-72
  Cerius2 12110214513D 1   1.00000                          
 
 37 39  0  0  0  0  0  0  0  0999 V2000
    1.8788    0.4609   -0.0100 C   0  0  0  0  0  0
    1.2546   -0.7547   -0.0317 N   0  0  0  0  0  0
    2.2388   -1.7094   -0.0230 C   0  0  0  0  0  0
    3.4195   -1.0588    0.0034 C   0  0  0  0  0  0
    3.1777    0.2575    0.0108 N   0  0  0  0  0  0
    4.7811   -1.7045    0.0222 C   0  0  0  0  0  0
    5.7673   -0.7126    0.0480 F   0  0  0  0  0  0
    4.8996   -2.5097    1.1601 F   0  0  0  0  0  0
    4.9402   -2.4906   -1.1240 F   0  0  0  0  0  0
   -0.1280   -0.9821   -0.0578 C   0  0  0  0  0  0
   -0.7248   -1.7540    0.9299 C   0  0  0  0  0  0
   -2.0876   -1.9764    0.9014 C   0  0  0  0  0  0
   -2.8576   -1.4311   -0.1095 C   0  0  0  0  0  0
   -2.2660   -0.6622   -1.0949 C   0  0  0  0  0  0
   -0.9046   -0.4312   -1.0684 C   0  0  0  0  0  0
   -4.5959   -1.7171   -0.1424 S   0  0  0  0  0  0
   -4.9944   -1.5184   -1.4918 O   0  0  0  0  0  0
   -4.8064   -2.9033    0.6111 O   0  0  0  0  0  0
   -5.3141   -0.5012    0.7225 N   0  0  0  0  0  0
    1.2087    1.7788   -0.0155 C   0  0  0  0  0  0
   -0.1243    1.8882    0.3841 C   0  0  0  0  0  0
   -0.7449    3.1217    0.3773 C   0  0  0  0  0  0
   -0.0447    4.2505   -0.0259 C   0  0  0  0  0  0
    1.2779    4.1453   -0.4234 C   0  0  0  0  0  0
    1.9085    2.9182   -0.4147 C   0  0  0  0  0  0
   -0.6555    5.4555   -0.0311 F   0  0  0  0  0  0
   -2.0351    3.2300    0.7632 F   0  0  0  0  0  0
    2.0954   -2.7798   -0.0350 H   0  0  0  0  0  0
   -0.1239   -2.1804    1.7195 H   0  0  0  0  0  0
   -2.5524   -2.5771    1.6693 H   0  0  0  0  0  0
   -2.8699   -0.2380   -1.8834 H   0  0  0  0  0  0
   -0.4431    0.1694   -1.8383 H   0  0  0  0  0  0
   -6.2788   -0.4812    0.8219 H   0  0  0  0  0  0
   -4.7702    0.1910    1.1297 H   0  0  0  0  0  0
   -0.6691    1.0099    0.6975 H   0  0  0  0  0  0
    1.8181    5.0265   -0.7366 H   0  0  0  0  0  0
    2.9399    2.8382   -0.7247 H   0  0  0  0  0  0
  1  2  1  0  0  0
  1  5  2  0  0  0
  1 20  1  0  0  0
  2  3  1  0  0  0
  2 10  1  0  0  0
  3  4  2  0  0  0
  3 28  1  0  0  0
  4  5  1  0  0  0
  4  6  1  0  0  0
  6  7  1  0  0  0
  6  8  1  0  0  0
  6  9  1  0  0  0
 10 11  1  0  0  0
 10 15  2  0  0  0
 11 12  2  0  0  0
 11 29  1  0  0  0
 12 13  1  0  0  0
 12 30  1  0  0  0
 13 14  2  0  0  0
 13 16  1  0  0  0
 14 15  1  0  0  0
 14 31  1  0  0  0
 15 32  1  0  0  0
 16 17  2  0  0  0
 16 18  2  0  0  0
 16 19  1  0  0  0
 19 33  1  0  0  0
 19 34  1  0  0  0
 20 21  1  0  0  0
 20 25  2  0  0  0
 21 22  2  0  0  0
 21 35  1  0  0  0
 22 23  1  0  0  0
 22 27  1  0  0  0
 23 24  2  0  0  0
 23 26  1  0  0  0
 24 25  1  0  0  0
 24 36  1  0  0  0
 25 37  1  0  0  0
M  END
>  <Activity>
7.52288

>  <set>
1

>  <Min_dist>
999.9

>  <Avg_dist>
999.9

$$$$
3-73
  Cerius2 12110214513D 1   1.00000                          
 
 40 42  0  0  0  0  0  0  0  0999 V2000
    1.6760   -0.1254    0.0988 C   0  0  0  0  0  0
    0.7924   -1.1625   -0.0083 N   0  0  0  0  0  0
    1.5331   -2.3148   -0.0576 C   0  0  0  0  0  0
    2.8302   -1.9539    0.0197 C   0  0  0  0  0  0
    2.8937   -0.6207    0.1139 N   0  0  0  0  0  0
    4.0086   -2.8931    0.0031 C   0  0  0  0  0  0
    5.1937   -2.1562    0.1016 F   0  0  0  0  0  0
    3.9169   -3.7755    1.0849 F   0  0  0  0  0  0
    4.0092   -3.6196   -1.1924 F   0  0  0  0  0  0
   -0.6048   -1.0661   -0.0581 C   0  0  0  0  0  0
   -1.3824   -1.7430    0.8719 C   0  0  0  0  0  0
   -2.7592   -1.6461    0.8202 C   0  0  0  0  0  0
   -3.3633   -0.8764   -0.1569 C   0  0  0  0  0  0
   -2.5916   -0.2011   -1.0846 C   0  0  0  0  0  0
   -1.2141   -0.2891   -1.0342 C   0  0  0  0  0  0
   -5.1200   -0.7562   -0.2203 S   0  0  0  0  0  0
   -5.4337   -0.3862   -1.5560 O   0  0  0  0  0  0
   -5.6103   -1.9090    0.4505 O   0  0  0  0  0  0
   -5.5623    0.5334    0.7196 N   0  0  0  0  0  0
    1.3231    1.3084    0.1776 C   0  0  0  0  0  0
    0.0419    1.6939    0.5752 C   0  0  0  0  0  0
   -0.2815    3.0330    0.6473 C   0  0  0  0  0  0
    0.6609    3.9939    0.3266 C   0  0  0  0  0  0
    1.9335    3.6188   -0.0690 C   0  0  0  0  0  0
    2.2712    2.2815   -0.1396 C   0  0  0  0  0  0
    3.1089    4.8317   -0.4705 Cl  0  0  0  0  0  0
   -1.6646    3.4503    1.0760 C   0  0  0  0  0  0
    1.1504   -3.3212   -0.1418 H   0  0  0  0  0  0
   -0.9111   -2.3449    1.6348 H   0  0  0  0  0  0
   -3.3645   -2.1724    1.5433 H   0  0  0  0  0  0
   -3.0663    0.3990   -1.8467 H   0  0  0  0  0  0
   -0.6118    0.2388   -1.7588 H   0  0  0  0  0  0
   -6.4993    0.7662    0.8138 H   0  0  0  0  0  0
   -4.8845    1.0561    1.1759 H   0  0  0  0  0  0
   -0.6951    0.9452    0.8255 H   0  0  0  0  0  0
    0.4026    5.0410    0.3847 H   0  0  0  0  0  0
    3.2642    1.9895   -0.4482 H   0  0  0  0  0  0
   -1.6879    3.5731    2.1588 H   0  0  0  0  0  0
   -1.9238    4.3948    0.5976 H   0  0  0  0  0  0
   -2.3826    2.6849    0.7816 H   0  0  0  0  0  0
  1  2  1  0  0  0
  1  5  2  0  0  0
  1 20  1  0  0  0
  2  3  1  0  0  0
  2 10  1  0  0  0
  3  4  2  0  0  0
  3 28  1  0  0  0
  4  5  1  0  0  0
  4  6  1  0  0  0
  6  7  1  0  0  0
  6  8  1  0  0  0
  6  9  1  0  0  0
 10 11  1  0  0  0
 10 15  2  0  0  0
 11 12  2  0  0  0
 11 29  1  0  0  0
 12 13  1  0  0  0
 12 30  1  0  0  0
 13 14  2  0  0  0
 13 16  1  0  0  0
 14 15  1  0  0  0
 14 31  1  0  0  0
 15 32  1  0  0  0
 16 17  2  0  0  0
 16 18  2  0  0  0
 16 19  1  0  0  0
 19 33  1  0  0  0
 19 34  1  0  0  0
 20 21  1  0  0  0
 20 25  2  0  0  0
 21 22  2  0  0  0
 21 35  1  0  0  0
 22 23  1  0  0  0
 22 27  1  0  0  0
 23 24  2  0  0  0
 23 36  1  0  0  0
 24 25  1  0  0  0
 24 26  1  0  0  0
 25 37  1  0  0  0
 27 38  1  0  0  0
 27 39  1  0  0  0
 27 40  1  0  0  0
M  END
>  <Activity>
7.39794

>  <set>
1

>  <Min_dist>
999.9

>  <Avg_dist>
999.9

$$$$
3-79
  Cerius2 12110214513D 1   1.00000                          
 
 48 50  0  0  0  0  0  0  0  0999 V2000
    1.7939   -0.0104   -0.0097 C   0  0  0  0  0  0
    1.0760   -1.1735   -0.0151 N   0  0  0  0  0  0
    1.9824   -2.2026    0.0186 C   0  0  0  0  0  0
    3.2102   -1.6464    0.0433 C   0  0  0  0  0  0
    3.0726   -0.3151    0.0255 N   0  0  0  0  0  0
    4.5165   -2.3966    0.0840 C   0  0  0  0  0  0
    5.5775   -1.4850    0.1007 F   0  0  0  0  0  0
    4.5638   -3.1884    1.2364 F   0  0  0  0  0  0
    4.6209   -3.2130   -1.0473 F   0  0  0  0  0  0
   -0.3200   -1.2921   -0.0480 C   0  0  0  0  0  0
   -0.9818   -1.9974    0.9481 C   0  0  0  0  0  0
   -2.3578   -2.1121    0.9132 C   0  0  0  0  0  0
   -3.0761   -1.5254   -0.1125 C   0  0  0  0  0  0
   -2.4198   -0.8223   -1.1060 C   0  0  0  0  0  0
   -1.0444   -0.6997   -1.0737 C   0  0  0  0  0  0
   -4.8313   -1.6745   -0.1538 S   0  0  0  0  0  0
   -5.1260   -1.5445   -1.5379 O   0  0  0  0  0  0
   -5.0617   -2.8831    0.5570 O   0  0  0  0  0  0
   -5.3912   -0.2284    0.7874 C   0  0  0  0  0  0
    1.2298    1.3553   -0.0441 C   0  0  0  0  0  0
   -0.0930    1.5762    0.3438 C   0  0  0  0  0  0
   -0.6153    2.8512    0.3104 C   0  0  0  0  0  0
    0.1724    3.9156   -0.1085 C   0  0  0  0  0  0
    1.4888    3.7000   -0.4952 C   0  0  0  0  0  0
    2.0202    2.4287   -0.4590 C   0  0  0  0  0  0
    2.3390    4.8584   -0.9493 C   0  0  0  0  0  0
   -0.3461    5.1708   -0.1405 O   0  0  0  0  0  0
   -0.0925    5.7552    1.1386 C   0  0  0  0  0  0
   -2.0432    3.0907    0.7284 C   0  0  0  0  0  0
    1.7554   -3.2585    0.0246 H   0  0  0  0  0  0
   -0.4213   -2.4561    1.7492 H   0  0  0  0  0  0
   -2.8732   -2.6609    1.6875 H   0  0  0  0  0  0
   -2.9835   -0.3655   -1.9060 H   0  0  0  0  0  0
   -0.5323   -0.1502   -1.8497 H   0  0  0  0  0  0
   -6.4804   -0.2197    0.8264 H   0  0  0  0  0  0
   -4.9917   -0.2773    1.8004 H   0  0  0  0  0  0
   -5.0378    0.6808    0.3010 H   0  0  0  0  0  0
   -0.7063    0.7490    0.6694 H   0  0  0  0  0  0
    3.0441    2.2619   -0.7595 H   0  0  0  0  0  0
    2.8533    5.2902   -0.0908 H   0  0  0  0  0  0
    3.0736    4.5077   -1.6743 H   0  0  0  0  0  0
    1.7051    5.6152   -1.4114 H   0  0  0  0  0  0
   -0.4929    6.7688    1.1608 H   0  0  0  0  0  0
   -0.5734    5.1575    1.9129 H   0  0  0  0  0  0
    0.9823    5.7851    1.3177 H   0  0  0  0  0  0
   -2.0786    3.3004    1.7975 H   0  0  0  0  0  0
   -2.4453    3.9412    0.1778 H   0  0  0  0  0  0
   -2.6387    2.2037    0.5123 H   0  0  0  0  0  0
  1  2  1  0  0  0
  1  5  2  0  0  0
  1 20  1  0  0  0
  2  3  1  0  0  0
  2 10  1  0  0  0
  3  4  2  0  0  0
  3 30  1  0  0  0
  4  5  1  0  0  0
  4  6  1  0  0  0
  6  7  1  0  0  0
  6  8  1  0  0  0
  6  9  1  0  0  0
 10 11  1  0  0  0
 10 15  2  0  0  0
 11 12  2  0  0  0
 11 31  1  0  0  0
 12 13  1  0  0  0
 12 32  1  0  0  0
 13 14  2  0  0  0
 13 16  1  0  0  0
 14 15  1  0  0  0
 14 33  1  0  0  0
 15 34  1  0  0  0
 16 17  2  0  0  0
 16 18  2  0  0  0
 16 19  1  0  0  0
 19 35  1  0  0  0
 19 36  1  0  0  0
 19 37  1  0  0  0
 20 21  1  0  0  0
 20 25  2  0  0  0
 21 22  2  0  0  0
 21 38  1  0  0  0
 22 23  1  0  0  0
 22 29  1  0  0  0
 23 24  2  0  0  0
 23 27  1  0  0  0
 24 25  1  0  0  0
 24 26  1  0  0  0
 25 39  1  0  0  0
 26 40  1  0  0  0
 26 41  1  0  0  0
 26 42  1  0  0  0
 27 28  1  0  0  0
 28 43  1  0  0  0
 28 44  1  0  0  0
 28 45  1  0  0  0
 29 46  1  0  0  0
 29 47  1  0  0  0
 29 48  1  0  0  0
M  END
>  <Activity>
6.14267

>  <set>
1

>  <Min_dist>
999.9

>  <Avg_dist>
999.9

$$$$
3-87
  Cerius2 12110214513D 1   1.00000                          
 
 38 40  0  0  0  0  0  0  0  0999 V2000
    2.0632   -0.0320   -0.1098 C   0  0  0  0  0  0
    1.2738   -1.1468   -0.1522 N   0  0  0  0  0  0
    2.1134   -2.2284   -0.2219 C   0  0  0  0  0  0
    3.3742   -1.7501   -0.2203 C   0  0  0  0  0  0
    3.3203   -0.4147   -0.1517 N   0  0  0  0  0  0
    4.6312   -2.5790   -0.2843 C   0  0  0  0  0  0
    5.6617   -1.9164    0.3911 F   0  0  0  0  0  0
    4.4020   -3.8208    0.3177 F   0  0  0  0  0  0
   -0.1270   -1.1784   -0.1283 C   0  0  0  0  0  0
   -0.7898   -1.9026    0.8536 C   0  0  0  0  0  0
   -2.1706   -1.9314    0.8748 C   0  0  0  0  0  0
   -2.8927   -1.2400   -0.0806 C   0  0  0  0  0  0
   -2.2354   -0.5183   -1.0600 C   0  0  0  0  0  0
   -0.8549   -0.4810   -1.0830 C   0  0  0  0  0  0
   -4.6540   -1.2793   -0.0502 S   0  0  0  0  0  0
   -4.9978   -1.0466   -1.4092 O   0  0  0  0  0  0
   -4.9305   -2.5132    0.5980 O   0  0  0  0  0  0
   -5.0809    0.1374    0.9993 C   0  0  0  0  0  0
    1.5853    1.3652   -0.0361 C   0  0  0  0  0  0
    0.2965    1.6415    0.4228 C   0  0  0  0  0  0
   -0.1438    2.9470    0.4894 C   0  0  0  0  0  0
    0.6902    3.9824    0.1020 C   0  0  0  0  0  0
    1.9697    3.7144   -0.3545 C   0  0  0  0  0  0
    2.4233    2.4134   -0.4196 C   0  0  0  0  0  0
    0.1290    5.6230    0.1886 Cl  0  0  0  0  0  0
    1.8205   -3.2669   -0.2690 H   0  0  0  0  0  0
    4.9160   -2.7272   -1.3259 H   0  0  0  0  0  0
   -0.2264   -2.4430    1.5997 H   0  0  0  0  0  0
   -2.6867   -2.4948    1.6380 H   0  0  0  0  0  0
   -2.8021    0.0201   -1.8052 H   0  0  0  0  0  0
   -0.3421    0.0832   -1.8479 H   0  0  0  0  0  0
   -6.1648    0.2099    1.0886 H   0  0  0  0  0  0
   -4.6431    0.0019    1.9883 H   0  0  0  0  0  0
   -4.6912    1.0517    0.5516 H   0  0  0  0  0  0
   -0.3548    0.8347    0.7248 H   0  0  0  0  0  0
   -1.1410    3.1620    0.8440 H   0  0  0  0  0  0
    2.6156    4.5260   -0.6556 H   0  0  0  0  0  0
    3.4215    2.2055   -0.7756 H   0  0  0  0  0  0
  1  2  1  0  0  0
  1  5  2  0  0  0
  1 19  1  0  0  0
  2  3  1  0  0  0
  2  9  1  0  0  0
  3  4  2  0  0  0
  3 26  1  0  0  0
  4  5  1  0  0  0
  4  6  1  0  0  0
  6  7  1  0  0  0
  6  8  1  0  0  0
  6 27  1  0  0  0
  9 10  1  0  0  0
  9 14  2  0  0  0
 10 11  2  0  0  0
 10 28  1  0  0  0
 11 12  1  0  0  0
 11 29  1  0  0  0
 12 13  2  0  0  0
 12 15  1  0  0  0
 13 14  1  0  0  0
 13 30  1  0  0  0
 14 31  1  0  0  0
 15 16  2  0  0  0
 15 17  2  0  0  0
 15 18  1  0  0  0
 18 32  1  0  0  0
 18 33  1  0  0  0
 18 34  1  0  0  0
 19 20  1  0  0  0
 19 24  2  0  0  0
 20 21  2  0  0  0
 20 35  1  0  0  0
 21 22  1  0  0  0
 21 36  1  0  0  0
 22 23  2  0  0  0
 22 25  1  0  0  0
 23 24  1  0  0  0
 23 37  1  0  0  0
 24 38  1  0  0  0
M  END
>  <Activity>
6.21467

>  <set>
1

>  <Min_dist>
999.9

>  <Avg_dist>
999.9

$$$$
3-88
  Cerius2 12110214513D 1   1.00000                          
 
 38 40  0  0  0  0  0  0  0  0999 V2000
    2.2136    0.6705   -0.1844 C   0  0  0  0  0  0
    1.2025    1.5895   -0.1554 N   0  0  0  0  0  0
    1.7869    2.8284   -0.2142 C   0  0  0  0  0  0
    3.1198    2.6334   -0.2766 C   0  0  0  0  0  0
    3.3564    1.3165   -0.2573 N   0  0  0  0  0  0
    4.1657    3.7154   -0.3554 C   0  0  0  0  0  0
    4.5557    4.0820    0.9372 F   0  0  0  0  0  0
   -0.1702    1.3174   -0.0803 C   0  0  0  0  0  0
   -1.0302    1.8045   -1.0553 C   0  0  0  0  0  0
   -2.3826    1.5343   -0.9788 C   0  0  0  0  0  0
   -2.8801    0.7795    0.0675 C   0  0  0  0  0  0
   -2.0261    0.2933    1.0404 C   0  0  0  0  0  0
   -0.6720    0.5554    0.9662 C   0  0  0  0  0  0
   -4.6059    0.4368    0.1616 S   0  0  0  0  0  0
   -4.8127    0.2409    1.5538 O   0  0  0  0  0  0
   -5.1827    1.5290   -0.5411 O   0  0  0  0  0  0
   -4.7702   -1.1149   -0.7634 C   0  0  0  0  0  0
    2.0506   -0.7982   -0.1358 C   0  0  0  0  0  0
    0.8300   -1.3794   -0.4825 C   0  0  0  0  0  0
    0.6838   -2.7502   -0.4351 C   0  0  0  0  0  0
    1.7452   -3.5493   -0.0447 C   0  0  0  0  0  0
    2.9585   -2.9783    0.3008 C   0  0  0  0  0  0
    3.1184   -1.6092    0.2514 C   0  0  0  0  0  0
    1.5538   -5.2738    0.0124 Cl  0  0  0  0  0  0
    1.2764    3.7801   -0.2114 H   0  0  0  0  0  0
    5.0312    3.3449   -0.9047 H   0  0  0  0  0  0
    3.7529    4.5830   -0.8702 H   0  0  0  0  0  0
   -0.6423    2.3945   -1.8725 H   0  0  0  0  0  0
   -3.0521    1.9132   -1.7367 H   0  0  0  0  0  0
   -2.4177   -0.2953    1.8568 H   0  0  0  0  0  0
   -0.0054    0.1751    1.7261 H   0  0  0  0  0  0
   -5.8151   -1.4252   -0.7697 H   0  0  0  0  0  0
   -4.4296   -0.9649   -1.7879 H   0  0  0  0  0  0
   -4.1648   -1.8869   -0.2885 H   0  0  0  0  0  0
    0.0014   -0.7572   -0.7868 H   0  0  0  0  0  0
   -0.2604   -3.2011   -0.7028 H   0  0  0  0  0  0
    3.7827   -3.6066    0.6049 H   0  0  0  0  0  0
    4.0653   -1.1649    0.5208 H   0  0  0  0  0  0
  1  2  1  0  0  0
  1  5  2  0  0  0
  1 18  1  0  0  0
  2  3  1  0  0  0
  2  8  1  0  0  0
  3  4  2  0  0  0
  3 25  1  0  0  0
  4  5  1  0  0  0
  4  6  1  0  0  0
  6  7  1  0  0  0
  6 26  1  0  0  0
  6 27  1  0  0  0
  8  9  1  0  0  0
  8 13  2  0  0  0
  9 10  2  0  0  0
  9 28  1  0  0  0
 10 11  1  0  0  0
 10 29  1  0  0  0
 11 12  2  0  0  0
 11 14  1  0  0  0
 12 13  1  0  0  0
 12 30  1  0  0  0
 13 31  1  0  0  0
 14 15  2  0  0  0
 14 16  2  0  0  0
 14 17  1  0  0  0
 17 32  1  0  0  0
 17 33  1  0  0  0
 17 34  1  0  0  0
 18 19  1  0  0  0
 18 23  2  0  0  0
 19 20  2  0  0  0
 19 35  1  0  0  0
 20 21  1  0  0  0
 20 36  1  0  0  0
 21 22  2  0  0  0
 21 24  1  0  0  0
 22 23  1  0  0  0
 22 37  1  0  0  0
 23 38  1  0  0  0
M  END
>  <Activity>
6.38722

>  <set>
1

>  <Min_dist>
999.9

>  <Avg_dist>
999.9

$$$$
3-89
  Cerius2 12110214513D 1   1.00000                          
 
 37 39  0  0  0  0  0  0  0  0999 V2000
    2.2073    0.8493   -0.0209 C   0  0  0  0  0  0
    1.1557    1.7260    0.0205 N   0  0  0  0  0  0
    1.6699    2.9842    0.0359 C   0  0  0  0  0  0
    3.0433    2.8536    0.0033 C   0  0  0  0  0  0
    3.3283    1.5273   -0.0309 N   0  0  0  0  0  0
    4.0173    3.9484    0.0043 C   0  0  0  0  0  0
    5.2054    3.7036   -0.0266 O   0  0  0  0  0  0
   -0.2037    1.3872    0.0422 C   0  0  0  0  0  0
   -1.0627    1.8951   -0.9232 C   0  0  0  0  0  0
   -2.4023    1.5594   -0.8992 C   0  0  0  0  0  0
   -2.8881    0.7183    0.0850 C   0  0  0  0  0  0
   -2.0351    0.2108    1.0478 C   0  0  0  0  0  0
   -0.6935    0.5383    1.0257 C   0  0  0  0  0  0
   -4.5978    0.2928    0.1127 S   0  0  0  0  0  0
   -4.8275    0.0002    1.4841 O   0  0  0  0  0  0
   -5.2085    1.3999   -0.5359 O   0  0  0  0  0  0
   -4.6679   -1.2033   -0.9108 C   0  0  0  0  0  0
    2.0955   -0.6252   -0.0441 C   0  0  0  0  0  0
    0.9899   -1.2345   -0.6388 C   0  0  0  0  0  0
    0.8910   -2.6102   -0.6573 C   0  0  0  0  0  0
    1.8858   -3.3864   -0.0870 C   0  0  0  0  0  0
    2.9853   -2.7873    0.5046 C   0  0  0  0  0  0
    3.0980   -1.4127    0.5236 C   0  0  0  0  0  0
    1.7540   -5.1172   -0.1131 Cl  0  0  0  0  0  0
    1.1113    3.9080    0.0672 H   0  0  0  0  0  0
    3.6776    4.9732    0.0325 H   0  0  0  0  0  0
   -0.6839    2.5524   -1.6919 H   0  0  0  0  0  0
   -3.0710    1.9545   -1.6496 H   0  0  0  0  0  0
   -2.4176   -0.4456    1.8155 H   0  0  0  0  0  0
   -0.0278    0.1417    1.7780 H   0  0  0  0  0  0
   -5.6967   -1.5595   -0.9635 H   0  0  0  0  0  0
   -4.3109   -0.9738   -1.9148 H   0  0  0  0  0  0
   -4.0382   -1.9756   -0.4690 H   0  0  0  0  0  0
    0.2130   -0.6302   -1.0833 H   0  0  0  0  0  0
    0.0357   -3.0829   -1.1173 H   0  0  0  0  0  0
    3.7580   -3.3976    0.9482 H   0  0  0  0  0  0
    3.9560   -0.9465    0.9850 H   0  0  0  0  0  0
  1  2  1  0  0  0
  1  5  2  0  0  0
  1 18  1  0  0  0
  2  3  1  0  0  0
  2  8  1  0  0  0
  3  4  2  0  0  0
  3 25  1  0  0  0
  4  5  1  0  0  0
  4  6  1  0  0  0
  6  7  2  0  0  0
  6 26  1  0  0  0
  8  9  1  0  0  0
  8 13  2  0  0  0
  9 10  2  0  0  0
  9 27  1  0  0  0
 10 11  1  0  0  0
 10 28  1  0  0  0
 11 12  2  0  0  0
 11 14  1  0  0  0
 12 13  1  0  0  0
 12 29  1  0  0  0
 13 30  1  0  0  0
 14 15  2  0  0  0
 14 16  2  0  0  0
 14 17  1  0  0  0
 17 31  1  0  0  0
 17 32  1  0  0  0
 17 33  1  0  0  0
 18 19  1  0  0  0
 18 23  2  0  0  0
 19 20  2  0  0  0
 19 34  1  0  0  0
 20 21  1  0  0  0
 20 35  1  0  0  0
 21 22  2  0  0  0
 21 24  1  0  0  0
 22 23  1  0  0  0
 22 36  1  0  0  0
 23 37  1  0  0  0
M  END
>  <Activity>
5.79588

>  <set>
1

>  <Min_dist>
999.9

>  <Avg_dist>
999.9

$$$$
3-90
  Cerius2 12110214513D 1   1.00000                          
 
 36 38  0  0  0  0  0  0  0  0999 V2000
    2.2460    0.8833   -0.0247 C   0  0  0  0  0  0
    1.1778    1.7384    0.0162 N   0  0  0  0  0  0
    1.6746    3.0080    0.0298 C   0  0  0  0  0  0
    3.0357    2.9022   -0.0031 C   0  0  0  0  0  0
    3.3504    1.5907   -0.0359 N   0  0  0  0  0  0
    3.9653    3.9915   -0.0028 C   0  0  0  0  0  0
    4.7027    4.8556   -0.0025 N   0  0  0  0  0  0
   -0.1755    1.3761    0.0393 C   0  0  0  0  0  0
   -1.0439    1.8678   -0.9261 C   0  0  0  0  0  0
   -2.3774    1.5089   -0.9006 C   0  0  0  0  0  0
   -2.8478    0.6606    0.0849 C   0  0  0  0  0  0
   -1.9854    0.1692    1.0477 C   0  0  0  0  0  0
   -0.6497    0.5200    1.0242 C   0  0  0  0  0  0
   -4.5497    0.2054    0.1144 S   0  0  0  0  0  0
   -4.7733   -0.0895    1.4863 O   0  0  0  0  0  0
   -5.1801    1.3010   -0.5350 O   0  0  0  0  0  0
   -4.5945   -1.2929   -0.9073 C   0  0  0  0  0  0
    2.1678   -0.5933   -0.0463 C   0  0  0  0  0  0
    1.0749   -1.2283   -0.6378 C   0  0  0  0  0  0
    1.0074   -2.6059   -0.6549 C   0  0  0  0  0  0
    2.0211   -3.3586   -0.0863 C   0  0  0  0  0  0
    3.1078   -2.7341    0.5024 C   0  0  0  0  0  0
    3.1894   -1.3572    0.5196 C   0  0  0  0  0  0
    1.9290   -5.0920   -0.1111 Cl  0  0  0  0  0  0
    1.1012    3.9227    0.0604 H   0  0  0  0  0  0
   -0.6772    2.5307   -1.6958 H   0  0  0  0  0  0
   -3.0534    1.8913   -1.6510 H   0  0  0  0  0  0
   -2.3558   -0.4932    1.8162 H   0  0  0  0  0  0
    0.0234    0.1356    1.7762 H   0  0  0  0  0  0
   -5.6170   -1.6670   -0.9589 H   0  0  0  0  0  0
   -4.2423   -1.0583   -1.9118 H   0  0  0  0  0  0
   -3.9512   -2.0535   -0.4651 H   0  0  0  0  0  0
    0.2833   -0.6423   -1.0809 H   0  0  0  0  0  0
    0.1621   -3.0984   -1.1123 H   0  0  0  0  0  0
    3.8953   -3.3262    0.9447 H   0  0  0  0  0  0
    4.0376   -0.8711    0.9787 H   0  0  0  0  0  0
  1  2  1  0  0  0
  1  5  2  0  0  0
  1 18  1  0  0  0
  2  3  1  0  0  0
  2  8  1  0  0  0
  3  4  2  0  0  0
  3 25  1  0  0  0
  4  5  1  0  0  0
  4  6  1  0  0  0
  6  7  3  0  0  0
  8  9  1  0  0  0
  8 13  2  0  0  0
  9 10  2  0  0  0
  9 26  1  0  0  0
 10 11  1  0  0  0
 10 27  1  0  0  0
 11 12  2  0  0  0
 11 14  1  0  0  0
 12 13  1  0  0  0
 12 28  1  0  0  0
 13 29  1  0  0  0
 14 15  2  0  0  0
 14 16  2  0  0  0
 14 17  1  0  0  0
 17 30  1  0  0  0
 17 31  1  0  0  0
 17 32  1  0  0  0
 18 19  1  0  0  0
 18 23  2  0  0  0
 19 20  2  0  0  0
 19 33  1  0  0  0
 20 21  1  0  0  0
 20 34  1  0  0  0
 21 22  2  0  0  0
 21 24  1  0  0  0
 22 23  1  0  0  0
 22 35  1  0  0  0
 23 36  1  0  0  0
M  END
>  <Activity>
6.63827

>  <set>
1

>  <Min_dist>
999.9

>  <Avg_dist>
999.9

$$$$
3-96
  Cerius2 12110214513D 1   1.00000                          
 
 45 48  0  0  0  0  0  0  0  0999 V2000
    1.4370    0.7180    0.0380 C   0  0  0  0  0  0
    1.0251   -0.5844   -0.0238 N   0  0  0  0  0  0
    2.1501   -1.3634   -0.0474 C   0  0  0  0  0  0
    3.2163   -0.5199    0.0003 C   0  0  0  0  0  0
    2.7501    0.7414    0.0517 N   0  0  0  0  0  0
    4.6447   -0.9209   -0.0031 C   0  0  0  0  0  0
    5.5761   -0.1843   -0.7326 C   0  0  0  0  0  0
    6.9036   -0.5619   -0.7323 C   0  0  0  0  0  0
    7.3102   -1.6691   -0.0097 C   0  0  0  0  0  0
    6.3901   -2.4039    0.7162 C   0  0  0  0  0  0
    5.0610   -2.0321    0.7276 C   0  0  0  0  0  0
   -0.3007   -1.0367   -0.0563 C   0  0  0  0  0  0
   -0.7497   -1.9437    0.8943 C   0  0  0  0  0  0
   -2.0571   -2.3878    0.8596 C   0  0  0  0  0  0
   -2.9184   -1.9305   -0.1208 C   0  0  0  0  0  0
   -2.4741   -1.0272   -1.0689 C   0  0  0  0  0  0
   -1.1696   -0.5747   -1.0358 C   0  0  0  0  0  0
   -4.5852   -2.5003   -0.1624 S   0  0  0  0  0  0
   -4.9323   -2.3589   -1.5331 O   0  0  0  0  0  0
   -4.4995   -3.7710    0.4677 O   0  0  0  0  0  0
   -5.4593   -1.2969    0.8760 C   0  0  0  0  0  0
    0.5523    1.9021    0.0764 C   0  0  0  0  0  0
   -0.7107    1.8142    0.6638 C   0  0  0  0  0  0
   -1.5316    2.9221    0.6966 C   0  0  0  0  0  0
   -1.1050    4.1198    0.1478 C   0  0  0  0  0  0
    0.1470    4.2131   -0.4364 C   0  0  0  0  0  0
    0.9792    3.1135   -0.4696 C   0  0  0  0  0  0
   -2.1442    5.5097    0.1918 Cl  0  0  0  0  0  0
    2.1848   -2.4418   -0.0944 H   0  0  0  0  0  0
    5.2596    0.6801   -1.2974 H   0  0  0  0  0  0
    7.6262    0.0080   -1.2976 H   0  0  0  0  0  0
    8.3500   -1.9612   -0.0126 H   0  0  0  0  0  0
    6.7130   -3.2677    1.2783 H   0  0  0  0  0  0
    4.3434   -2.6064    1.2947 H   0  0  0  0  0  0
   -0.0774   -2.3018    1.6599 H   0  0  0  0  0  0
   -2.4070   -3.0932    1.5987 H   0  0  0  0  0  0
   -3.1491   -0.6718   -1.8334 H   0  0  0  0  0  0
   -0.8232    0.1311   -1.7763 H   0  0  0  0  0  0
   -6.5169   -1.5567    0.9214 H   0  0  0  0  0  0
   -5.0383   -1.3108    1.8813 H   0  0  0  0  0  0
   -5.3480   -0.3001    0.4492 H   0  0  0  0  0  0
   -1.0447    0.8804    1.0915 H   0  0  0  0  0  0
   -2.5091    2.8553    1.1509 H   0  0  0  0  0  0
    0.4743    5.1497   -0.8631 H   0  0  0  0  0  0
    1.9555    3.1874   -0.9254 H   0  0  0  0  0  0
  1  2  1  0  0  0
  1  5  2  0  0  0
  1 22  1  0  0  0
  2  3  1  0  0  0
  2 12  1  0  0  0
  3  4  2  0  0  0
  3 29  1  0  0  0
  4  5  1  0  0  0
  4  6  1  0  0  0
  6  7  1  0  0  0
  6 11  2  0  0  0
  7  8  2  0  0  0
  7 30  1  0  0  0
  8  9  1  0  0  0
  8 31  1  0  0  0
  9 10  2  0  0  0
  9 32  1  0  0  0
 10 11  1  0  0  0
 10 33  1  0  0  0
 11 34  1  0  0  0
 12 13  1  0  0  0
 12 17  2  0  0  0
 13 14  2  0  0  0
 13 35  1  0  0  0
 14 15  1  0  0  0
 14 36  1  0  0  0
 15 16  2  0  0  0
 15 18  1  0  0  0
 16 17  1  0  0  0
 16 37  1  0  0  0
 17 38  1  0  0  0
 18 19  2  0  0  0
 18 20  2  0  0  0
 18 21  1  0  0  0
 21 39  1  0  0  0
 21 40  1  0  0  0
 21 41  1  0  0  0
 22 23  1  0  0  0
 22 27  2  0  0  0
 23 24  2  0  0  0
 23 42  1  0  0  0
 24 25  1  0  0  0
 24 43  1  0  0  0
 25 26  2  0  0  0
 25 28  1  0  0  0
 26 27  1  0  0  0
 26 44  1  0  0  0
 27 45  1  0  0  0
M  END
>  <Activity>
6.61979

>  <set>
1

>  <Min_dist>
999.9

>  <Avg_dist>
999.9

$$$$
3-99
  Cerius2 12110214513D 1   1.00000                          
 
 42 44  0  0  0  0  0  0  0  0999 V2000
    2.1161    0.3924    0.0246 C   0  0  0  0  0  0
    1.5213   -0.8375   -0.0114 N   0  0  0  0  0  0
    2.5281   -1.7680   -0.0222 C   0  0  0  0  0  0
    3.6930   -1.0893    0.0071 C   0  0  0  0  0  0
    3.4195    0.2203    0.0352 N   0  0  0  0  0  0
    5.0699   -1.7021    0.0084 C   0  0  0  0  0  0
    4.9575   -3.1262   -0.0263 O   0  0  0  0  0  0
    6.2887   -3.6457   -0.0233 C   0  0  0  0  0  0
    0.1445   -1.0979   -0.0327 C   0  0  0  0  0  0
   -0.4274   -1.8981    0.9473 C   0  0  0  0  0  0
   -1.7847   -2.1525    0.9239 C   0  0  0  0  0  0
   -2.5739   -1.6113   -0.0743 C   0  0  0  0  0  0
   -2.0072   -0.8144   -1.0520 C   0  0  0  0  0  0
   -0.6514   -0.5516   -1.0306 C   0  0  0  0  0  0
   -4.3051   -1.9383   -0.1007 S   0  0  0  0  0  0
   -4.6315   -1.7966   -1.4764 O   0  0  0  0  0  0
   -4.4005   -3.1855    0.5735 O   0  0  0  0  0  0
   -4.9962   -0.5869    0.8927 C   0  0  0  0  0  0
    1.4143    1.6936    0.0422 C   0  0  0  0  0  0
    0.0815    1.7653    0.4502 C   0  0  0  0  0  0
   -0.5681    2.9820    0.4645 C   0  0  0  0  0  0
    0.0996    4.1310    0.0750 C   0  0  0  0  0  0
    1.4218    4.0661   -0.3313 C   0  0  0  0  0  0
    2.0836    2.8559   -0.3438 C   0  0  0  0  0  0
   -0.7245    5.6588    0.0956 Cl  0  0  0  0  0  0
    2.4105   -2.8412   -0.0488 H   0  0  0  0  0  0
    5.6208   -1.3596   -0.8675 H   0  0  0  0  0  0
    5.6004   -1.4014    0.9119 H   0  0  0  0  0  0
    6.2537   -4.7349   -0.0493 H   0  0  0  0  0  0
    6.8241   -3.2784   -0.8988 H   0  0  0  0  0  0
    6.8037   -3.3202    0.8806 H   0  0  0  0  0  0
    0.1886   -2.3213    1.7270 H   0  0  0  0  0  0
   -2.2301   -2.7752    1.6858 H   0  0  0  0  0  0
   -2.6261   -0.3937   -1.8307 H   0  0  0  0  0  0
   -0.2095    0.0712   -1.7943 H   0  0  0  0  0  0
   -6.0799   -0.6912    0.9442 H   0  0  0  0  0  0
   -4.5792   -0.6258    1.8991 H   0  0  0  0  0  0
   -4.7445    0.3683    0.4319 H   0  0  0  0  0  0
   -0.4403    0.8698    0.7538 H   0  0  0  0  0  0
   -1.5995    3.0387    0.7797 H   0  0  0  0  0  0
    1.9373    4.9654   -0.6343 H   0  0  0  0  0  0
    3.1150    2.8065   -0.6605 H   0  0  0  0  0  0
  1  2  1  0  0  0
  1  5  2  0  0  0
  1 19  1  0  0  0
  2  3  1  0  0  0
  2  9  1  0  0  0
  3  4  2  0  0  0
  3 26  1  0  0  0
  4  5  1  0  0  0
  4  6  1  0  0  0
  6  7  1  0  0  0
  6 27  1  0  0  0
  6 28  1  0  0  0
  7  8  1  0  0  0
  8 29  1  0  0  0
  8 30  1  0  0  0
  8 31  1  0  0  0
  9 10  1  0  0  0
  9 14  2  0  0  0
 10 11  2  0  0  0
 10 32  1  0  0  0
 11 12  1  0  0  0
 11 33  1  0  0  0
 12 13  2  0  0  0
 12 15  1  0  0  0
 13 14  1  0  0  0
 13 34  1  0  0  0
 14 35  1  0  0  0
 15 16  2  0  0  0
 15 17  2  0  0  0
 15 18  1  0  0  0
 18 36  1  0  0  0
 18 37  1  0  0  0
 18 38  1  0  0  0
 19 20  1  0  0  0
 19 24  2  0  0  0
 20 21  2  0  0  0
 20 39  1  0  0  0
 21 22  1  0  0  0
 21 40  1  0  0  0
 22 23  2  0  0  0
 22 25  1  0  0  0
 23 24  1  0  0  0
 23 41  1  0  0  0
 24 42  1  0  0  0
M  END
>  <Activity>
5.42946

>  <set>
1

>  <Min_dist>
999.9

>  <Avg_dist>
999.9

$$$$
3-100
  Cerius2 12110214513D 1   1.00000                          
 
 39 41  0  0  0  0  0  0  0  0999 V2000
    2.2516    0.7599   -0.0221 C   0  0  0  0  0  0
    1.1975    1.6290    0.0142 N   0  0  0  0  0  0
    1.7237    2.8949    0.0264 C   0  0  0  0  0  0
    3.0657    2.7648   -0.0025 C   0  0  0  0  0  0
    3.3641    1.4607   -0.0316 N   0  0  0  0  0  0
    4.0608    3.8965   -0.0024 C   0  0  0  0  0  0
    3.3639    5.1436    0.0331 O   0  0  0  0  0  0
   -0.1622    1.2906    0.0346 C   0  0  0  0  0  0
   -1.0156    1.7796   -0.9453 C   0  0  0  0  0  0
   -2.3552    1.4440   -0.9228 C   0  0  0  0  0  0
   -2.8467    0.6217    0.0744 C   0  0  0  0  0  0
   -1.9994    0.1335    1.0521 C   0  0  0  0  0  0
   -0.6577    0.4610    1.0316 C   0  0  0  0  0  0
   -4.5562    0.1958    0.0998 S   0  0  0  0  0  0
   -4.7942   -0.0704    1.4752 O   0  0  0  0  0  0
   -5.1635    1.2898   -0.5738 O   0  0  0  0  0  0
   -4.6193   -1.3198   -0.8950 C   0  0  0  0  0  0
    2.1574   -0.7155   -0.0410 C   0  0  0  0  0  0
    0.9765   -1.3369   -0.4500 C   0  0  0  0  0  0
    0.8945   -2.7137   -0.4655 C   0  0  0  0  0  0
    1.9808   -3.4792   -0.0762 C   0  0  0  0  0  0
    3.1549   -2.8683    0.3311 C   0  0  0  0  0  0
    3.2508   -1.4923    0.3448 C   0  0  0  0  0  0
    1.8701   -5.2115   -0.0983 Cl  0  0  0  0  0  0
    1.1687    3.8210    0.0535 H   0  0  0  0  0  0
    4.7040    3.8147    0.8737 H   0  0  0  0  0  0
    4.6688    3.8457   -0.9056 H   0  0  0  0  0  0
    4.0356    5.8392    0.0319 H   0  0  0  0  0  0
   -0.6323    2.4221   -1.7243 H   0  0  0  0  0  0
   -3.0195    1.8244   -1.6846 H   0  0  0  0  0  0
   -2.3863   -0.5079    1.8301 H   0  0  0  0  0  0
    0.0036    0.0790    1.7952 H   0  0  0  0  0  0
   -5.6476   -1.6776   -0.9472 H   0  0  0  0  0  0
   -4.2562   -1.1095   -1.9010 H   0  0  0  0  0  0
   -3.9919   -2.0830   -0.4345 H   0  0  0  0  0  0
    0.1285   -0.7409   -0.7535 H   0  0  0  0  0  0
   -0.0189   -3.1956   -0.7816 H   0  0  0  0  0  0
    3.9987   -3.4704    0.6339 H   0  0  0  0  0  0
    4.1671   -1.0170    0.6624 H   0  0  0  0  0  0
  1  2  1  0  0  0
  1  5  2  0  0  0
  1 18  1  0  0  0
  2  3  1  0  0  0
  2  8  1  0  0  0
  3  4  2  0  0  0
  3 25  1  0  0  0
  4  5  1  0  0  0
  4  6  1  0  0  0
  6  7  1  0  0  0
  6 26  1  0  0  0
  6 27  1  0  0  0
  7 28  1  0  0  0
  8  9  1  0  0  0
  8 13  2  0  0  0
  9 10  2  0  0  0
  9 29  1  0  0  0
 10 11  1  0  0  0
 10 30  1  0  0  0
 11 12  2  0  0  0
 11 14  1  0  0  0
 12 13  1  0  0  0
 12 31  1  0  0  0
 13 32  1  0  0  0
 14 15  2  0  0  0
 14 16  2  0  0  0
 14 17  1  0  0  0
 17 33  1  0  0  0
 17 34  1  0  0  0
 17 35  1  0  0  0
 18 19  1  0  0  0
 18 23  2  0  0  0
 19 20  2  0  0  0
 19 36  1  0  0  0
 20 21  1  0  0  0
 20 37  1  0  0  0
 21 22  2  0  0  0
 21 24  1  0  0  0
 22 23  1  0  0  0
 22 38  1  0  0  0
 23 39  1  0  0  0
M  END
>  <Activity>
5.07831

>  <set>
1

>  <Min_dist>
999.9

>  <Avg_dist>
999.9

$$$$
4-25
  Cerius2 12110214513D 1   1.00000                          
 
 37 39  0  0  0  0  0  0  0  0999 V2000
    1.7721    0.7529    0.0425 C   0  0  0  0  0  0
    1.0650   -0.4152   -0.0144 N   0  0  0  0  0  0
    1.9804   -1.4351   -0.0468 C   0  0  0  0  0  0
    3.2038   -0.8687   -0.0091 C   0  0  0  0  0  0
    3.0537    0.4598    0.0448 N   0  0  0  0  0  0
    4.5174   -1.6071   -0.0252 C   0  0  0  0  0  0
    5.5701   -0.6870    0.0254 F   0  0  0  0  0  0
    4.5879   -2.4576    1.0834 F   0  0  0  0  0  0
    4.6138   -2.3620   -1.1990 F   0  0  0  0  0  0
   -0.3301   -0.5456   -0.0351 C   0  0  0  0  0  0
   -0.9719   -1.3077    0.9319 C   0  0  0  0  0  0
   -2.3471   -1.4340    0.9092 C   0  0  0  0  0  0
   -3.0846   -0.8027   -0.0755 C   0  0  0  0  0  0
   -2.4483   -0.0430   -1.0399 C   0  0  0  0  0  0
   -1.0739    0.0917   -1.0191 C   0  0  0  0  0  0
   -4.8388   -0.9671   -0.1017 S   0  0  0  0  0  0
   -5.1532   -0.7692   -1.4733 O   0  0  0  0  0  0
   -5.0482   -2.2129    0.5489 O   0  0  0  0  0  0
   -5.3995    0.4230    0.9199 C   0  0  0  0  0  0
    1.1947    2.1134    0.0875 C   0  0  0  0  0  0
   -0.1315    2.3108    0.4897 C   0  0  0  0  0  0
   -0.6238    3.6037    0.5144 C   0  0  0  0  0  0
    0.2022    4.6500    0.1444 C   0  0  0  0  0  0
    1.4482    4.4339   -0.2309 N   0  0  0  0  0  0
    1.9642    3.2225   -0.2649 C   0  0  0  0  0  0
    1.7631   -2.4920   -0.0932 H   0  0  0  0  0  0
   -0.3963   -1.8016    1.7008 H   0  0  0  0  0  0
   -2.8469   -2.0267    1.6611 H   0  0  0  0  0  0
   -3.0270    0.4489   -1.8077 H   0  0  0  0  0  0
   -0.5774    0.6852   -1.7726 H   0  0  0  0  0  0
   -6.4881    0.4187    0.9734 H   0  0  0  0  0  0
   -4.9860    0.3262    1.9238 H   0  0  0  0  0  0
   -5.0612    1.3595    0.4764 H   0  0  0  0  0  0
   -0.7545    1.4754    0.7732 H   0  0  0  0  0  0
   -1.6423    3.7940    0.8190 H   0  0  0  0  0  0
   -0.1794    5.6601    0.1627 H   0  0  0  0  0  0
    2.9889    3.0857   -0.5775 H   0  0  0  0  0  0
  1  2  1  0  0  0
  1  5  2  0  0  0
  1 20  1  0  0  0
  2  3  1  0  0  0
  2 10  1  0  0  0
  3  4  2  0  0  0
  3 26  1  0  0  0
  4  5  1  0  0  0
  4  6  1  0  0  0
  6  7  1  0  0  0
  6  8  1  0  0  0
  6  9  1  0  0  0
 10 11  1  0  0  0
 10 15  2  0  0  0
 11 12  2  0  0  0
 11 27  1  0  0  0
 12 13  1  0  0  0
 12 28  1  0  0  0
 13 14  2  0  0  0
 13 16  1  0  0  0
 14 15  1  0  0  0
 14 29  1  0  0  0
 15 30  1  0  0  0
 16 17  2  0  0  0
 16 18  2  0  0  0
 16 19  1  0  0  0
 19 31  1  0  0  0
 19 32  1  0  0  0
 19 33  1  0  0  0
 20 21  1  0  0  0
 20 25  2  0  0  0
 21 22  2  0  0  0
 21 34  1  0  0  0
 22 23  1  0  0  0
 22 35  1  0  0  0
 23 24  2  0  0  0
 23 36  1  0  0  0
 24 25  1  0  0  0
 25 37  1  0  0  0
M  END
>  <Activity>
5.77211

>  <set>
1

>  <Min_dist>
999.9

>  <Avg_dist>
999.9

$$$$
4-36
  Cerius2 12110214513D 1   1.00000                          
 
 40 42  0  0  0  0  0  0  0  0999 V2000
    1.6801    0.5770    0.1587 C   0  0  0  0  0  0
    0.9307   -0.5591    0.0353 N   0  0  0  0  0  0
    1.8074   -1.6108   -0.0300 C   0  0  0  0  0  0
    3.0504   -1.0943    0.0543 C   0  0  0  0  0  0
    2.9495    0.2350    0.1682 N   0  0  0  0  0  0
    4.3353   -1.8812    0.0251 C   0  0  0  0  0  0
    5.4209   -1.0057    0.1360 F   0  0  0  0  0  0
    4.3535   -2.7843    1.0934 F   0  0  0  0  0  0
    4.4244   -2.5840   -1.1813 F   0  0  0  0  0  0
   -0.4678   -0.6346   -0.0143 C   0  0  0  0  0  0
   -1.1597   -1.3612    0.9454 C   0  0  0  0  0  0
   -2.5380   -1.4334    0.8942 C   0  0  0  0  0  0
   -3.2289   -0.7832   -0.1119 C   0  0  0  0  0  0
   -2.5426   -0.0587   -1.0691 C   0  0  0  0  0  0
   -1.1647    0.0219   -1.0199 C   0  0  0  0  0  0
   -4.9872   -0.8786   -0.1745 S   0  0  0  0  0  0
   -5.2644   -0.6820   -1.5543 O   0  0  0  0  0  0
   -5.2595   -2.1087    0.4826 O   0  0  0  0  0  0
   -5.5139    0.5426    0.8222 C   0  0  0  0  0  0
    1.1537    1.9553    0.2580 C   0  0  0  0  0  0
    0.0110    2.2275    1.0194 C   0  0  0  0  0  0
   -0.4409    3.5338    1.0799 C   0  0  0  0  0  0
    0.2444    4.5199    0.3927 C   0  0  0  0  0  0
    1.3185    4.2338   -0.3174 N   0  0  0  0  0  0
    1.7909    3.0072   -0.4008 C   0  0  0  0  0  0
    3.0223    2.7352   -1.2259 C   0  0  0  0  0  0
    1.5513   -2.6553   -0.1296 H   0  0  0  0  0  0
   -0.6206   -1.8698    1.7310 H   0  0  0  0  0  0
   -3.0767   -1.9984    1.6404 H   0  0  0  0  0  0
   -3.0849    0.4480   -1.8537 H   0  0  0  0  0  0
   -0.6292    0.5879   -1.7678 H   0  0  0  0  0  0
   -6.6028    0.5817    0.8522 H   0  0  0  0  0  0
   -5.1260    0.4394    1.8356 H   0  0  0  0  0  0
   -5.1294    1.4606    0.3777 H   0  0  0  0  0  0
   -0.5049    1.4380    1.5457 H   0  0  0  0  0  0
   -1.3195    3.7811    1.6572 H   0  0  0  0  0  0
   -0.1061    5.5404    0.4382 H   0  0  0  0  0  0
    3.9090    2.8409   -0.6009 H   0  0  0  0  0  0
    2.9766    1.7214   -1.6235 H   0  0  0  0  0  0
    3.0718    3.4468   -2.0501 H   0  0  0  0  0  0
  1  2  1  0  0  0
  1  5  2  0  0  0
  1 20  1  0  0  0
  2  3  1  0  0  0
  2 10  1  0  0  0
  3  4  2  0  0  0
  3 27  1  0  0  0
  4  5  1  0  0  0
  4  6  1  0  0  0
  6  7  1  0  0  0
  6  8  1  0  0  0
  6  9  1  0  0  0
 10 11  1  0  0  0
 10 15  2  0  0  0
 11 12  2  0  0  0
 11 28  1  0  0  0
 12 13  1  0  0  0
 12 29  1  0  0  0
 13 14  2  0  0  0
 13 16  1  0  0  0
 14 15  1  0  0  0
 14 30  1  0  0  0
 15 31  1  0  0  0
 16 17  2  0  0  0
 16 18  2  0  0  0
 16 19  1  0  0  0
 19 32  1  0  0  0
 19 33  1  0  0  0
 19 34  1  0  0  0
 20 21  1  0  0  0
 20 25  2  0  0  0
 21 22  2  0  0  0
 21 35  1  0  0  0
 22 23  1  0  0  0
 22 36  1  0  0  0
 23 24  2  0  0  0
 23 37  1  0  0  0
 24 25  1  0  0  0
 25 26  1  0  0  0
 26 38  1  0  0  0
 26 39  1  0  0  0
 26 40  1  0  0  0
M  END
>  <Activity>
5.01773

>  <set>
1

>  <Min_dist>
999.9

>  <Avg_dist>
999.9

$$$$
4-40
  Cerius2 12110214513D 1   1.00000                          
 
 41 43  0  0  0  0  0  0  0  0999 V2000
    1.7585    0.2170    0.0496 C   0  0  0  0  0  0
    1.0154   -0.9283   -0.0141 N   0  0  0  0  0  0
    1.8994   -1.9766   -0.0512 C   0  0  0  0  0  0
    3.1392   -1.4488   -0.0096 C   0  0  0  0  0  0
    3.0305   -0.1161    0.0513 N   0  0  0  0  0  0
    4.4293   -2.2276   -0.0278 C   0  0  0  0  0  0
    5.5100   -1.3410    0.0282 F   0  0  0  0  0  0
    4.4719   -3.0851    1.0768 F   0  0  0  0  0  0
    4.5035   -2.9796   -1.2051 F   0  0  0  0  0  0
   -0.3831   -1.0153   -0.0365 C   0  0  0  0  0  0
   -1.0491   -1.7621    0.9259 C   0  0  0  0  0  0
   -2.4276   -1.8459    0.9012 C   0  0  0  0  0  0
   -3.1442   -1.1870   -0.0808 C   0  0  0  0  0  0
   -2.4837   -0.4424   -1.0407 C   0  0  0  0  0  0
   -1.1058   -0.3501   -1.0179 C   0  0  0  0  0  0
   -4.9026   -1.2968   -0.1093 S   0  0  0  0  0  0
   -5.2094   -1.0821   -1.4801 O   0  0  0  0  0  0
   -5.1511   -2.5389    0.5346 O   0  0  0  0  0  0
   -5.4209    0.1048    0.9191 C   0  0  0  0  0  0
    1.2239    1.5942    0.1013 C   0  0  0  0  0  0
   -0.0973    1.8296    0.5052 C   0  0  0  0  0  0
   -0.5509    3.1333    0.5372 C   0  0  0  0  0  0
    0.3103    4.1618    0.1709 C   0  0  0  0  0  0
    1.5526    3.9070   -0.2065 N   0  0  0  0  0  0
    2.0283    2.6788   -0.2456 C   0  0  0  0  0  0
   -0.1296    5.4445    0.2003 O   0  0  0  0  0  0
    0.9614    6.2651   -0.2217 C   0  0  0  0  0  0
    1.6495   -3.0260   -0.1034 H   0  0  0  0  0  0
   -0.4899   -2.2773    1.6929 H   0  0  0  0  0  0
   -2.9462   -2.4270    1.6494 H   0  0  0  0  0  0
   -3.0461    0.0712   -1.8064 H   0  0  0  0  0  0
   -0.5905    0.2316   -1.7679 H   0  0  0  0  0  0
   -6.5092    0.1339    0.9717 H   0  0  0  0  0  0
   -5.0116   -0.0101    1.9228 H   0  0  0  0  0  0
   -5.0533    1.0326    0.4807 H   0  0  0  0  0  0
   -0.7447    1.0114    0.7841 H   0  0  0  0  0  0
   -1.5634    3.3517    0.8431 H   0  0  0  0  0  0
    3.0479    2.5098   -0.5590 H   0  0  0  0  0  0
    0.6538    7.3108   -0.2141 H   0  0  0  0  0  0
    1.8027    6.1289    0.4579 H   0  0  0  0  0  0
    1.2601    5.9816   -1.2309 H   0  0  0  0  0  0
  1  2  1  0  0  0
  1  5  2  0  0  0
  1 20  1  0  0  0
  2  3  1  0  0  0
  2 10  1  0  0  0
  3  4  2  0  0  0
  3 28  1  0  0  0
  4  5  1  0  0  0
  4  6  1  0  0  0
  6  7  1  0  0  0
  6  8  1  0  0  0
  6  9  1  0  0  0
 10 11  1  0  0  0
 10 15  2  0  0  0
 11 12  2  0  0  0
 11 29  1  0  0  0
 12 13  1  0  0  0
 12 30  1  0  0  0
 13 14  2  0  0  0
 13 16  1  0  0  0
 14 15  1  0  0  0
 14 31  1  0  0  0
 15 32  1  0  0  0
 16 17  2  0  0  0
 16 18  2  0  0  0
 16 19  1  0  0  0
 19 33  1  0  0  0
 19 34  1  0  0  0
 19 35  1  0  0  0
 20 21  1  0  0  0
 20 25  2  0  0  0
 21 22  2  0  0  0
 21 36  1  0  0  0
 22 23  1  0  0  0
 22 37  1  0  0  0
 23 24  2  0  0  0
 23 26  1  0  0  0
 24 25  1  0  0  0
 25 38  1  0  0  0
 26 27  1  0  0  0
 27 39  1  0  0  0
 27 40  1  0  0  0
 27 41  1  0  0  0
M  END
>  <Activity>
5.92082

>  <set>
1

>  <Min_dist>
999.9

>  <Avg_dist>
999.9

$$$$
4-41
  Cerius2 12110214513D 1   1.00000                          
 
 41 43  0  0  0  0  0  0  0  0999 V2000
    1.8716    0.6033   -0.0298 C   0  0  0  0  0  0
    1.2909   -0.6338   -0.0268 N   0  0  0  0  0  0
    2.3079   -1.5523    0.0047 C   0  0  0  0  0  0
    3.4650   -0.8597    0.0198 C   0  0  0  0  0  0
    3.1766    0.4467   -0.0016 N   0  0  0  0  0  0
    4.8485   -1.4561    0.0548 C   0  0  0  0  0  0
    5.7989   -0.4295    0.0617 F   0  0  0  0  0  0
    4.9925   -2.2327    1.2095 F   0  0  0  0  0  0
    5.0386   -2.2598   -1.0744 F   0  0  0  0  0  0
   -0.0826   -0.9106   -0.0508 C   0  0  0  0  0  0
   -0.6545   -1.6818    0.9522 C   0  0  0  0  0  0
   -2.0085   -1.9530    0.9257 C   0  0  0  0  0  0
   -2.7944   -1.4575   -0.0985 C   0  0  0  0  0  0
   -2.2278   -0.6890   -1.0987 C   0  0  0  0  0  0
   -0.8755   -0.4093   -1.0745 C   0  0  0  0  0  0
   -4.5212   -1.8065   -0.1293 S   0  0  0  0  0  0
   -4.8358   -1.7181   -1.5122 O   0  0  0  0  0  0
   -4.6082   -3.0300    0.5882 O   0  0  0  0  0  0
   -5.2380   -0.4292    0.8087 C   0  0  0  0  0  0
    1.1550    1.8964   -0.0651 C   0  0  0  0  0  0
   -0.1889    1.9748    0.3158 C   0  0  0  0  0  0
   -0.8153    3.2127    0.2643 C   0  0  0  0  0  0
   -0.0929    4.3202   -0.1596 C   0  0  0  0  0  0
    1.1732    4.2110   -0.5117 N   0  0  0  0  0  0
    1.8100    3.0588   -0.4734 C   0  0  0  0  0  0
   -2.1199    3.3390    0.6241 O   0  0  0  0  0  0
   -2.4615    4.7171    0.4621 C   0  0  0  0  0  0
    2.2026   -2.6271    0.0156 H   0  0  0  0  0  0
   -0.0410   -2.0697    1.7520 H   0  0  0  0  0  0
   -2.4539   -2.5529    1.7056 H   0  0  0  0  0  0
   -2.8441   -0.3037   -1.8976 H   0  0  0  0  0  0
   -0.4336    0.1912   -1.8558 H   0  0  0  0  0  0
   -6.3209   -0.5450    0.8537 H   0  0  0  0  0  0
   -4.8305   -0.4270    1.8196 H   0  0  0  0  0  0
   -4.9934    0.5119    0.3162 H   0  0  0  0  0  0
   -0.7250    1.0954    0.6410 H   0  0  0  0  0  0
   -0.5753    5.2855   -0.2019 H   0  0  0  0  0  0
    2.8474    3.0115   -0.7699 H   0  0  0  0  0  0
   -3.5046    4.8680    0.7402 H   0  0  0  0  0  0
   -1.8232    5.3272    1.1012 H   0  0  0  0  0  0
   -2.3173    5.0073   -0.5786 H   0  0  0  0  0  0
  1  2  1  0  0  0
  1  5  2  0  0  0
  1 20  1  0  0  0
  2  3  1  0  0  0
  2 10  1  0  0  0
  3  4  2  0  0  0
  3 28  1  0  0  0
  4  5  1  0  0  0
  4  6  1  0  0  0
  6  7  1  0  0  0
  6  8  1  0  0  0
  6  9  1  0  0  0
 10 11  1  0  0  0
 10 15  2  0  0  0
 11 12  2  0  0  0
 11 29  1  0  0  0
 12 13  1  0  0  0
 12 30  1  0  0  0
 13 14  2  0  0  0
 13 16  1  0  0  0
 14 15  1  0  0  0
 14 31  1  0  0  0
 15 32  1  0  0  0
 16 17  2  0  0  0
 16 18  2  0  0  0
 16 19  1  0  0  0
 19 33  1  0  0  0
 19 34  1  0  0  0
 19 35  1  0  0  0
 20 21  1  0  0  0
 20 25  2  0  0  0
 21 22  2  0  0  0
 21 36  1  0  0  0
 22 23  1  0  0  0
 22 26  1  0  0  0
 23 24  2  0  0  0
 23 37  1  0  0  0
 24 25  1  0  0  0
 25 38  1  0  0  0
 26 27  1  0  0  0
 27 39  1  0  0  0
 27 40  1  0  0  0
 27 41  1  0  0  0
M  END
>  <Activity>
4.42481

>  <set>
1

>  <Min_dist>
999.9

>  <Avg_dist>
999.9

$$$$
4-42
  Cerius2 12110214513D 1   1.00000                          
 
 37 39  0  0  0  0  0  0  0  0999 V2000
    2.1215    0.5906   -0.1036 C   0  0  0  0  0  0
    1.7283   -0.7169   -0.0447 N   0  0  0  0  0  0
    2.8676   -1.4726    0.0555 C   0  0  0  0  0  0
    3.9101   -0.6169    0.0549 C   0  0  0  0  0  0
    3.4342    0.6299   -0.0424 N   0  0  0  0  0  0
    5.3645   -1.0000    0.1488 C   0  0  0  0  0  0
    6.1539    0.1546    0.1179 F   0  0  0  0  0  0
    5.5894   -1.6868    1.3467 F   0  0  0  0  0  0
    5.7005   -1.8236   -0.9310 F   0  0  0  0  0  0
    0.4112   -1.1942   -0.0795 C   0  0  0  0  0  0
   -0.0680   -1.9896    0.9527 C   0  0  0  0  0  0
   -1.3668   -2.4581    0.9158 C   0  0  0  0  0  0
   -2.1894   -2.1362   -0.1480 C   0  0  0  0  0  0
   -1.7151   -1.3442   -1.1775 C   0  0  0  0  0  0
   -0.4190   -0.8679   -1.1435 C   0  0  0  0  0  0
   -3.8453   -2.7367   -0.1921 S   0  0  0  0  0  0
   -4.1331   -2.7656   -1.5834 O   0  0  0  0  0  0
   -3.7715   -3.9219    0.5885 O   0  0  0  0  0  0
   -4.7800   -1.4344    0.6569 C   0  0  0  0  0  0
    1.2246    1.7602   -0.2222 C   0  0  0  0  0  0
   -0.1266    1.6591    0.1286 C   0  0  0  0  0  0
   -0.9238    2.7837   -0.0004 C   0  0  0  0  0  0
   -0.3641    3.9605   -0.4677 C   0  0  0  0  0  0
    0.9130    4.0253   -0.7910 N   0  0  0  0  0  0
    1.7125    2.9845   -0.6801 C   0  0  0  0  0  0
   -2.7575    2.7128    0.4561 Br  0  0  0  0  0  0
    2.9204   -2.5492    0.1225 H   0  0  0  0  0  0
    0.5743   -2.2420    1.7835 H   0  0  0  0  0  0
   -1.7401   -3.0769    1.7184 H   0  0  0  0  0  0
   -2.3600   -1.0944   -2.0071 H   0  0  0  0  0  0
   -0.0491   -0.2494   -1.9478 H   0  0  0  0  0  0
   -5.8352   -1.7059    0.6880 H   0  0  0  0  0  0
   -4.4039   -1.3211    1.6736 H   0  0  0  0  0  0
   -4.6627   -0.4935    0.1191 H   0  0  0  0  0  0
   -0.5369    0.7278    0.4902 H   0  0  0  0  0  0
   -0.9832    4.8396   -0.5696 H   0  0  0  0  0  0
    2.7528    3.0770   -0.9549 H   0  0  0  0  0  0
  1  2  1  0  0  0
  1  5  2  0  0  0
  1 20  1  0  0  0
  2  3  1  0  0  0
  2 10  1  0  0  0
  3  4  2  0  0  0
  3 27  1  0  0  0
  4  5  1  0  0  0
  4  6  1  0  0  0
  6  7  1  0  0  0
  6  8  1  0  0  0
  6  9  1  0  0  0
 10 11  1  0  0  0
 10 15  2  0  0  0
 11 12  2  0  0  0
 11 28  1  0  0  0
 12 13  1  0  0  0
 12 29  1  0  0  0
 13 14  2  0  0  0
 13 16  1  0  0  0
 14 15  1  0  0  0
 14 30  1  0  0  0
 15 31  1  0  0  0
 16 17  2  0  0  0
 16 18  2  0  0  0
 16 19  1  0  0  0
 19 32  1  0  0  0
 19 33  1  0  0  0
 19 34  1  0  0  0
 20 21  1  0  0  0
 20 25  2  0  0  0
 21 22  2  0  0  0
 21 35  1  0  0  0
 22 23  1  0  0  0
 22 26  1  0  0  0
 23 24  2  0  0  0
 23 36  1  0  0  0
 24 25  1  0  0  0
 25 37  1  0  0  0
M  END
>  <Activity>
6.02228

>  <set>
1

>  <Min_dist>
999.9

>  <Avg_dist>
999.9

$$$$
4-43
  Cerius2 12110214513D 1   1.00000                          
 
 36 38  0  0  0  0  0  0  0  0999 V2000
    1.7976    0.7503    0.0453 C   0  0  0  0  0  0
    1.0886   -0.4164   -0.0173 N   0  0  0  0  0  0
    2.0023   -1.4376   -0.0535 C   0  0  0  0  0  0
    3.2266   -0.8735   -0.0126 C   0  0  0  0  0  0
    3.0787    0.4550    0.0471 N   0  0  0  0  0  0
    4.5390   -1.6139   -0.0310 C   0  0  0  0  0  0
    5.5932   -0.6959    0.0242 F   0  0  0  0  0  0
    4.6073   -2.4695    1.0738 F   0  0  0  0  0  0
    4.6349   -2.3638   -1.2082 F   0  0  0  0  0  0
   -0.3068   -0.5444   -0.0394 C   0  0  0  0  0  0
   -0.9504   -1.3096    0.9238 C   0  0  0  0  0  0
   -2.3258   -1.4335    0.8996 C   0  0  0  0  0  0
   -3.0617   -0.7966   -0.0827 C   0  0  0  0  0  0
   -2.4235   -0.0337   -1.0434 C   0  0  0  0  0  0
   -1.0488    0.0986   -1.0211 C   0  0  0  0  0  0
   -4.8160   -0.9580   -0.1109 S   0  0  0  0  0  0
   -5.2080   -0.6796   -1.4481 O   0  0  0  0  0  0
   -5.1051   -2.1547    0.5987 O   0  0  0  0  0  0
   -5.4410    0.2711    0.8063 N   0  0  0  0  0  0
    1.2224    2.1116    0.0958 C   0  0  0  0  0  0
   -0.1037    2.3094    0.4981 C   0  0  0  0  0  0
   -0.5938    3.6030    0.5281 C   0  0  0  0  0  0
    0.2342    4.6495    0.1633 C   0  0  0  0  0  0
    1.4800    4.4330   -0.2122 N   0  0  0  0  0  0
    1.9941    3.2209   -0.2511 C   0  0  0  0  0  0
    1.7833   -2.4939   -0.1048 H   0  0  0  0  0  0
   -0.3762   -1.8079    1.6909 H   0  0  0  0  0  0
   -2.8271   -2.0286    1.6486 H   0  0  0  0  0  0
   -3.0008    0.4625   -1.8094 H   0  0  0  0  0  0
   -0.5509    0.6945   -1.7717 H   0  0  0  0  0  0
   -6.4012    0.3551    0.9151 H   0  0  0  0  0  0
   -4.8469    0.9070    1.2347 H   0  0  0  0  0  0
   -0.7283    1.4738    0.7775 H   0  0  0  0  0  0
   -1.6122    3.7937    0.8329 H   0  0  0  0  0  0
   -0.1458    5.6602    0.1858 H   0  0  0  0  0  0
    3.0187    3.0837   -0.5637 H   0  0  0  0  0  0
  1  2  1  0  0  0
  1  5  2  0  0  0
  1 20  1  0  0  0
  2  3  1  0  0  0
  2 10  1  0  0  0
  3  4  2  0  0  0
  3 26  1  0  0  0
  4  5  1  0  0  0
  4  6  1  0  0  0
  6  7  1  0  0  0
  6  8  1  0  0  0
  6  9  1  0  0  0
 10 11  1  0  0  0
 10 15  2  0  0  0
 11 12  2  0  0  0
 11 27  1  0  0  0
 12 13  1  0  0  0
 12 28  1  0  0  0
 13 14  2  0  0  0
 13 16  1  0  0  0
 14 15  1  0  0  0
 14 29  1  0  0  0
 15 30  1  0  0  0
 16 17  2  0  0  0
 16 18  2  0  0  0
 16 19  1  0  0  0
 19 31  1  0  0  0
 19 32  1  0  0  0
 20 21  1  0  0  0
 20 25  2  0  0  0
 21 22  2  0  0  0
 21 33  1  0  0  0
 22 23  1  0  0  0
 22 34  1  0  0  0
 23 24  2  0  0  0
 23 35  1  0  0  0
 24 25  1  0  0  0
 25 36  1  0  0  0
M  END
>  <Activity>
6.35655

>  <set>
1

>  <Min_dist>
999.9

>  <Avg_dist>
999.9

$$$$
4-44
  Cerius2 12110214513D 1   1.00000                          
 
 39 41  0  0  0  0  0  0  0  0999 V2000
    1.7043    0.5745    0.1605 C   0  0  0  0  0  0
    0.9538   -0.5603    0.0321 N   0  0  0  0  0  0
    1.8295   -1.6127   -0.0371 C   0  0  0  0  0  0
    3.0729   -1.0978    0.0498 C   0  0  0  0  0  0
    2.9734    0.2312    0.1691 N   0  0  0  0  0  0
    4.3571   -1.8858    0.0179 C   0  0  0  0  0  0
    5.4435   -1.0119    0.1329 F   0  0  0  0  0  0
    4.3739   -2.7934    1.0824 F   0  0  0  0  0  0
    4.4460   -2.5838   -1.1913 F   0  0  0  0  0  0
   -0.4447   -0.6341   -0.0184 C   0  0  0  0  0  0
   -1.1377   -1.3640    0.9381 C   0  0  0  0  0  0
   -2.5161   -1.4346    0.8859 C   0  0  0  0  0  0
   -3.2059   -0.7795   -0.1177 C   0  0  0  0  0  0
   -2.5185   -0.0518   -1.0717 C   0  0  0  0  0  0
   -1.1405    0.0272   -1.0215 C   0  0  0  0  0  0
   -4.9643   -0.8728   -0.1815 S   0  0  0  0  0  0
   -5.3171   -0.5930   -1.5292 O   0  0  0  0  0  0
   -5.3146   -2.0502    0.5330 O   0  0  0  0  0  0
   -5.5597    0.3888    0.7108 N   0  0  0  0  0  0
    1.1793    1.9529    0.2654 C   0  0  0  0  0  0
    0.0365    2.2231    1.0274 C   0  0  0  0  0  0
   -0.4140    3.5297    1.0931 C   0  0  0  0  0  0
    0.2725    4.5178    0.4103 C   0  0  0  0  0  0
    1.3467    4.2336   -0.3006 N   0  0  0  0  0  0
    1.8178    3.0068   -0.3888 C   0  0  0  0  0  0
    3.0493    2.7371   -1.2145 C   0  0  0  0  0  0
    1.5723   -2.6564   -0.1412 H   0  0  0  0  0  0
   -0.5995   -1.8764    1.7217 H   0  0  0  0  0  0
   -3.0558   -2.0022    1.6296 H   0  0  0  0  0  0
   -3.0600    0.4587   -1.8543 H   0  0  0  0  0  0
   -0.6042    0.5957   -1.7668 H   0  0  0  0  0  0
   -6.5179    0.5112    0.7984 H   0  0  0  0  0  0
   -4.9502    1.0054    1.1457 H   0  0  0  0  0  0
   -0.4804    1.4320    1.5502 H   0  0  0  0  0  0
   -1.2926    3.7755    1.6711 H   0  0  0  0  0  0
   -0.0769    5.5385    0.4599 H   0  0  0  0  0  0
    3.9359    2.8392   -0.5887 H   0  0  0  0  0  0
    3.0028    1.7249   -1.6163 H   0  0  0  0  0  0
    3.0999    3.4520   -2.0357 H   0  0  0  0  0  0
  1  2  1  0  0  0
  1  5  2  0  0  0
  1 20  1  0  0  0
  2  3  1  0  0  0
  2 10  1  0  0  0
  3  4  2  0  0  0
  3 27  1  0  0  0
  4  5  1  0  0  0
  4  6  1  0  0  0
  6  7  1  0  0  0
  6  8  1  0  0  0
  6  9  1  0  0  0
 10 11  1  0  0  0
 10 15  2  0  0  0
 11 12  2  0  0  0
 11 28  1  0  0  0
 12 13  1  0  0  0
 12 29  1  0  0  0
 13 14  2  0  0  0
 13 16  1  0  0  0
 14 15  1  0  0  0
 14 30  1  0  0  0
 15 31  1  0  0  0
 16 17  2  0  0  0
 16 18  2  0  0  0
 16 19  1  0  0  0
 19 32  1  0  0  0
 19 33  1  0  0  0
 20 21  1  0  0  0
 20 25  2  0  0  0
 21 22  2  0  0  0
 21 34  1  0  0  0
 22 23  1  0  0  0
 22 35  1  0  0  0
 23 24  2  0  0  0
 23 36  1  0  0  0
 24 25  1  0  0  0
 25 26  1  0  0  0
 26 37  1  0  0  0
 26 38  1  0  0  0
 26 39  1  0  0  0
M  END
>  <Activity>
5.55284

>  <set>
1

>  <Min_dist>
999.9

>  <Avg_dist>
999.9

$$$$
4-49
  Cerius2 12110214513D 1   1.00000                          
 
 36 38  0  0  0  0  0  0  0  0999 V2000
    2.1452    0.5768   -0.1031 C   0  0  0  0  0  0
    1.7393   -0.7270   -0.0475 N   0  0  0  0  0  0
    2.8713   -1.4939    0.0506 C   0  0  0  0  0  0
    3.9220   -0.6484    0.0520 C   0  0  0  0  0  0
    3.4582    0.6032   -0.0421 N   0  0  0  0  0  0
    5.3726   -1.0458    0.1448 C   0  0  0  0  0  0
    6.1731    0.1013    0.1168 F   0  0  0  0  0  0
    5.5910   -1.7377    1.3410 F   0  0  0  0  0  0
    5.7005   -1.8698   -0.9371 F   0  0  0  0  0  0
    0.4176   -1.1915   -0.0834 C   0  0  0  0  0  0
   -0.0691   -1.9848    0.9468 C   0  0  0  0  0  0
   -1.3723   -2.4407    0.9089 C   0  0  0  0  0  0
   -2.1920   -2.1080   -0.1540 C   0  0  0  0  0  0
   -1.7101   -1.3181   -1.1815 C   0  0  0  0  0  0
   -0.4095   -0.8544   -1.1464 C   0  0  0  0  0  0
   -3.8536   -2.6925   -0.1994 S   0  0  0  0  0  0
   -4.2373   -2.6593   -1.5672 O   0  0  0  0  0  0
   -3.8813   -3.8424    0.6349 O   0  0  0  0  0  0
   -4.7967   -1.5628    0.5600 N   0  0  0  0  0  0
    1.2596    1.7553   -0.2187 C   0  0  0  0  0  0
   -0.0925    1.6664    0.1319 C   0  0  0  0  0  0
   -0.8788    2.7989    0.0058 C   0  0  0  0  0  0
   -0.3078    3.9715   -0.4584 C   0  0  0  0  0  0
    0.9699    4.0248   -0.7816 N   0  0  0  0  0  0
    1.7592    2.9760   -0.6734 C   0  0  0  0  0  0
   -2.7131    2.7446    0.4623 Br  0  0  0  0  0  0
    2.9137   -2.5712    0.1149 H   0  0  0  0  0  0
    0.5708   -2.2455    1.7769 H   0  0  0  0  0  0
   -1.7515   -3.0578    1.7099 H   0  0  0  0  0  0
   -2.3526   -1.0599   -2.0104 H   0  0  0  0  0  0
   -0.0337   -0.2374   -1.9492 H   0  0  0  0  0  0
   -5.7532   -1.7034    0.6390 H   0  0  0  0  0  0
   -4.3926   -0.7604    0.9258 H   0  0  0  0  0  0
   -0.5118    0.7382    0.4912 H   0  0  0  0  0  0
   -0.9184    4.8567   -0.5580 H   0  0  0  0  0  0
    2.8004    3.0592   -0.9481 H   0  0  0  0  0  0
  1  2  1  0  0  0
  1  5  2  0  0  0
  1 20  1  0  0  0
  2  3  1  0  0  0
  2 10  1  0  0  0
  3  4  2  0  0  0
  3 27  1  0  0  0
  4  5  1  0  0  0
  4  6  1  0  0  0
  6  7  1  0  0  0
  6  8  1  0  0  0
  6  9  1  0  0  0
 10 11  1  0  0  0
 10 15  2  0  0  0
 11 12  2  0  0  0
 11 28  1  0  0  0
 12 13  1  0  0  0
 12 29  1  0  0  0
 13 14  2  0  0  0
 13 16  1  0  0  0
 14 15  1  0  0  0
 14 30  1  0  0  0
 15 31  1  0  0  0
 16 17  2  0  0  0
 16 18  2  0  0  0
 16 19  1  0  0  0
 19 32  1  0  0  0
 19 33  1  0  0  0
 20 21  1  0  0  0
 20 25  2  0  0  0
 21 22  2  0  0  0
 21 34  1  0  0  0
 22 23  1  0  0  0
 22 26  1  0  0  0
 23 24  2  0  0  0
 23 35  1  0  0  0
 24 25  1  0  0  0
 25 36  1  0  0  0
M  END
>  <Activity>
6.46852

>  <set>
1

>  <Min_dist>
999.9

>  <Avg_dist>
999.9

$$$$
4-58
  Cerius2 12110214513D 1   1.00000                          
 
 37 39  0  0  0  0  0  0  0  0999 V2000
    2.0632    0.5322   -0.0722 C   0  0  0  0  0  0
    1.2807   -0.5854   -0.1508 N   0  0  0  0  0  0
    2.1268   -1.6589   -0.2557 C   0  0  0  0  0  0
    3.3848   -1.1730   -0.2383 C   0  0  0  0  0  0
    3.3226    0.1589   -0.1263 N   0  0  0  0  0  0
    4.6468   -1.9916   -0.3295 C   0  0  0  0  0  0
    5.6733   -1.3452    0.3673 F   0  0  0  0  0  0
    4.4254   -3.2540    0.2314 F   0  0  0  0  0  0
   -0.1199   -0.6264   -0.1279 C   0  0  0  0  0  0
   -0.7780   -1.3863    0.8298 C   0  0  0  0  0  0
   -2.1585   -1.4243    0.8502 C   0  0  0  0  0  0
   -2.8851   -0.7069   -0.0823 C   0  0  0  0  0  0
   -2.2326    0.0508   -1.0373 C   0  0  0  0  0  0
   -0.8523    0.0974   -1.0592 C   0  0  0  0  0  0
   -4.6461   -0.7589   -0.0538 S   0  0  0  0  0  0
   -4.9913   -0.4842   -1.4045 O   0  0  0  0  0  0
   -4.9144   -2.0152    0.5537 O   0  0  0  0  0  0
   -5.0826    0.6199    1.0413 C   0  0  0  0  0  0
    1.5767    1.9235    0.0470 C   0  0  0  0  0  0
    0.2797    2.1873    0.5028 C   0  0  0  0  0  0
   -0.1270    3.5065    0.5961 C   0  0  0  0  0  0
    0.7525    4.5130    0.2394 C   0  0  0  0  0  0
    1.9691    4.2346   -0.1875 N   0  0  0  0  0  0
    2.4044    2.9955   -0.2876 C   0  0  0  0  0  0
    1.8403   -2.6970   -0.3365 H   0  0  0  0  0  0
    4.9323   -2.1038   -1.3755 H   0  0  0  0  0  0
   -0.2110   -1.9474    1.5579 H   0  0  0  0  0  0
   -2.6709   -2.0152    1.5949 H   0  0  0  0  0  0
   -2.8028    0.6101   -1.7643 H   0  0  0  0  0  0
   -0.3432    0.6894   -1.8054 H   0  0  0  0  0  0
   -6.1669    0.6821    1.1326 H   0  0  0  0  0  0
   -4.6440    0.4551    2.0255 H   0  0  0  0  0  0
   -4.6990    1.5509    0.6239 H   0  0  0  0  0  0
   -0.3865    1.3818    0.7744 H   0  0  0  0  0  0
   -1.1207    3.7479    0.9435 H   0  0  0  0  0  0
    0.4376    5.5436    0.3112 H   0  0  0  0  0  0
    3.4075    2.8074   -0.6411 H   0  0  0  0  0  0
  1  2  1  0  0  0
  1  5  2  0  0  0
  1 19  1  0  0  0
  2  3  1  0  0  0
  2  9  1  0  0  0
  3  4  2  0  0  0
  3 25  1  0  0  0
  4  5  1  0  0  0
  4  6  1  0  0  0
  6  7  1  0  0  0
  6  8  1  0  0  0
  6 26  1  0  0  0
  9 10  1  0  0  0
  9 14  2  0  0  0
 10 11  2  0  0  0
 10 27  1  0  0  0
 11 12  1  0  0  0
 11 28  1  0  0  0
 12 13  2  0  0  0
 12 15  1  0  0  0
 13 14  1  0  0  0
 13 29  1  0  0  0
 14 30  1  0  0  0
 15 16  2  0  0  0
 15 17  2  0  0  0
 15 18  1  0  0  0
 18 31  1  0  0  0
 18 32  1  0  0  0
 18 33  1  0  0  0
 19 20  1  0  0  0
 19 24  2  0  0  0
 20 21  2  0  0  0
 20 34  1  0  0  0
 21 22  1  0  0  0
 21 35  1  0  0  0
 22 23  2  0  0  0
 22 36  1  0  0  0
 23 24  1  0  0  0
 24 37  1  0  0  0
M  END
>  <Activity>
4.68403

>  <set>
1

>  <Min_dist>
999.9

>  <Avg_dist>
999.9

$$$$
4-62
  Cerius2 12110214513D 1   1.00000                          
 
 38 40  0  0  0  0  0  0  0  0999 V2000
    2.4325    0.2438    0.0403 C   0  0  0  0  0  0
    1.5606   -0.8071   -0.0151 N   0  0  0  0  0  0
    2.3153   -1.9511   -0.0467 C   0  0  0  0  0  0
    3.6090   -1.5716   -0.0102 C   0  0  0  0  0  0
    3.6568   -0.2354    0.0424 N   0  0  0  0  0  0
    4.7991   -2.4959   -0.0259 C   0  0  0  0  0  0
    4.3492   -3.8508   -0.0860 O   0  0  0  0  0  0
    0.1615   -0.7301   -0.0350 C   0  0  0  0  0  0
   -0.5853   -1.3880    0.9330 C   0  0  0  0  0  0
   -1.9640   -1.3098    0.9110 C   0  0  0  0  0  0
   -2.6008   -0.5775   -0.0741 C   0  0  0  0  0  0
   -1.8598    0.0789   -1.0396 C   0  0  0  0  0  0
   -0.4805    0.0091   -1.0195 C   0  0  0  0  0  0
   -4.3600   -0.4810   -0.0994 S   0  0  0  0  0  0
   -4.6425   -0.2403   -1.4711 O   0  0  0  0  0  0
   -4.7507   -1.6816    0.5526 O   0  0  0  0  0  0
   -4.7086    0.9778    0.9209 C   0  0  0  0  0  0
    2.0624    1.6747    0.0839 C   0  0  0  0  0  0
    0.7802    2.0663    0.4865 C   0  0  0  0  0  0
    0.4843    3.4177    0.5099 C   0  0  0  0  0  0
    1.4556    4.3301    0.1384 C   0  0  0  0  0  0
    2.6558    3.9319   -0.2371 N   0  0  0  0  0  0
    2.9872    2.6576   -0.2700 C   0  0  0  0  0  0
    1.9443   -2.9643   -0.0919 H   0  0  0  0  0  0
    5.4161   -2.2789   -0.8979 H   0  0  0  0  0  0
    5.3861   -2.3478    0.8805 H   0  0  0  0  0  0
    5.1397   -4.4077   -0.0942 H   0  0  0  0  0  0
   -0.0885   -1.9607    1.7022 H   0  0  0  0  0  0
   -2.5455   -1.8213    1.6638 H   0  0  0  0  0  0
   -2.3599    0.6501   -1.8077 H   0  0  0  0  0  0
    0.0977    0.5220   -1.7738 H   0  0  0  0  0  0
   -5.7859    1.1344    0.9748 H   0  0  0  0  0  0
   -4.3134    0.8219    1.9247 H   0  0  0  0  0  0
   -4.2360    1.8535    0.4762 H   0  0  0  0  0  0
    0.0408    1.3324    0.7711 H   0  0  0  0  0  0
   -0.4948    3.7567    0.8147 H   0  0  0  0  0  0
    1.2273    5.3855    0.1558 H   0  0  0  0  0  0
    3.9802    2.3706   -0.5829 H   0  0  0  0  0  0
  1  2  1  0  0  0
  1  5  2  0  0  0
  1 18  1  0  0  0
  2  3  1  0  0  0
  2  8  1  0  0  0
  3  4  2  0  0  0
  3 24  1  0  0  0
  4  5  1  0  0  0
  4  6  1  0  0  0
  6  7  1  0  0  0
  6 25  1  0  0  0
  6 26  1  0  0  0
  7 27  1  0  0  0
  8  9  1  0  0  0
  8 13  2  0  0  0
  9 10  2  0  0  0
  9 28  1  0  0  0
 10 11  1  0  0  0
 10 29  1  0  0  0
 11 12  2  0  0  0
 11 14  1  0  0  0
 12 13  1  0  0  0
 12 30  1  0  0  0
 13 31  1  0  0  0
 14 15  2  0  0  0
 14 16  2  0  0  0
 14 17  1  0  0  0
 17 32  1  0  0  0
 17 33  1  0  0  0
 17 34  1  0  0  0
 18 19  1  0  0  0
 18 23  2  0  0  0
 19 20  2  0  0  0
 19 35  1  0  0  0
 20 21  1  0  0  0
 20 36  1  0  0  0
 21 22  2  0  0  0
 21 37  1  0  0  0
 22 23  1  0  0  0
 23 38  1  0  0  0
M  END
>  <Activity>
4.02965

>  <set>
1

>  <Min_dist>
999.9

>  <Avg_dist>
999.9

$$$$
4-50
  Cerius2 12110214513D 1   1.00000                          
 
 40 42  0  0  0  0  0  0  0  0999 V2000
    1.8324    0.7005    0.0196 C   0  0  0  0  0  0
    1.1721   -0.4957   -0.0181 N   0  0  0  0  0  0
    2.1258   -1.4775   -0.0428 C   0  0  0  0  0  0
    3.3270   -0.8622   -0.0198 C   0  0  0  0  0  0
    3.1248    0.4587    0.0179 N   0  0  0  0  0  0
    4.6688   -1.5481   -0.0335 C   0  0  0  0  0  0
    5.6845   -0.5865   -0.0014 F   0  0  0  0  0  0
    4.7787   -2.3800    1.0859 F   0  0  0  0  0  0
    4.7889   -2.3145   -1.1977 F   0  0  0  0  0  0
   -0.2168   -0.6817   -0.0287 C   0  0  0  0  0  0
   -0.8302   -1.3999    0.9890 C   0  0  0  0  0  0
   -2.1993   -1.5811    0.9761 C   0  0  0  0  0  0
   -2.9591   -1.0481   -0.0490 C   0  0  0  0  0  0
   -2.3511   -0.3323   -1.0639 C   0  0  0  0  0  0
   -0.9829   -0.1432   -1.0538 C   0  0  0  0  0  0
   -4.7055   -1.2819   -0.0622 S   0  0  0  0  0  0
   -5.0250   -1.1910   -1.4439 O   0  0  0  0  0  0
   -4.8675   -2.4873    0.6726 O   0  0  0  0  0  0
   -5.3215    0.1523    0.8620 C   0  0  0  0  0  0
    1.2016    2.0373    0.0505 C   0  0  0  0  0  0
    2.0018    3.1797    0.0879 C   0  0  0  0  0  0
    1.3963    4.4235    0.1160 C   0  0  0  0  0  0
    0.0097    4.4861    0.1059 C   0  0  0  0  0  0
   -0.7227    3.3136    0.0683 C   0  0  0  0  0  0
   -0.1224    2.1416    0.0369 N   0  0  0  0  0  0
   -2.2283    3.3778    0.0572 C   0  0  0  0  0  0
    1.9504   -2.5427   -0.0747 H   0  0  0  0  0  0
   -0.2373   -1.8168    1.7896 H   0  0  0  0  0  0
   -2.6770   -2.1400    1.7672 H   0  0  0  0  0  0
   -2.9471    0.0826   -1.8634 H   0  0  0  0  0  0
   -0.5087    0.4163   -1.8465 H   0  0  0  0  0  0
   -6.4092    0.1094    0.9167 H   0  0  0  0  0  0
   -4.9063    0.1408    1.8698 H   0  0  0  0  0  0
   -5.0190    1.0686    0.3549 H   0  0  0  0  0  0
    3.0784    3.0943    0.0951 H   0  0  0  0  0  0
    1.9894    5.3256    0.1456 H   0  0  0  0  0  0
   -0.4928    5.4419    0.1276 H   0  0  0  0  0  0
   -2.5825    3.4208   -0.9728 H   0  0  0  0  0  0
   -2.6334    2.4907    0.5440 H   0  0  0  0  0  0
   -2.5578    4.2684    0.5922 H   0  0  0  0  0  0
  1  2  1  0  0  0
  1  5  2  0  0  0
  1 20  1  0  0  0
  2  3  1  0  0  0
  2 10  1  0  0  0
  3  4  2  0  0  0
  3 27  1  0  0  0
  4  5  1  0  0  0
  4  6  1  0  0  0
  6  7  1  0  0  0
  6  8  1  0  0  0
  6  9  1  0  0  0
 10 11  1  0  0  0
 10 15  2  0  0  0
 11 12  2  0  0  0
 11 28  1  0  0  0
 12 13  1  0  0  0
 12 29  1  0  0  0
 13 14  2  0  0  0
 13 16  1  0  0  0
 14 15  1  0  0  0
 14 30  1  0  0  0
 15 31  1  0  0  0
 16 17  2  0  0  0
 16 18  2  0  0  0
 16 19  1  0  0  0
 19 32  1  0  0  0
 19 33  1  0  0  0
 19 34  1  0  0  0
 20 21  1  0  0  0
 20 25  2  0  0  0
 21 22  2  0  0  0
 21 35  1  0  0  0
 22 23  1  0  0  0
 22 36  1  0  0  0
 23 24  2  0  0  0
 23 37  1  0  0  0
 24 25  1  0  0  0
 24 26  1  0  0  0
 26 38  1  0  0  0
 26 39  1  0  0  0
 26 40  1  0  0  0
M  END
>  <Activity>
5.5376

>  <set>
1

>  <Min_dist>
999.9

>  <Avg_dist>
999.9

$$$$
4-51
  Cerius2 12110214513D 1   1.00000                          
 
 40 42  0  0  0  0  0  0  0  0999 V2000
    1.7851    0.5730    0.0136 C   0  0  0  0  0  0
    1.1019   -0.6104   -0.0184 N   0  0  0  0  0  0
    2.0365   -1.6105   -0.0383 C   0  0  0  0  0  0
    3.2493   -1.0183   -0.0184 C   0  0  0  0  0  0
    3.0726    0.3063    0.0130 N   0  0  0  0  0  0
    4.5776   -1.7300   -0.0288 C   0  0  0  0  0  0
    5.6116   -0.7881   -0.0014 F   0  0  0  0  0  0
    4.6716   -2.5585    1.0946 F   0  0  0  0  0  0
    4.6828   -2.5043   -1.1892 F   0  0  0  0  0  0
   -0.2903   -0.7695   -0.0279 C   0  0  0  0  0  0
   -0.9173   -1.4709    0.9932 C   0  0  0  0  0  0
   -2.2898   -1.6257    0.9812 C   0  0  0  0  0  0
   -3.0392   -1.0830   -0.0464 C   0  0  0  0  0  0
   -2.4176   -0.3840   -1.0648 C   0  0  0  0  0  0
   -1.0461   -0.2213   -1.0556 C   0  0  0  0  0  0
   -4.7898   -1.2832   -0.0584 S   0  0  0  0  0  0
   -5.1077   -1.1929   -1.4405 O   0  0  0  0  0  0
   -4.9749   -2.4817    0.6822 O   0  0  0  0  0  0
   -5.3779    0.1671    0.8589 C   0  0  0  0  0  0
    1.1802    1.9219    0.0380 C   0  0  0  0  0  0
    2.0023    3.0488    0.0699 C   0  0  0  0  0  0
    1.4210    4.3042    0.0921 C   0  0  0  0  0  0
    0.0358    4.3935    0.0817 C   0  0  0  0  0  0
   -0.7190    3.2351    0.0497 C   0  0  0  0  0  0
   -0.1415    2.0516    0.0240 N   0  0  0  0  0  0
   -0.6394    5.7406    0.1055 C   0  0  0  0  0  0
    1.8405   -2.6722   -0.0650 H   0  0  0  0  0  0
   -0.3325   -1.8953    1.7958 H   0  0  0  0  0  0
   -2.7780   -2.1715    1.7750 H   0  0  0  0  0  0
   -3.0056    0.0384   -1.8662 H   0  0  0  0  0  0
   -0.5612    0.3250   -1.8511 H   0  0  0  0  0  0
   -6.4663    0.1454    0.9138 H   0  0  0  0  0  0
   -4.9629    0.1524    1.8667 H   0  0  0  0  0  0
   -5.0579    1.0748    0.3474 H   0  0  0  0  0  0
    3.0771    2.9427    0.0775 H   0  0  0  0  0  0
    2.0314    5.1948    0.1172 H   0  0  0  0  0  0
   -1.7969    3.3020    0.0416 H   0  0  0  0  0  0
   -0.7930    6.0881   -0.9161 H   0  0  0  0  0  0
   -1.6024    5.6555    0.6090 H   0  0  0  0  0  0
   -0.0112    6.4525    0.6408 H   0  0  0  0  0  0
  1  2  1  0  0  0
  1  5  2  0  0  0
  1 20  1  0  0  0
  2  3  1  0  0  0
  2 10  1  0  0  0
  3  4  2  0  0  0
  3 27  1  0  0  0
  4  5  1  0  0  0
  4  6  1  0  0  0
  6  7  1  0  0  0
  6  8  1  0  0  0
  6  9  1  0  0  0
 10 11  1  0  0  0
 10 15  2  0  0  0
 11 12  2  0  0  0
 11 28  1  0  0  0
 12 13  1  0  0  0
 12 29  1  0  0  0
 13 14  2  0  0  0
 13 16  1  0  0  0
 14 15  1  0  0  0
 14 30  1  0  0  0
 15 31  1  0  0  0
 16 17  2  0  0  0
 16 18  2  0  0  0
 16 19  1  0  0  0
 19 32  1  0  0  0
 19 33  1  0  0  0
 19 34  1  0  0  0
 20 21  1  0  0  0
 20 25  2  0  0  0
 21 22  2  0  0  0
 21 35  1  0  0  0
 22 23  1  0  0  0
 22 36  1  0  0  0
 23 24  2  0  0  0
 23 26  1  0  0  0
 24 25  1  0  0  0
 24 37  1  0  0  0
 26 38  1  0  0  0
 26 39  1  0  0  0
 26 40  1  0  0  0
M  END
>  <Activity>
5.88606

>  <set>
1

>  <Min_dist>
999.9

>  <Avg_dist>
999.9

$$$$
4-52
  Cerius2 12110214513D 1   1.00000                          
 
 40 42  0  0  0  0  0  0  0  0999 V2000
    1.7203    0.4239    0.0104 C   0  0  0  0  0  0
    0.9310   -0.6915   -0.0199 N   0  0  0  0  0  0
    1.7696   -1.7734   -0.0403 C   0  0  0  0  0  0
    3.0318   -1.2954   -0.0221 C   0  0  0  0  0  0
    2.9777    0.0400    0.0086 N   0  0  0  0  0  0
    4.2890   -2.1263   -0.0335 C   0  0  0  0  0  0
    5.4053   -1.2834   -0.0079 F   0  0  0  0  0  0
    4.3077   -2.9592    1.0903 F   0  0  0  0  0  0
    4.3211   -2.9075   -1.1936 F   0  0  0  0  0  0
   -0.4699   -0.7220   -0.0278 C   0  0  0  0  0  0
   -1.1576   -1.3621    0.9945 C   0  0  0  0  0  0
   -2.5385   -1.3900    0.9842 C   0  0  0  0  0  0
   -3.2361   -0.7813   -0.0429 C   0  0  0  0  0  0
   -2.5540   -0.1430   -1.0625 C   0  0  0  0  0  0
   -1.1733   -0.1071   -1.0549 C   0  0  0  0  0  0
   -4.9976   -0.8195   -0.0528 S   0  0  0  0  0  0
   -5.3075   -0.7011   -1.4345 O   0  0  0  0  0  0
   -5.2914   -1.9955    0.6889 O   0  0  0  0  0  0
   -5.4487    0.6792    0.8642 C   0  0  0  0  0  0
    1.2420    1.8227    0.0347 C   0  0  0  0  0  0
    2.1644    2.8693    0.0648 C   0  0  0  0  0  0
    1.7010    4.1728    0.0868 C   0  0  0  0  0  0
    0.3299    4.3892    0.0780 C   0  0  0  0  0  0
   -0.5283    3.3052    0.0477 C   0  0  0  0  0  0
   -0.0621    2.0736    0.0221 N   0  0  0  0  0  0
    2.6635    5.3320    0.1202 C   0  0  0  0  0  0
    1.4768   -2.8126   -0.0661 H   0  0  0  0  0  0
   -0.6133   -1.8380    1.7968 H   0  0  0  0  0  0
   -3.0739   -1.8881    1.7790 H   0  0  0  0  0  0
   -3.1016    0.3313   -1.8635 H   0  0  0  0  0  0
   -0.6412    0.3919   -1.8513 H   0  0  0  0  0  0
   -6.5344    0.7578    0.9204 H   0  0  0  0  0  0
   -5.0356    0.6270    1.8715 H   0  0  0  0  0  0
   -5.0471    1.5534    0.3517 H   0  0  0  0  0  0
    3.2248    2.6648    0.0713 H   0  0  0  0  0  0
   -0.0631    5.3951    0.0949 H   0  0  0  0  0  0
   -1.5955    3.4709    0.0407 H   0  0  0  0  0  0
    2.9059    5.6324   -0.8992 H   0  0  0  0  0  0
    2.2057    6.1694    0.6466 H   0  0  0  0  0  0
    3.5752    5.0324    0.6371 H   0  0  0  0  0  0
  1  2  1  0  0  0
  1  5  2  0  0  0
  1 20  1  0  0  0
  2  3  1  0  0  0
  2 10  1  0  0  0
  3  4  2  0  0  0
  3 27  1  0  0  0
  4  5  1  0  0  0
  4  6  1  0  0  0
  6  7  1  0  0  0
  6  8  1  0  0  0
  6  9  1  0  0  0
 10 11  1  0  0  0
 10 15  2  0  0  0
 11 12  2  0  0  0
 11 28  1  0  0  0
 12 13  1  0  0  0
 12 29  1  0  0  0
 13 14  2  0  0  0
 13 16  1  0  0  0
 14 15  1  0  0  0
 14 30  1  0  0  0
 15 31  1  0  0  0
 16 17  2  0  0  0
 16 18  2  0  0  0
 16 19  1  0  0  0
 19 32  1  0  0  0
 19 33  1  0  0  0
 19 34  1  0  0  0
 20 21  1  0  0  0
 20 25  2  0  0  0
 21 22  2  0  0  0
 21 35  1  0  0  0
 22 23  1  0  0  0
 22 26  1  0  0  0
 23 24  2  0  0  0
 23 36  1  0  0  0
 24 25  1  0  0  0
 24 37  1  0  0  0
 26 38  1  0  0  0
 26 39  1  0  0  0
 26 40  1  0  0  0
M  END
>  <Activity>
6.27572

>  <set>
1

>  <Min_dist>
999.9

>  <Avg_dist>
999.9

$$$$
4-53
  Cerius2 12110214513D 1   1.00000                          
 
 40 42  0  0  0  0  0  0  0  0999 V2000
    1.6704    0.5687   -0.0066 C   0  0  0  0  0  0
    0.9075   -0.5652   -0.0290 N   0  0  0  0  0  0
    1.7713   -1.6271   -0.0489 C   0  0  0  0  0  0
    3.0220   -1.1193   -0.0383 C   0  0  0  0  0  0
    2.9365    0.2145   -0.0126 N   0  0  0  0  0  0
    4.2983   -1.9204   -0.0521 C   0  0  0  0  0  0
    5.3945   -1.0513   -0.0348 F   0  0  0  0  0  0
    4.3416   -2.7481    1.0750 F   0  0  0  0  0  0
    4.3437   -2.7054   -1.2092 F   0  0  0  0  0  0
   -0.4923   -0.6287   -0.0305 C   0  0  0  0  0  0
   -1.1602   -1.2807    0.9974 C   0  0  0  0  0  0
   -2.5401   -1.3412    0.9934 C   0  0  0  0  0  0
   -3.2563   -0.7532   -0.0330 C   0  0  0  0  0  0
   -2.5940   -0.1031   -1.0581 C   0  0  0  0  0  0
   -1.2145   -0.0347   -1.0569 C   0  0  0  0  0  0
   -5.0165   -0.8330   -0.0348 S   0  0  0  0  0  0
   -5.3352   -0.7276   -1.4156 O   0  0  0  0  0  0
   -5.2792   -2.0126    0.7128 O   0  0  0  0  0  0
   -5.4988    0.6584    0.8783 C   0  0  0  0  0  0
    1.1594    1.9560    0.0143 C   0  0  0  0  0  0
    2.0511    3.0202    0.1519 C   0  0  0  0  0  0
    1.5574    4.3126    0.1692 C   0  0  0  0  0  0
    0.1874    4.5005    0.0484 C   0  0  0  0  0  0
   -0.6397    3.4001   -0.0849 C   0  0  0  0  0  0
   -0.1445    2.1797   -0.1036 N   0  0  0  0  0  0
    3.5309    2.7656    0.2803 C   0  0  0  0  0  0
    1.5029   -2.6730   -0.0693 H   0  0  0  0  0  0
   -0.6013   -1.7404    1.7991 H   0  0  0  0  0  0
   -3.0601   -1.8485    1.7925 H   0  0  0  0  0  0
   -3.1562    0.3548   -1.8585 H   0  0  0  0  0  0
   -0.6978    0.4734   -1.8576 H   0  0  0  0  0  0
   -6.5858    0.7116    0.9390 H   0  0  0  0  0  0
   -5.0801    0.6199    1.8839 H   0  0  0  0  0  0
   -5.1202    1.5397    0.3605 H   0  0  0  0  0  0
    2.2231    5.1565    0.2747 H   0  0  0  0  0  0
   -0.2289    5.4970    0.0587 H   0  0  0  0  0  0
   -1.7059    3.5436   -0.1790 H   0  0  0  0  0  0
    3.9658    2.6425   -0.7116 H   0  0  0  0  0  0
    4.0028    3.6107    0.7816 H   0  0  0  0  0  0
    3.6944    1.8596    0.8637 H   0  0  0  0  0  0
  1  2  1  0  0  0
  1  5  2  0  0  0
  1 20  1  0  0  0
  2  3  1  0  0  0
  2 10  1  0  0  0
  3  4  2  0  0  0
  3 27  1  0  0  0
  4  5  1  0  0  0
  4  6  1  0  0  0
  6  7  1  0  0  0
  6  8  1  0  0  0
  6  9  1  0  0  0
 10 11  1  0  0  0
 10 15  2  0  0  0
 11 12  2  0  0  0
 11 28  1  0  0  0
 12 13  1  0  0  0
 12 29  1  0  0  0
 13 14  2  0  0  0
 13 16  1  0  0  0
 14 15  1  0  0  0
 14 30  1  0  0  0
 15 31  1  0  0  0
 16 17  2  0  0  0
 16 18  2  0  0  0
 16 19  1  0  0  0
 19 32  1  0  0  0
 19 33  1  0  0  0
 19 34  1  0  0  0
 20 21  1  0  0  0
 20 25  2  0  0  0
 21 22  2  0  0  0
 21 26  1  0  0  0
 22 23  1  0  0  0
 22 35  1  0  0  0
 23 24  2  0  0  0
 23 36  1  0  0  0
 24 25  1  0  0  0
 24 37  1  0  0  0
 26 38  1  0  0  0
 26 39  1  0  0  0
 26 40  1  0  0  0
M  END
>  <Activity>
5.23657

>  <set>
1

>  <Min_dist>
999.9

>  <Avg_dist>
999.9

$$$$
4-54
  Cerius2 12110214513D 1   1.00000                          
 
 39 41  0  0  0  0  0  0  0  0999 V2000
    1.8576    0.6965    0.0218 C   0  0  0  0  0  0
    1.1937   -0.4975   -0.0210 N   0  0  0  0  0  0
    2.1446   -1.4820   -0.0489 C   0  0  0  0  0  0
    3.3476   -0.8703   -0.0228 C   0  0  0  0  0  0
    3.1492    0.4509    0.0199 N   0  0  0  0  0  0
    4.6873   -1.5602   -0.0383 C   0  0  0  0  0  0
    5.7058   -0.6017   -0.0019 F   0  0  0  0  0  0
    4.7941   -2.3967    1.0779 F   0  0  0  0  0  0
    4.8059   -2.3224   -1.2054 F   0  0  0  0  0  0
   -0.1957   -0.6793   -0.0331 C   0  0  0  0  0  0
   -0.8118   -1.3997    0.9814 C   0  0  0  0  0  0
   -2.1815   -1.5767    0.9669 C   0  0  0  0  0  0
   -2.9391   -1.0374   -0.0565 C   0  0  0  0  0  0
   -2.3283   -0.3195   -1.0683 C   0  0  0  0  0  0
   -0.9596   -0.1346   -1.0565 C   0  0  0  0  0  0
   -4.6861   -1.2660   -0.0717 S   0  0  0  0  0  0
   -5.0860   -1.0958   -1.4246 O   0  0  0  0  0  0
   -4.9313   -2.4207    0.7193 O   0  0  0  0  0  0
   -5.3582   -0.0007    0.7587 N   0  0  0  0  0  0
    1.2307    2.0351    0.0575 C   0  0  0  0  0  0
    2.0342    3.1750    0.0998 C   0  0  0  0  0  0
    1.4325    4.4205    0.1324 C   0  0  0  0  0  0
    0.0460    4.4873    0.1217 C   0  0  0  0  0  0
   -0.6898    3.3170    0.0790 C   0  0  0  0  0  0
   -0.0930    2.1434    0.0435 N   0  0  0  0  0  0
   -2.1951    3.3858    0.0673 C   0  0  0  0  0  0
    1.9660   -2.5465   -0.0850 H   0  0  0  0  0  0
   -0.2207   -1.8214    1.7808 H   0  0  0  0  0  0
   -2.6613   -2.1373    1.7556 H   0  0  0  0  0  0
   -2.9226    0.1002   -1.8665 H   0  0  0  0  0  0
   -0.4832    0.4266   -1.8468 H   0  0  0  0  0  0
   -6.3211    0.0546    0.8624 H   0  0  0  0  0  0
   -4.7890    0.6851    1.1415 H   0  0  0  0  0  0
    3.1106    3.0863    0.1074 H   0  0  0  0  0  0
    2.0282    5.3206    0.1658 H   0  0  0  0  0  0
   -0.4536    5.4444    0.1467 H   0  0  0  0  0  0
   -2.5486    3.4338   -0.9627 H   0  0  0  0  0  0
   -2.6032    2.4980    0.5504 H   0  0  0  0  0  0
   -2.5224    4.2753    0.6056 H   0  0  0  0  0  0
  1  2  1  0  0  0
  1  5  2  0  0  0
  1 20  1  0  0  0
  2  3  1  0  0  0
  2 10  1  0  0  0
  3  4  2  0  0  0
  3 27  1  0  0  0
  4  5  1  0  0  0
  4  6  1  0  0  0
  6  7  1  0  0  0
  6  8  1  0  0  0
  6  9  1  0  0  0
 10 11  1  0  0  0
 10 15  2  0  0  0
 11 12  2  0  0  0
 11 28  1  0  0  0
 12 13  1  0  0  0
 12 29  1  0  0  0
 13 14  2  0  0  0
 13 16  1  0  0  0
 14 15  1  0  0  0
 14 30  1  0  0  0
 15 31  1  0  0  0
 16 17  2  0  0  0
 16 18  2  0  0  0
 16 19  1  0  0  0
 19 32  1  0  0  0
 19 33  1  0  0  0
 20 21  1  0  0  0
 20 25  2  0  0  0
 21 22  2  0  0  0
 21 34  1  0  0  0
 22 23  1  0  0  0
 22 35  1  0  0  0
 23 24  2  0  0  0
 23 36  1  0  0  0
 24 25  1  0  0  0
 24 26  1  0  0  0
 26 37  1  0  0  0
 26 38  1  0  0  0
 26 39  1  0  0  0
M  END
>  <Activity>
6.37675

>  <set>
1

>  <Min_dist>
999.9

>  <Avg_dist>
999.9

$$$$
4-55
  Cerius2 12110214513D 1   1.00000                          
 
 39 41  0  0  0  0  0  0  0  0999 V2000
    1.8102    0.5686    0.0149 C   0  0  0  0  0  0
    1.1232   -0.6124   -0.0212 N   0  0  0  0  0  0
    2.0546   -1.6155   -0.0437 C   0  0  0  0  0  0
    3.2693   -1.0273   -0.0211 C   0  0  0  0  0  0
    3.0968    0.2978    0.0144 N   0  0  0  0  0  0
    4.5954   -1.7432   -0.0329 C   0  0  0  0  0  0
    5.6324   -0.8047   -0.0018 F   0  0  0  0  0  0
    4.6859   -2.5755    1.0880 F   0  0  0  0  0  0
    4.6988   -2.5141   -1.1957 F   0  0  0  0  0  0
   -0.2695   -0.7671   -0.0322 C   0  0  0  0  0  0
   -0.8994   -1.4697    0.9863 C   0  0  0  0  0  0
   -2.2723   -1.6201    0.9729 C   0  0  0  0  0  0
   -3.0194   -1.0717   -0.0535 C   0  0  0  0  0  0
   -2.3949   -0.3715   -1.0692 C   0  0  0  0  0  0
   -1.0228   -0.2132   -1.0586 C   0  0  0  0  0  0
   -4.7706   -1.2662   -0.0673 S   0  0  0  0  0  0
   -5.1673   -1.0957   -1.4211 O   0  0  0  0  0  0
   -5.0381   -2.4115    0.7302 O   0  0  0  0  0  0
   -5.4177    0.0165    0.7562 N   0  0  0  0  0  0
    1.2096    1.9193    0.0432 C   0  0  0  0  0  0
    2.0353    3.0435    0.0792 C   0  0  0  0  0  0
    1.4580    4.3007    0.1050 C   0  0  0  0  0  0
    0.0731    4.3945    0.0939 C   0  0  0  0  0  0
   -0.6854    3.2386    0.0578 C   0  0  0  0  0  0
   -0.1117    2.0534    0.0288 N   0  0  0  0  0  0
   -0.5978    5.7436    0.1216 C   0  0  0  0  0  0
    1.8552   -2.6765   -0.0739 H   0  0  0  0  0  0
   -0.3165   -1.8985    1.7880 H   0  0  0  0  0  0
   -2.7629   -2.1667    1.7647 H   0  0  0  0  0  0
   -2.9809    0.0553   -1.8697 H   0  0  0  0  0  0
   -0.5357    0.3341   -1.8520 H   0  0  0  0  0  0
   -6.3792    0.0912    0.8596 H   0  0  0  0  0  0
   -4.8351    0.6933    1.1351 H   0  0  0  0  0  0
    3.1097    2.9339    0.0872 H   0  0  0  0  0  0
    2.0712    5.1892    0.1333 H   0  0  0  0  0  0
   -1.7631    3.3089    0.0492 H   0  0  0  0  0  0
   -0.7496    6.0949   -0.8991 H   0  0  0  0  0  0
   -1.5614    5.6600    0.6242 H   0  0  0  0  0  0
    0.0324    6.4518    0.6596 H   0  0  0  0  0  0
  1  2  1  0  0  0
  1  5  2  0  0  0
  1 20  1  0  0  0
  2  3  1  0  0  0
  2 10  1  0  0  0
  3  4  2  0  0  0
  3 27  1  0  0  0
  4  5  1  0  0  0
  4  6  1  0  0  0
  6  7  1  0  0  0
  6  8  1  0  0  0
  6  9  1  0  0  0
 10 11  1  0  0  0
 10 15  2  0  0  0
 11 12  2  0  0  0
 11 28  1  0  0  0
 12 13  1  0  0  0
 12 29  1  0  0  0
 13 14  2  0  0  0
 13 16  1  0  0  0
 14 15  1  0  0  0
 14 30  1  0  0  0
 15 31  1  0  0  0
 16 17  2  0  0  0
 16 18  2  0  0  0
 16 19  1  0  0  0
 19 32  1  0  0  0
 19 33  1  0  0  0
 20 21  1  0  0  0
 20 25  2  0  0  0
 21 22  2  0  0  0
 21 34  1  0  0  0
 22 23  1  0  0  0
 22 35  1  0  0  0
 23 24  2  0  0  0
 23 26  1  0  0  0
 24 25  1  0  0  0
 24 36  1  0  0  0
 26 37  1  0  0  0
 26 38  1  0  0  0
 26 39  1  0  0  0
M  END
>  <Activity>
6.13668

>  <set>
1

>  <Min_dist>
999.9

>  <Avg_dist>
999.9

$$$$
4-56
  Cerius2 12110214513D 1   1.00000                          
 
 39 41  0  0  0  0  0  0  0  0999 V2000
    1.7441    0.4225    0.0113 C   0  0  0  0  0  0
    0.9543   -0.6926   -0.0230 N   0  0  0  0  0  0
    1.7925   -1.7748   -0.0461 C   0  0  0  0  0  0
    3.0549   -1.2973   -0.0255 C   0  0  0  0  0  0
    3.0013    0.0380    0.0093 N   0  0  0  0  0  0
    4.3118   -2.1287   -0.0386 C   0  0  0  0  0  0
    5.4284   -1.2864   -0.0096 F   0  0  0  0  0  0
    4.3293   -2.9651    1.0827 F   0  0  0  0  0  0
    4.3444   -2.9064   -1.2011 F   0  0  0  0  0  0
   -0.4466   -0.7224   -0.0321 C   0  0  0  0  0  0
   -1.1353   -1.3654    0.9878 C   0  0  0  0  0  0
   -2.5162   -1.3927    0.9764 C   0  0  0  0  0  0
   -3.2127   -0.7805   -0.0494 C   0  0  0  0  0  0
   -2.5297   -0.1394   -1.0665 C   0  0  0  0  0  0
   -1.1490   -0.1041   -1.0578 C   0  0  0  0  0  0
   -4.9743   -0.8180   -0.0607 S   0  0  0  0  0  0
   -5.3561   -0.6135   -1.4141 O   0  0  0  0  0  0
   -5.3419   -1.9344    0.7379 O   0  0  0  0  0  0
   -5.5032    0.5178    0.7627 N   0  0  0  0  0  0
    1.2664    1.8214    0.0396 C   0  0  0  0  0  0
    2.1891    2.8674    0.0736 C   0  0  0  0  0  0
    1.7263    4.1711    0.0993 C   0  0  0  0  0  0
    0.3553    4.3881    0.0901 C   0  0  0  0  0  0
   -0.5034    3.3045    0.0558 C   0  0  0  0  0  0
   -0.0377    2.0728    0.0268 N   0  0  0  0  0  0
    2.6893    5.3297    0.1369 C   0  0  0  0  0  0
    1.4992   -2.8138   -0.0753 H   0  0  0  0  0  0
   -0.5918   -1.8441    1.7890 H   0  0  0  0  0  0
   -3.0524   -1.8930    1.7692 H   0  0  0  0  0  0
   -3.0765    0.3376   -1.8664 H   0  0  0  0  0  0
   -0.6160    0.3971   -1.8523 H   0  0  0  0  0  0
   -6.4542    0.6780    0.8674 H   0  0  0  0  0  0
   -4.8621    1.1401    1.1404 H   0  0  0  0  0  0
    3.2495    2.6624    0.0802 H   0  0  0  0  0  0
   -0.0373    5.3940    0.1099 H   0  0  0  0  0  0
   -1.5705    3.4707    0.0486 H   0  0  0  0  0  0
    2.9325    5.6332   -0.8813 H   0  0  0  0  0  0
    2.2314    6.1657    0.6657 H   0  0  0  0  0  0
    3.6004    5.0282    0.6537 H   0  0  0  0  0  0
  1  2  1  0  0  0
  1  5  2  0  0  0
  1 20  1  0  0  0
  2  3  1  0  0  0
  2 10  1  0  0  0
  3  4  2  0  0  0
  3 27  1  0  0  0
  4  5  1  0  0  0
  4  6  1  0  0  0
  6  7  1  0  0  0
  6  8  1  0  0  0
  6  9  1  0  0  0
 10 11  1  0  0  0
 10 15  2  0  0  0
 11 12  2  0  0  0
 11 28  1  0  0  0
 12 13  1  0  0  0
 12 29  1  0  0  0
 13 14  2  0  0  0
 13 16  1  0  0  0
 14 15  1  0  0  0
 14 30  1  0  0  0
 15 31  1  0  0  0
 16 17  2  0  0  0
 16 18  2  0  0  0
 16 19  1  0  0  0
 19 32  1  0  0  0
 19 33  1  0  0  0
 20 21  1  0  0  0
 20 25  2  0  0  0
 21 22  2  0  0  0
 21 34  1  0  0  0
 22 23  1  0  0  0
 22 26  1  0  0  0
 23 24  2  0  0  0
 23 35  1  0  0  0
 24 25  1  0  0  0
 24 36  1  0  0  0
 26 37  1  0  0  0
 26 38  1  0  0  0
 26 39  1  0  0  0
M  END
>  <Activity>
6.35655

>  <set>
1

>  <Min_dist>
999.9

>  <Avg_dist>
999.9

$$$$
4-57
  Cerius2 12110214513D 1   1.00000                          
 
 39 41  0  0  0  0  0  0  0  0999 V2000
    1.6944    0.5672   -0.0049 C   0  0  0  0  0  0
    0.9309   -0.5661   -0.0322 N   0  0  0  0  0  0
    1.7940   -1.6284   -0.0554 C   0  0  0  0  0  0
    3.0450   -1.1215   -0.0418 C   0  0  0  0  0  0
    2.9604    0.2122   -0.0112 N   0  0  0  0  0  0
    4.3209   -1.9233   -0.0576 C   0  0  0  0  0  0
    5.4176   -1.0550   -0.0362 F   0  0  0  0  0  0
    4.3627   -2.7553    1.0663 F   0  0  0  0  0  0
    4.3667   -2.7040   -1.2177 F   0  0  0  0  0  0
   -0.4690   -0.6287   -0.0351 C   0  0  0  0  0  0
   -1.1381   -1.2842    0.9898 C   0  0  0  0  0  0
   -2.5180   -1.3438    0.9845 C   0  0  0  0  0  0
   -3.2331   -0.7515   -0.0402 C   0  0  0  0  0  0
   -2.5695   -0.0980   -1.0623 C   0  0  0  0  0  0
   -1.1900   -0.0304   -1.0598 C   0  0  0  0  0  0
   -4.9933   -0.8302   -0.0438 S   0  0  0  0  0  0
   -5.3856   -0.6392   -1.3962 O   0  0  0  0  0  0
   -5.3312   -1.9522    0.7600 O   0  0  0  0  0  0
   -5.5498    0.4957    0.7776 N   0  0  0  0  0  0
    1.1843    1.9547    0.0209 C   0  0  0  0  0  0
    2.0766    3.0179    0.1632 C   0  0  0  0  0  0
    1.5837    4.3105    0.1850 C   0  0  0  0  0  0
    0.2139    4.4997    0.0638 C   0  0  0  0  0  0
   -0.6138    3.4003   -0.0742 C   0  0  0  0  0  0
   -0.1193    2.1798   -0.0972 N   0  0  0  0  0  0
    3.5561    2.7619    0.2919 C   0  0  0  0  0  0
    1.5250   -2.6741   -0.0799 H   0  0  0  0  0  0
   -0.5802   -1.7473    1.7902 H   0  0  0  0  0  0
   -3.0390   -1.8538    1.7812 H   0  0  0  0  0  0
   -3.1307    0.3634   -1.8615 H   0  0  0  0  0  0
   -0.6723    0.4805   -1.8581 H   0  0  0  0  0  0
   -6.5038    0.6340    0.8858 H   0  0  0  0  0  0
   -4.9219    1.1340    1.1505 H   0  0  0  0  0  0
    2.2498    5.1535    0.2943 H   0  0  0  0  0  0
   -0.2018    5.4964    0.0776 H   0  0  0  0  0  0
   -1.6799    3.5449   -0.1687 H   0  0  0  0  0  0
    3.9918    2.6422   -0.7001 H   0  0  0  0  0  0
    4.0282    3.6047    0.7967 H   0  0  0  0  0  0
    3.7186    1.8535    0.8720 H   0  0  0  0  0  0
  1  2  1  0  0  0
  1  5  2  0  0  0
  1 20  1  0  0  0
  2  3  1  0  0  0
  2 10  1  0  0  0
  3  4  2  0  0  0
  3 27  1  0  0  0
  4  5  1  0  0  0
  4  6  1  0  0  0
  6  7  1  0  0  0
  6  8  1  0  0  0
  6  9  1  0  0  0
 10 11  1  0  0  0
 10 15  2  0  0  0
 11 12  2  0  0  0
 11 28  1  0  0  0
 12 13  1  0  0  0
 12 29  1  0  0  0
 13 14  2  0  0  0
 13 16  1  0  0  0
 14 15  1  0  0  0
 14 30  1  0  0  0
 15 31  1  0  0  0
 16 17  2  0  0  0
 16 18  2  0  0  0
 16 19  1  0  0  0
 19 32  1  0  0  0
 19 33  1  0  0  0
 20 21  1  0  0  0
 20 25  2  0  0  0
 21 22  2  0  0  0
 21 26  1  0  0  0
 22 23  1  0  0  0
 22 34  1  0  0  0
 23 24  2  0  0  0
 23 35  1  0  0  0
 24 25  1  0  0  0
 24 36  1  0  0  0
 26 37  1  0  0  0
 26 38  1  0  0  0
 26 39  1  0  0  0
M  END
>  <Activity>
5.81248

>  <set>
1

>  <Min_dist>
999.9

>  <Avg_dist>
999.9

$$$$
4-64
  Cerius2 12110214513D 1   1.00000                          
 
 43 46  0  0  0  0  0  0  0  0999 V2000
    1.6336   -0.3294    0.0002 C   0  0  0  0  0  0
    0.7141   -1.3408   -0.0198 N   0  0  0  0  0  0
    1.4152   -2.5176   -0.0314 C   0  0  0  0  0  0
    2.7259   -2.1967   -0.0184 C   0  0  0  0  0  0
    2.8351   -0.8641    0.0007 N   0  0  0  0  0  0
    3.8724   -3.1747   -0.0239 C   0  0  0  0  0  0
    5.0832   -2.4739   -0.0065 F   0  0  0  0  0  0
    3.7917   -3.9943    1.1070 F   0  0  0  0  0  0
    3.8069   -3.9637   -1.1773 F   0  0  0  0  0  0
   -0.6801   -1.2005   -0.0266 C   0  0  0  0  0  0
   -1.4389   -1.7432    1.0018 C   0  0  0  0  0  0
   -2.8129   -1.6033    0.9923 C   0  0  0  0  0  0
   -3.4330   -0.9240   -0.0402 C   0  0  0  0  0  0
   -2.6800   -0.3824   -1.0659 C   0  0  0  0  0  0
   -1.3051   -0.5137   -1.0587 C   0  0  0  0  0  0
   -5.1862   -0.7486   -0.0494 S   0  0  0  0  0  0
   -5.4813   -0.6062   -1.4321 O   0  0  0  0  0  0
   -5.6193   -1.8734    0.7033 O   0  0  0  0  0  0
   -5.4511    0.8021    0.8537 C   0  0  0  0  0  0
    1.3297    1.1168    0.0126 C   0  0  0  0  0  0
    2.3725    2.0287    0.0327 C   0  0  0  0  0  0
    2.0647    3.3987    0.0442 C   0  0  0  0  0  0
    0.6972    3.7827    0.0347 C   0  0  0  0  0  0
   -0.2884    2.7810    0.0142 C   0  0  0  0  0  0
    0.0555    1.5170   -0.0013 N   0  0  0  0  0  0
    0.3673    5.1466    0.0465 C   0  0  0  0  0  0
    1.3608    6.0783    0.0668 C   0  0  0  0  0  0
    2.7023    5.7006    0.0756 C   0  0  0  0  0  0
    3.0611    4.3867    0.0652 C   0  0  0  0  0  0
    0.9980   -3.5136   -0.0478 H   0  0  0  0  0  0
   -0.9552   -2.2744    1.8082 H   0  0  0  0  0  0
   -3.4036   -2.0251    1.7920 H   0  0  0  0  0  0
   -3.1672    0.1476   -1.8710 H   0  0  0  0  0  0
   -0.7175   -0.0905   -1.8601 H   0  0  0  0  0  0
   -6.5192    1.0122    0.9094 H   0  0  0  0  0  0
   -5.0460    0.7095    1.8614 H   0  0  0  0  0  0
   -4.9473    1.6165    0.3330 H   0  0  0  0  0  0
    3.3991    1.6934    0.0396 H   0  0  0  0  0  0
   -1.3332    3.0544    0.0071 H   0  0  0  0  0  0
   -0.6675    5.4555    0.0391 H   0  0  0  0  0  0
    1.1045    7.1274    0.0758 H   0  0  0  0  0  0
    3.4688    6.4613    0.0910 H   0  0  0  0  0  0
    4.1044    4.1074    0.0725 H   0  0  0  0  0  0
  1  2  1  0  0  0
  1  5  2  0  0  0
  1 20  1  0  0  0
  2  3  1  0  0  0
  2 10  1  0  0  0
  3  4  2  0  0  0
  3 30  1  0  0  0
  4  5  1  0  0  0
  4  6  1  0  0  0
  6  7  1  0  0  0
  6  8  1  0  0  0
  6  9  1  0  0  0
 10 11  1  0  0  0
 10 15  2  0  0  0
 11 12  2  0  0  0
 11 31  1  0  0  0
 12 13  1  0  0  0
 12 32  1  0  0  0
 13 14  2  0  0  0
 13 16  1  0  0  0
 14 15  1  0  0  0
 14 33  1  0  0  0
 15 34  1  0  0  0
 16 17  2  0  0  0
 16 18  2  0  0  0
 16 19  1  0  0  0
 19 35  1  0  0  0
 19 36  1  0  0  0
 19 37  1  0  0  0
 20 21  1  0  0  0
 20 25  2  0  0  0
 21 22  2  0  0  0
 21 38  1  0  0  0
 22 23  1  0  0  0
 22 29  1  0  0  0
 23 24  2  0  0  0
 23 26  1  0  0  0
 24 25  1  0  0  0
 24 39  1  0  0  0
 26 27  2  0  0  0
 26 40  1  0  0  0
 27 28  1  0  0  0
 27 41  1  0  0  0
 28 29  2  0  0  0
 28 42  1  0  0  0
 29 43  1  0  0  0
M  END
>  <Activity>
5.92082

>  <set>
1

>  <Min_dist>
999.9

>  <Avg_dist>
999.9

$$$$
4-66
  Cerius2 12110214513D 1   1.00000                          
 
 43 46  0  0  0  0  0  0  0  0999 V2000
    1.9051    0.4756   -0.0210 C   0  0  0  0  0  0
    1.4321   -0.8067   -0.0234 N   0  0  0  0  0  0
    2.5240   -1.6352    0.0061 C   0  0  0  0  0  0
    3.6177   -0.8462    0.0254 C   0  0  0  0  0  0
    3.2190    0.4308    0.0084 N   0  0  0  0  0  0
    5.0471   -1.3225    0.0601 C   0  0  0  0  0  0
    5.9063   -0.2185    0.0722 F   0  0  0  0  0  0
    5.2556   -2.0883    1.2122 F   0  0  0  0  0  0
    5.3063   -2.1028   -1.0717 F   0  0  0  0  0  0
    0.0873   -1.1998   -0.0507 C   0  0  0  0  0  0
   -0.4179   -2.0210    0.9484 C   0  0  0  0  0  0
   -1.7437   -2.4067    0.9187 C   0  0  0  0  0  0
   -2.5677   -1.9763   -0.1050 C   0  0  0  0  0  0
   -2.0674   -1.1588   -1.1018 C   0  0  0  0  0  0
   -0.7440   -0.7643   -1.0739 C   0  0  0  0  0  0
   -4.2585   -2.4711   -0.1398 S   0  0  0  0  0  0
   -4.5777   -2.4048   -1.5228 O   0  0  0  0  0  0
   -4.2418   -3.7001    0.5734 O   0  0  0  0  0  0
   -5.0912   -1.1632    0.8018 C   0  0  0  0  0  0
    1.0811    1.7024   -0.0526 C   0  0  0  0  0  0
   -0.2542    1.6592    0.3298 C   0  0  0  0  0  0
   -0.9924    2.8538    0.2817 C   0  0  0  0  0  0
   -0.3534    4.0435   -0.1504 C   0  0  0  0  0  0
    0.9357    4.0228   -0.5067 N   0  0  0  0  0  0
    1.6435    2.9232   -0.4641 C   0  0  0  0  0  0
   -1.0946    5.2368   -0.1974 C   0  0  0  0  0  0
   -2.4053    5.2342    0.1694 C   0  0  0  0  0  0
   -3.0315    4.0638    0.5937 C   0  0  0  0  0  0
   -2.3476    2.8882    0.6526 C   0  0  0  0  0  0
    2.5109   -2.7151    0.0127 H   0  0  0  0  0  0
    0.2254   -2.3580    1.7478 H   0  0  0  0  0  0
   -2.1373   -3.0454    1.6956 H   0  0  0  0  0  0
   -2.7132   -0.8249   -1.9004 H   0  0  0  0  0  0
   -0.3539   -0.1255   -1.8524 H   0  0  0  0  0  0
   -6.1603   -1.3709    0.8448 H   0  0  0  0  0  0
   -4.6866   -1.1299    1.8134 H   0  0  0  0  0  0
   -4.9270   -0.2028    0.3131 H   0  0  0  0  0  0
   -0.7107    0.7356    0.6538 H   0  0  0  0  0  0
    2.6815    2.9522   -0.7610 H   0  0  0  0  0  0
   -0.6254    6.1533   -0.5234 H   0  0  0  0  0  0
   -2.9693    6.1544    0.1314 H   0  0  0  0  0  0
   -4.0727    4.0897    0.8796 H   0  0  0  0  0  0
   -2.8433    1.9874    0.9831 H   0  0  0  0  0  0
  1  2  1  0  0  0
  1  5  2  0  0  0
  1 20  1  0  0  0
  2  3  1  0  0  0
  2 10  1  0  0  0
  3  4  2  0  0  0
  3 30  1  0  0  0
  4  5  1  0  0  0
  4  6  1  0  0  0
  6  7  1  0  0  0
  6  8  1  0  0  0
  6  9  1  0  0  0
 10 11  1  0  0  0
 10 15  2  0  0  0
 11 12  2  0  0  0
 11 31  1  0  0  0
 12 13  1  0  0  0
 12 32  1  0  0  0
 13 14  2  0  0  0
 13 16  1  0  0  0
 14 15  1  0  0  0
 14 33  1  0  0  0
 15 34  1  0  0  0
 16 17  2  0  0  0
 16 18  2  0  0  0
 16 19  1  0  0  0
 19 35  1  0  0  0
 19 36  1  0  0  0
 19 37  1  0  0  0
 20 21  1  0  0  0
 20 25  2  0  0  0
 21 22  2  0  0  0
 21 38  1  0  0  0
 22 23  1  0  0  0
 22 29  1  0  0  0
 23 24  2  0  0  0
 23 26  1  0  0  0
 24 25  1  0  0  0
 25 39  1  0  0  0
 26 27  2  0  0  0
 26 40  1  0  0  0
 27 28  1  0  0  0
 27 41  1  0  0  0
 28 29  2  0  0  0
 28 42  1  0  0  0
 29 43  1  0  0  0
M  END
>  <Activity>
6.20066

>  <set>
1

>  <Min_dist>
999.9

>  <Avg_dist>
999.9

$$$$
4-71
  Cerius2 12110214513D 1   1.00000                          
 
 35 37  0  0  0  0  0  0  0  0999 V2000
    1.8073    0.7874    0.0256 C   0  0  0  0  0  0
    1.1225   -0.3969   -0.0162 N   0  0  0  0  0  0
    2.0604   -1.3995   -0.0449 C   0  0  0  0  0  0
    3.2716   -0.8086   -0.0202 C   0  0  0  0  0  0
    3.0968    0.5179    0.0225 N   0  0  0  0  0  0
    4.5992   -1.5214   -0.0371 C   0  0  0  0  0  0
    5.6341   -0.5806   -0.0019 F   0  0  0  0  0  0
    4.6928   -2.3596    1.0790 F   0  0  0  0  0  0
    4.7033   -2.2857   -1.2043 F   0  0  0  0  0  0
   -0.2696   -0.5560   -0.0272 C   0  0  0  0  0  0
   -0.8967   -1.2658    0.9881 C   0  0  0  0  0  0
   -2.2690   -1.4209    0.9745 C   0  0  0  0  0  0
   -3.0184   -0.8701   -0.0489 C   0  0  0  0  0  0
   -2.3967   -0.1627   -1.0614 C   0  0  0  0  0  0
   -1.0253    0.0007   -1.0503 C   0  0  0  0  0  0
   -4.7689   -1.0707   -0.0630 S   0  0  0  0  0  0
   -5.0864   -0.9693   -1.4444 O   0  0  0  0  0  0
   -4.9539   -2.2752    0.6679 O   0  0  0  0  0  0
   -5.3576    0.3719    0.8658 C   0  0  0  0  0  0
    1.2070    2.1300    0.0613 C   0  0  0  0  0  0
    1.8268    3.3538    0.1038 C   0  0  0  0  0  0
    1.0482    4.4879    0.1309 C   0  0  0  0  0  0
   -0.3049    4.3633    0.1150 C   0  0  0  0  0  0
   -0.5177    2.5919    0.0529 S   0  0  0  0  0  0
    1.8646   -2.4610   -0.0801 H   0  0  0  0  0  0
   -0.3119   -1.6965    1.7875 H   0  0  0  0  0  0
   -2.7574   -1.9732    1.7637 H   0  0  0  0  0  0
   -2.9846    0.2660   -1.8596 H   0  0  0  0  0  0
   -0.5404    0.5533   -1.8414 H   0  0  0  0  0  0
   -6.4460    0.3495    0.9203 H   0  0  0  0  0  0
   -4.9429    0.3492    1.8736 H   0  0  0  0  0  0
   -5.0378    1.2839    0.3618 H   0  0  0  0  0  0
    2.9044    3.4251    0.1160 H   0  0  0  0  0  0
    1.5069    5.4651    0.1649 H   0  0  0  0  0  0
   -1.0579    5.1373    0.1321 H   0  0  0  0  0  0
  1  2  1  0  0  0
  1  5  2  0  0  0
  1 20  1  0  0  0
  2  3  1  0  0  0
  2 10  1  0  0  0
  3  4  2  0  0  0
  3 25  1  0  0  0
  4  5  1  0  0  0
  4  6  1  0  0  0
  6  7  1  0  0  0
  6  8  1  0  0  0
  6  9  1  0  0  0
 10 11  1  0  0  0
 10 15  2  0  0  0
 11 12  2  0  0  0
 11 26  1  0  0  0
 12 13  1  0  0  0
 12 27  1  0  0  0
 13 14  2  0  0  0
 13 16  1  0  0  0
 14 15  1  0  0  0
 14 28  1  0  0  0
 15 29  1  0  0  0
 16 17  2  0  0  0
 16 18  2  0  0  0
 16 19  1  0  0  0
 19 30  1  0  0  0
 19 31  1  0  0  0
 19 32  1  0  0  0
 20 21  2  0  0  0
 20 24  1  0  0  0
 21 22  1  0  0  0
 21 33  1  0  0  0
 22 23  2  0  0  0
 22 34  1  0  0  0
 23 24  1  0  0  0
 23 35  1  0  0  0
M  END
>  <Activity>
6.3279

>  <set>
1

>  <Min_dist>
999.9

>  <Avg_dist>
999.9

$$$$
4-72
  Cerius2 12110214513D 1   1.00000                          
 
 34 36  0  0  0  0  0  0  0  0999 V2000
    1.8327    0.7844    0.0286 C   0  0  0  0  0  0
    1.1454   -0.3983   -0.0189 N   0  0  0  0  0  0
    2.0813   -1.4027   -0.0514 C   0  0  0  0  0  0
    3.2937   -0.8144   -0.0233 C   0  0  0  0  0  0
    3.1216    0.5122    0.0251 N   0  0  0  0  0  0
    4.6199   -1.5298   -0.0425 C   0  0  0  0  0  0
    5.6567   -0.5914   -0.0024 F   0  0  0  0  0  0
    4.7110   -2.3732    1.0700 F   0  0  0  0  0  0
    4.7232   -2.2892   -1.2130 F   0  0  0  0  0  0
   -0.2469   -0.5544   -0.0315 C   0  0  0  0  0  0
   -0.8762   -1.2674    0.9802 C   0  0  0  0  0  0
   -2.2488   -1.4196    0.9650 C   0  0  0  0  0  0
   -2.9964   -0.8627   -0.0564 C   0  0  0  0  0  0
   -2.3726   -0.1521   -1.0654 C   0  0  0  0  0  0
   -1.0008    0.0084   -1.0527 C   0  0  0  0  0  0
   -4.7473   -1.0596   -0.0726 S   0  0  0  0  0  0
   -5.1438   -0.8770   -1.4248 O   0  0  0  0  0  0
   -5.0134   -2.2127    0.7141 O   0  0  0  0  0  0
   -5.3964    0.2145    0.7627 N   0  0  0  0  0  0
    1.2351    2.1281    0.0699 C   0  0  0  0  0  0
    1.8575    3.3504    0.1181 C   0  0  0  0  0  0
    1.0812    4.4860    0.1498 C   0  0  0  0  0  0
   -0.2721    4.3643    0.1324 C   0  0  0  0  0  0
   -0.4885    2.5937    0.0624 S   0  0  0  0  0  0
    1.8833   -2.4636   -0.0915 H   0  0  0  0  0  0
   -0.2928   -1.7028    1.7781 H   0  0  0  0  0  0
   -2.7388   -1.9743    1.7515 H   0  0  0  0  0  0
   -2.9591    0.2813   -1.8620 H   0  0  0  0  0  0
   -0.5142    0.5635   -1.8410 H   0  0  0  0  0  0
   -6.3582    0.2868    0.8665 H   0  0  0  0  0  0
   -4.8150    0.8885    1.1481 H   0  0  0  0  0  0
    2.9352    3.4195    0.1313 H   0  0  0  0  0  0
    1.5418    5.4620    0.1883 H   0  0  0  0  0  0
   -1.0236    5.1397    0.1524 H   0  0  0  0  0  0
  1  2  1  0  0  0
  1  5  2  0  0  0
  1 20  1  0  0  0
  2  3  1  0  0  0
  2 10  1  0  0  0
  3  4  2  0  0  0
  3 25  1  0  0  0
  4  5  1  0  0  0
  4  6  1  0  0  0
  6  7  1  0  0  0
  6  8  1  0  0  0
  6  9  1  0  0  0
 10 11  1  0  0  0
 10 15  2  0  0  0
 11 12  2  0  0  0
 11 26  1  0  0  0
 12 13  1  0  0  0
 12 27  1  0  0  0
 13 14  2  0  0  0
 13 16  1  0  0  0
 14 15  1  0  0  0
 14 28  1  0  0  0
 15 29  1  0  0  0
 16 17  2  0  0  0
 16 18  2  0  0  0
 16 19  1  0  0  0
 19 30  1  0  0  0
 19 31  1  0  0  0
 20 21  2  0  0  0
 20 24  1  0  0  0
 21 22  1  0  0  0
 21 32  1  0  0  0
 22 23  2  0  0  0
 22 33  1  0  0  0
 23 24  1  0  0  0
 23 34  1  0  0  0
M  END
>  <Activity>
7.1549

>  <set>
1

>  <Min_dist>
999.9

>  <Avg_dist>
999.9

$$$$
4-73
  Cerius2 12110214513D 1   1.00000                          
 
 35 37  0  0  0  0  0  0  0  0999 V2000
    1.0868    1.0549    0.0048 C   0  0  0  0  0  0
   -0.1299    1.6816    0.0214 N   0  0  0  0  0  0
    0.1170    3.0324    0.0316 C   0  0  0  0  0  0
    1.4556    3.1896    0.0210 C   0  0  0  0  0  0
    2.0259    1.9787    0.0048 N   0  0  0  0  0  0
    2.1872    4.5071    0.0257 C   0  0  0  0  0  0
    3.5666    4.2746    0.0115 F   0  0  0  0  0  0
    1.8268    5.2447   -1.1071 F   0  0  0  0  0  0
    1.8472    5.2252    1.1773 F   0  0  0  0  0  0
   -1.3872    1.0631    0.0266 C   0  0  0  0  0  0
   -2.2857    1.3049   -1.0039 C   0  0  0  0  0  0
   -3.5243    0.6938   -0.9960 C   0  0  0  0  0  0
   -3.8698   -0.1582    0.0369 C   0  0  0  0  0  0
   -2.9771   -0.4011    1.0647 C   0  0  0  0  0  0
   -1.7349    0.2026    1.0594 C   0  0  0  0  0  0
   -5.4511   -0.9355    0.0438 S   0  0  0  0  0  0
   -5.6806   -1.1704    1.4263 O   0  0  0  0  0  0
   -6.2485   -0.0340   -0.7116 O   0  0  0  0  0  0
   -5.1552   -2.4821   -0.8569 C   0  0  0  0  0  0
    1.3077   -0.3995   -0.0050 C   0  0  0  0  0  0
    2.4994   -1.0998   -0.0218 C   0  0  0  0  0  0
    2.4505   -2.4753   -0.0282 C   0  0  0  0  0  0
    1.2425   -3.0972   -0.0180 C   0  0  0  0  0  0
    0.1066   -1.7204    0.0094 S   0  0  0  0  0  0
    4.0470   -3.4884   -0.0516 Br  0  0  0  0  0  0
   -0.6218    3.8200    0.0451 H   0  0  0  0  0  0
   -2.0165    1.9705   -1.8107 H   0  0  0  0  0  0
   -4.2237    0.8818   -1.7971 H   0  0  0  0  0  0
   -3.2500   -1.0667    1.8702 H   0  0  0  0  0  0
   -1.0381    0.0126    1.8624 H   0  0  0  0  0  0
   -6.0824   -3.0524   -0.9138 H   0  0  0  0  0  0
   -4.8060   -2.2549   -1.8641 H   0  0  0  0  0  0
   -4.3996   -3.0682   -0.3339 H   0  0  0  0  0  0
    3.4461   -0.5801   -0.0300 H   0  0  0  0  0  0
    1.0249   -4.1551   -0.0210 H   0  0  0  0  0  0
  1  2  1  0  0  0
  1  5  2  0  0  0
  1 20  1  0  0  0
  2  3  1  0  0  0
  2 10  1  0  0  0
  3  4  2  0  0  0
  3 26  1  0  0  0
  4  5  1  0  0  0
  4  6  1  0  0  0
  6  7  1  0  0  0
  6  8  1  0  0  0
  6  9  1  0  0  0
 10 11  1  0  0  0
 10 15  2  0  0  0
 11 12  2  0  0  0
 11 27  1  0  0  0
 12 13  1  0  0  0
 12 28  1  0  0  0
 13 14  2  0  0  0
 13 16  1  0  0  0
 14 15  1  0  0  0
 14 29  1  0  0  0
 15 30  1  0  0  0
 16 17  2  0  0  0
 16 18  2  0  0  0
 16 19  1  0  0  0
 19 31  1  0  0  0
 19 32  1  0  0  0
 19 33  1  0  0  0
 20 21  2  0  0  0
 20 24  1  0  0  0
 21 22  1  0  0  0
 21 34  1  0  0  0
 22 23  2  0  0  0
 22 25  1  0  0  0
 23 24  1  0  0  0
 23 35  1  0  0  0
M  END
>  <Activity>
7.58503

>  <set>
1

>  <Min_dist>
999.9

>  <Avg_dist>
999.9

$$$$
4-75
  Cerius2 12110214513D 1   1.00000                          
 
 37 39  0  0  0  0  0  0  0  0999 V2000
    1.8216    0.6198    0.0157 C   0  0  0  0  0  0
    1.1577   -0.5748   -0.0187 N   0  0  0  0  0  0
    2.1122   -1.5619   -0.0412 C   0  0  0  0  0  0
    3.3125   -0.9505   -0.0201 C   0  0  0  0  0  0
    3.1137    0.3737    0.0143 N   0  0  0  0  0  0
    4.6525   -1.6400   -0.0324 C   0  0  0  0  0  0
    5.6706   -0.6809   -0.0031 F   0  0  0  0  0  0
    4.7606   -2.4692    1.0891 F   0  0  0  0  0  0
    4.7703   -2.4097   -1.1946 F   0  0  0  0  0  0
   -0.2317   -0.7572   -0.0287 C   0  0  0  0  0  0
   -0.8468   -1.4711    0.9910 C   0  0  0  0  0  0
   -2.2164   -1.6493    0.9783 C   0  0  0  0  0  0
   -2.9748   -1.1179   -0.0486 C   0  0  0  0  0  0
   -2.3650   -0.4065   -1.0655 C   0  0  0  0  0  0
   -0.9965   -0.2196   -1.0552 C   0  0  0  0  0  0
   -4.7216   -1.3484   -0.0618 S   0  0  0  0  0  0
   -5.0404   -1.2612   -1.4438 O   0  0  0  0  0  0
   -4.8862   -2.5512    0.6767 O   0  0  0  0  0  0
   -5.3351    0.0899    0.8578 C   0  0  0  0  0  0
    1.1952    1.9576    0.0433 C   0  0  0  0  0  0
   -0.1229    2.0969    0.0367 N   0  0  0  0  0  0
   -0.6860    3.2793    0.0610 C   0  0  0  0  0  0
    0.6822    4.3473    0.0972 S   0  0  0  0  0  0
    1.9585    3.0968    0.0824 C   0  0  0  0  0  0
   -2.1527    3.6255    0.0578 C   0  0  0  0  0  0
    1.9343   -2.6268   -0.0702 H   0  0  0  0  0  0
   -0.2550   -1.8870    1.7929 H   0  0  0  0  0  0
   -2.6955   -2.2045    1.7712 H   0  0  0  0  0  0
   -2.9599    0.0074   -1.8663 H   0  0  0  0  0  0
   -0.5208    0.3361   -1.8497 H   0  0  0  0  0  0
   -6.4230    0.0493    0.9122 H   0  0  0  0  0  0
   -4.9203    0.0806    1.8657 H   0  0  0  0  0  0
   -5.0307    1.0039    0.3480 H   0  0  0  0  0  0
    3.0327    3.2074    0.0954 H   0  0  0  0  0  0
   -2.5144    3.6840    1.0843 H   0  0  0  0  0  0
   -2.2979    4.5874   -0.4340 H   0  0  0  0  0  0
   -2.7066    2.8555   -0.4793 H   0  0  0  0  0  0
  1  2  1  0  0  0
  1  5  2  0  0  0
  1 20  1  0  0  0
  2  3  1  0  0  0
  2 10  1  0  0  0
  3  4  2  0  0  0
  3 26  1  0  0  0
  4  5  1  0  0  0
  4  6  1  0  0  0
  6  7  1  0  0  0
  6  8  1  0  0  0
  6  9  1  0  0  0
 10 11  1  0  0  0
 10 15  2  0  0  0
 11 12  2  0  0  0
 11 27  1  0  0  0
 12 13  1  0  0  0
 12 28  1  0  0  0
 13 14  2  0  0  0
 13 16  1  0  0  0
 14 15  1  0  0  0
 14 29  1  0  0  0
 15 30  1  0  0  0
 16 17  2  0  0  0
 16 18  2  0  0  0
 16 19  1  0  0  0
 19 31  1  0  0  0
 19 32  1  0  0  0
 19 33  1  0  0  0
 20 21  1  0  0  0
 20 24  2  0  0  0
 21 22  2  0  0  0
 22 23  1  0  0  0
 22 25  1  0  0  0
 23 24  1  0  0  0
 24 34  1  0  0  0
 25 35  1  0  0  0
 25 36  1  0  0  0
 25 37  1  0  0  0
M  END
>  <Activity>
6.02687

>  <set>
1

>  <Min_dist>
999.9

>  <Avg_dist>
999.9

$$$$
4-76
  Cerius2 12110214513D 1   1.00000                          
 
 36 38  0  0  0  0  0  0  0  0999 V2000
    1.8464    0.6154    0.0174 C   0  0  0  0  0  0
    1.1786   -0.5768   -0.0216 N   0  0  0  0  0  0
    2.1299   -1.5671   -0.0470 C   0  0  0  0  0  0
    3.3321   -0.9597   -0.0231 C   0  0  0  0  0  0
    3.1377    0.3650    0.0160 N   0  0  0  0  0  0
    4.6698   -1.6536   -0.0370 C   0  0  0  0  0  0
    5.6911   -0.6980   -0.0036 F   0  0  0  0  0  0
    4.7744   -2.4872    1.0817 F   0  0  0  0  0  0
    4.7858   -2.4196   -1.2019 F   0  0  0  0  0  0
   -0.2114   -0.7546   -0.0331 C   0  0  0  0  0  0
   -0.8296   -1.4701    0.9836 C   0  0  0  0  0  0
   -2.1997   -1.6437    0.9695 C   0  0  0  0  0  0
   -2.9557   -1.1061   -0.0560 C   0  0  0  0  0  0
   -2.3429   -0.3931   -1.0700 C   0  0  0  0  0  0
   -0.9738   -0.2108   -1.0582 C   0  0  0  0  0  0
   -4.7032   -1.3307   -0.0711 S   0  0  0  0  0  0
   -5.1022   -1.1642   -1.4247 O   0  0  0  0  0  0
   -4.9514   -2.4822    0.7238 O   0  0  0  0  0  0
   -5.3727   -0.0611    0.7548 N   0  0  0  0  0  0
    1.2245    1.9552    0.0494 C   0  0  0  0  0  0
   -0.0932    2.0989    0.0425 N   0  0  0  0  0  0
   -0.6524    3.2830    0.0706 C   0  0  0  0  0  0
    0.7193    4.3463    0.1115 S   0  0  0  0  0  0
    1.9915    3.0917    0.0931 C   0  0  0  0  0  0
   -2.1179    3.6341    0.0678 C   0  0  0  0  0  0
    1.9484   -2.6312   -0.0800 H   0  0  0  0  0  0
   -0.2396   -1.8908    1.7844 H   0  0  0  0  0  0
   -2.6812   -2.2001    1.7601 H   0  0  0  0  0  0
   -2.9359    0.0256   -1.8697 H   0  0  0  0  0  0
   -0.4957    0.3462   -1.8504 H   0  0  0  0  0  0
   -6.3355   -0.0032    0.8579 H   0  0  0  0  0  0
   -4.8021    0.6248    1.1354 H   0  0  0  0  0  0
    3.0661    3.1987    0.1071 H   0  0  0  0  0  0
   -2.4801    3.6902    1.0943 H   0  0  0  0  0  0
   -2.2596    4.5982   -0.4207 H   0  0  0  0  0  0
   -2.6740    2.8679   -0.4724 H   0  0  0  0  0  0
  1  2  1  0  0  0
  1  5  2  0  0  0
  1 20  1  0  0  0
  2  3  1  0  0  0
  2 10  1  0  0  0
  3  4  2  0  0  0
  3 26  1  0  0  0
  4  5  1  0  0  0
  4  6  1  0  0  0
  6  7  1  0  0  0
  6  8  1  0  0  0
  6  9  1  0  0  0
 10 11  1  0  0  0
 10 15  2  0  0  0
 11 12  2  0  0  0
 11 27  1  0  0  0
 12 13  1  0  0  0
 12 28  1  0  0  0
 13 14  2  0  0  0
 13 16  1  0  0  0
 14 15  1  0  0  0
 14 29  1  0  0  0
 15 30  1  0  0  0
 16 17  2  0  0  0
 16 18  2  0  0  0
 16 19  1  0  0  0
 19 31  1  0  0  0
 19 32  1  0  0  0
 20 21  1  0  0  0
 20 24  2  0  0  0
 21 22  2  0  0  0
 22 23  1  0  0  0
 22 25  1  0  0  0
 23 24  1  0  0  0
 24 33  1  0  0  0
 25 34  1  0  0  0
 25 35  1  0  0  0
 25 36  1  0  0  0
M  END
>  <Activity>
6.284

>  <set>
1

>  <Min_dist>
999.9

>  <Avg_dist>
999.9

$$$$
4-78
  Cerius2 12110214513D 1   1.00000                          
 
 36 38  0  0  0  0  0  0  0  0999 V2000
    1.7903    0.4630    0.0127 C   0  0  0  0  0  0
    1.0358   -0.6782   -0.0225 N   0  0  0  0  0  0
    1.9096   -1.7333   -0.0459 C   0  0  0  0  0  0
    3.1559   -1.2157   -0.0246 C   0  0  0  0  0  0
    3.0608    0.1173    0.0109 N   0  0  0  0  0  0
    4.4384   -2.0069   -0.0376 C   0  0  0  0  0  0
    5.5278   -1.1298   -0.0078 F   0  0  0  0  0  0
    4.4819   -2.8430    1.0833 F   0  0  0  0  0  0
    4.4959   -2.7826   -1.2004 F   0  0  0  0  0  0
   -0.3632   -0.7533   -0.0324 C   0  0  0  0  0  0
   -1.0313   -1.4187    0.9869 C   0  0  0  0  0  0
   -2.4106   -1.4906    0.9746 C   0  0  0  0  0  0
   -3.1260   -0.9013   -0.0516 C   0  0  0  0  0  0
   -2.4634   -0.2380   -1.0681 C   0  0  0  0  0  0
   -1.0846   -0.1577   -1.0584 C   0  0  0  0  0  0
   -4.8854   -0.9963   -0.0643 S   0  0  0  0  0  0
   -5.2726   -0.8041   -1.4179 O   0  0  0  0  0  0
   -5.2169   -2.1242    0.7339 O   0  0  0  0  0  0
   -5.4582    0.3214    0.7590 N   0  0  0  0  0  0
    1.2708    1.8404    0.0413 C   0  0  0  0  0  0
   -0.4225    2.4148    0.0395 S   0  0  0  0  0  0
   -0.0585    4.1653    0.0854 C   0  0  0  0  0  0
    1.3022    4.1388    0.0974 C   0  0  0  0  0  0
    1.9334    2.9901    0.0813 N   0  0  0  0  0  0
    2.0818    5.4279    0.1360 C   0  0  0  0  0  0
    1.6501   -2.7812   -0.0757 H   0  0  0  0  0  0
   -0.4731   -1.8798    1.7882 H   0  0  0  0  0  0
   -2.9308   -2.0080    1.7671 H   0  0  0  0  0  0
   -3.0249    0.2210   -1.8684 H   0  0  0  0  0  0
   -0.5678    0.3608   -1.8524 H   0  0  0  0  0  0
   -6.4140    0.4505    0.8629 H   0  0  0  0  0  0
   -4.8381    0.9642    1.1373 H   0  0  0  0  0  0
   -0.7319    5.0095    0.0996 H   0  0  0  0  0  0
    2.2602    5.7137    1.1726 H   0  0  0  0  0  0
    3.0361    5.2906   -0.3724 H   0  0  0  0  0  0
    1.5130    6.2116   -0.3643 H   0  0  0  0  0  0
  1  2  1  0  0  0
  1  5  2  0  0  0
  1 20  1  0  0  0
  2  3  1  0  0  0
  2 10  1  0  0  0
  3  4  2  0  0  0
  3 26  1  0  0  0
  4  5  1  0  0  0
  4  6  1  0  0  0
  6  7  1  0  0  0
  6  8  1  0  0  0
  6  9  1  0  0  0
 10 11  1  0  0  0
 10 15  2  0  0  0
 11 12  2  0  0  0
 11 27  1  0  0  0
 12 13  1  0  0  0
 12 28  1  0  0  0
 13 14  2  0  0  0
 13 16  1  0  0  0
 14 15  1  0  0  0
 14 29  1  0  0  0
 15 30  1  0  0  0
 16 17  2  0  0  0
 16 18  2  0  0  0
 16 19  1  0  0  0
 19 31  1  0  0  0
 19 32  1  0  0  0
 20 21  1  0  0  0
 20 24  2  0  0  0
 21 22  1  0  0  0
 22 23  2  0  0  0
 22 33  1  0  0  0
 23 24  1  0  0  0
 23 25  1  0  0  0
 25 34  1  0  0  0
 25 35  1  0  0  0
 25 36  1  0  0  0
M  END
>  <Activity>
6.95861

>  <set>
1

>  <Min_dist>
999.9

>  <Avg_dist>
999.9

$$$$
5-1A
  Cerius2 12110214513D 1   1.00000                          
 
 39 41  0  0  0  0  0  0  0  0999 V2000
    2.5155    1.3768    0.0670 C   0  0  0  0  0  0
    1.3510    2.0381    0.0439 C   0  0  0  0  0  0
    1.5886    3.5305    0.0419 C   0  0  0  0  0  0
    3.0710    3.6966   -0.3621 C   0  0  0  0  0  0
    3.6752    2.3457    0.0832 C   0  0  0  0  0  0
    0.0230    1.3992    0.0226 C   0  0  0  0  0  0
   -0.8900    1.6430    1.0520 C   0  0  0  0  0  0
   -2.1308    1.0417    1.0254 C   0  0  0  0  0  0
   -2.4725    0.1982   -0.0171 C   0  0  0  0  0  0
   -1.5734   -0.0483   -1.0397 C   0  0  0  0  0  0
   -0.3314    0.5512   -1.0300 C   0  0  0  0  0  0
   -4.0599   -0.5660   -0.0422 S   0  0  0  0  0  0
   -3.8309   -1.7429   -0.8048 O   0  0  0  0  0  0
   -4.4082   -0.6142    1.3346 O   0  0  0  0  0  0
   -5.0799    0.6296   -0.9481 C   0  0  0  0  0  0
    2.6475   -0.0909    0.0810 C   0  0  0  0  0  0
    3.3280   -0.7440   -0.9502 C   0  0  0  0  0  0
    3.4480   -2.1174   -0.9314 C   0  0  0  0  0  0
    2.8951   -2.8502    0.1071 C   0  0  0  0  0  0
    2.2190   -2.2081    1.1328 C   0  0  0  0  0  0
    2.0976   -0.8348    1.1285 C   0  0  0  0  0  0
    3.0152   -4.1958    0.1195 F   0  0  0  0  0  0
    0.9403    4.0165   -0.6871 H   0  0  0  0  0  0
    1.4183    3.9428    1.0364 H   0  0  0  0  0  0
    3.1686    3.8309   -1.4394 H   0  0  0  0  0  0
    3.5310    4.5255    0.1758 H   0  0  0  0  0  0
    4.0866    2.4277    1.0892 H   0  0  0  0  0  0
    4.4462    2.0258   -0.6177 H   0  0  0  0  0  0
   -0.6244    2.3005    1.8667 H   0  0  0  0  0  0
   -2.8375    1.2292    1.8203 H   0  0  0  0  0  0
   -1.8467   -0.7083   -1.8498 H   0  0  0  0  0  0
    0.3692    0.3582   -1.8289 H   0  0  0  0  0  0
   -6.0999    0.2528   -1.0246 H   0  0  0  0  0  0
   -5.0829    1.5811   -0.4165 H   0  0  0  0  0  0
   -4.6698    0.7733   -1.9478 H   0  0  0  0  0  0
    3.7586   -0.1742   -1.7603 H   0  0  0  0  0  0
    3.9737   -2.6233   -1.7278 H   0  0  0  0  0  0
    1.7900   -2.7845    1.9391 H   0  0  0  0  0  0
    1.5706   -0.3356    1.9282 H   0  0  0  0  0  0
  1  2  2  0  0  0
  1  5  1  0  0  0
  1 16  1  0  0  0
  2  3  1  0  0  0
  2  6  1  0  0  0
  3  4  1  0  0  0
  3 23  1  0  0  0
  3 24  1  0  0  0
  4  5  1  0  0  0
  4 25  1  0  0  0
  4 26  1  0  0  0
  5 27  1  0  0  0
  5 28  1  0  0  0
  6  7  1  0  0  0
  6 11  2  0  0  0
  7  8  2  0  0  0
  7 29  1  0  0  0
  8  9  1  0  0  0
  8 30  1  0  0  0
  9 10  2  0  0  0
  9 12  1  0  0  0
 10 11  1  0  0  0
 10 31  1  0  0  0
 11 32  1  0  0  0
 12 13  2  0  0  0
 12 14  2  0  0  0
 12 15  1  0  0  0
 15 33  1  0  0  0
 15 34  1  0  0  0
 15 35  1  0  0  0
 16 17  1  0  0  0
 16 21  2  0  0  0
 17 18  2  0  0  0
 17 36  1  0  0  0
 18 19  1  0  0  0
 18 37  1  0  0  0
 19 20  2  0  0  0
 19 22  1  0  0  0
 20 21  1  0  0  0
 20 38  1  0  0  0
 21 39  1  0  0  0
M  END
>  <Activity>
7.58503

>  <set>
1

>  <Min_dist>
999.9

>  <Avg_dist>
999.9

$$$$
5-1B
  Cerius2 12110214513D 1   1.00000                          
 
 43 45  0  0  0  0  0  0  0  0999 V2000
    2.2939    1.7557    0.0779 C   0  0  0  0  0  0
    1.0763    2.3130    0.1148 C   0  0  0  0  0  0
    1.1843    3.8173    0.2103 C   0  0  0  0  0  0
    2.6389    4.1384   -0.2010 C   0  0  0  0  0  0
    3.3657    2.8190    0.1442 C   0  0  0  0  0  0
   -0.1919    1.5635    0.0686 C   0  0  0  0  0  0
   -1.1026    1.6588    1.1243 C   0  0  0  0  0  0
   -2.2875    0.9549    1.0739 C   0  0  0  0  0  0
   -2.5756    0.1557   -0.0185 C   0  0  0  0  0  0
   -1.6786    0.0565   -1.0676 C   0  0  0  0  0  0
   -0.4921    0.7587   -1.0336 C   0  0  0  0  0  0
   -4.0918   -0.7403   -0.0737 S   0  0  0  0  0  0
   -3.7774   -1.8398   -0.9172 O   0  0  0  0  0  0
   -4.4079   -0.9095    1.3013 O   0  0  0  0  0  0
   -5.2279    0.4194   -0.8829 C   0  0  0  0  0  0
    2.5521    0.3077   -0.0089 C   0  0  0  0  0  0
    3.2670   -0.2133   -1.0912 C   0  0  0  0  0  0
    3.5059   -1.5682   -1.1680 C   0  0  0  0  0  0
    3.0377   -2.4158   -0.1722 C   0  0  0  0  0  0
    2.3268   -1.9027    0.9052 C   0  0  0  0  0  0
    2.0879   -0.5485    0.9937 C   0  0  0  0  0  0
    3.2753   -3.7510   -0.2525 O   0  0  0  0  0  0
    2.6781   -4.3469    0.9008 C   0  0  0  0  0  0
    0.4828    4.2921   -0.4756 H   0  0  0  0  0  0
    0.9980    4.1466    1.2326 H   0  0  0  0  0  0
    2.7042    4.3516   -1.2680 H   0  0  0  0  0  0
    3.0359    4.9670    0.3855 H   0  0  0  0  0  0
    3.7875    2.8699    1.1480 H   0  0  0  0  0  0
    4.1481    2.6147   -0.5867 H   0  0  0  0  0  0
   -0.8789    2.2818    1.9776 H   0  0  0  0  0  0
   -2.9922    1.0273    1.8891 H   0  0  0  0  0  0
   -1.9102   -0.5692   -1.9169 H   0  0  0  0  0  0
    0.2069    0.6805   -1.8532 H   0  0  0  0  0  0
   -6.2131   -0.0387   -0.9708 H   0  0  0  0  0  0
   -5.3024    1.3298   -0.2882 H   0  0  0  0  0  0
   -4.8511    0.6640   -1.8760 H   0  0  0  0  0  0
    3.6311    0.4449   -1.8661 H   0  0  0  0  0  0
    4.0579   -1.9717   -2.0041 H   0  0  0  0  0  0
    1.9644   -2.5657    1.6769 H   0  0  0  0  0  0
    1.5351   -0.1505    1.8318 H   0  0  0  0  0  0
    2.8437   -5.4241    0.8802 H   0  0  0  0  0  0
    3.1278   -3.9273    1.8007 H   0  0  0  0  0  0
    1.6071   -4.1439    0.9013 H   0  0  0  0  0  0
  1  2  2  0  0  0
  1  5  1  0  0  0
  1 16  1  0  0  0
  2  3  1  0  0  0
  2  6  1  0  0  0
  3  4  1  0  0  0
  3 24  1  0  0  0
  3 25  1  0  0  0
  4  5  1  0  0  0
  4 26  1  0  0  0
  4 27  1  0  0  0
  5 28  1  0  0  0
  5 29  1  0  0  0
  6  7  1  0  0  0
  6 11  2  0  0  0
  7  8  2  0  0  0
  7 30  1  0  0  0
  8  9  1  0  0  0
  8 31  1  0  0  0
  9 10  2  0  0  0
  9 12  1  0  0  0
 10 11  1  0  0  0
 10 32  1  0  0  0
 11 33  1  0  0  0
 12 13  2  0  0  0
 12 14  2  0  0  0
 12 15  1  0  0  0
 15 34  1  0  0  0
 15 35  1  0  0  0
 15 36  1  0  0  0
 16 17  1  0  0  0
 16 21  2  0  0  0
 17 18  2  0  0  0
 17 37  1  0  0  0
 18 19  1  0  0  0
 18 38  1  0  0  0
 19 20  2  0  0  0
 19 22  1  0  0  0
 20 21  1  0  0  0
 20 39  1  0  0  0
 21 40  1  0  0  0
 22 23  1  0  0  0
 23 41  1  0  0  0
 23 42  1  0  0  0
 23 43  1  0  0  0
M  END
>  <Activity>
8.30103

>  <set>
1

>  <Min_dist>
999.9

>  <Avg_dist>
999.9

$$$$
5-1D
  Cerius2 12110214513D 1   1.00000                          
 
 42 44  0  0  0  0  0  0  0  0999 V2000
    2.5830    1.2747    0.0676 C   0  0  0  0  0  0
    1.4344    1.9627    0.0431 C   0  0  0  0  0  0
    1.7065    3.4492    0.0392 C   0  0  0  0  0  0
    3.1925    3.5803   -0.3643 C   0  0  0  0  0  0
    3.7649    2.2163    0.0831 C   0  0  0  0  0  0
    0.0918    1.3548    0.0223 C   0  0  0  0  0  0
   -0.8156    1.6214    1.0510 C   0  0  0  0  0  0
   -2.0703    1.0494    1.0245 C   0  0  0  0  0  0
   -2.4313    0.2129   -0.0170 C   0  0  0  0  0  0
   -1.5378   -0.0561   -1.0390 C   0  0  0  0  0  0
   -0.2818    0.5137   -1.0292 C   0  0  0  0  0  0
   -4.0363   -0.5138   -0.0419 S   0  0  0  0  0  0
   -3.8347   -1.6968   -0.8030 O   0  0  0  0  0  0
   -4.3861   -0.5520    1.3348 O   0  0  0  0  0  0
   -5.0274    0.7044   -0.9498 C   0  0  0  0  0  0
    2.6808   -0.1959    0.0836 C   0  0  0  0  0  0
    3.3462   -0.8665   -0.9460 C   0  0  0  0  0  0
    3.4341   -2.2427   -0.9241 C   0  0  0  0  0  0
    2.8654   -2.9593    0.1142 C   0  0  0  0  0  0
    2.2045   -2.3020    1.1370 C   0  0  0  0  0  0
    2.1136   -0.9258    1.1314 C   0  0  0  0  0  0
    2.9658   -4.4628    0.1308 C   0  0  0  0  0  0
    1.0699    3.9492   -0.6908 H   0  0  0  0  0  0
    1.5453    3.8667    1.0330 H   0  0  0  0  0  0
    3.2938    3.7109   -1.4417 H   0  0  0  0  0  0
    3.6714    4.3990    0.1728 H   0  0  0  0  0  0
    4.1777    2.2900    1.0892 H   0  0  0  0  0  0
    4.5286    1.8776   -0.6170 H   0  0  0  0  0  0
   -0.5349    2.2735    1.8649 H   0  0  0  0  0  0
   -2.7727    1.2545    1.8189 H   0  0  0  0  0  0
   -1.8262   -0.7104   -1.8483 H   0  0  0  0  0  0
    0.4145    0.3029   -1.8274 H   0  0  0  0  0  0
   -6.0559    0.3516   -1.0262 H   0  0  0  0  0  0
   -5.0083    1.6564   -0.4193 H   0  0  0  0  0  0
   -4.6136    0.8371   -1.9495 H   0  0  0  0  0  0
    3.7903   -0.3086   -1.7571 H   0  0  0  0  0  0
    3.9478   -2.7624   -1.7193 H   0  0  0  0  0  0
    1.7627   -2.8678    1.9439 H   0  0  0  0  0  0
    1.5978   -0.4142    1.9305 H   0  0  0  0  0  0
    3.8701   -4.7607    0.6615 H   0  0  0  0  0  0
    2.0943   -4.8796    0.6357 H   0  0  0  0  0  0
    3.0057   -4.8357   -0.8927 H   0  0  0  0  0  0
  1  2  2  0  0  0
  1  5  1  0  0  0
  1 16  1  0  0  0
  2  3  1  0  0  0
  2  6  1  0  0  0
  3  4  1  0  0  0
  3 23  1  0  0  0
  3 24  1  0  0  0
  4  5  1  0  0  0
  4 25  1  0  0  0
  4 26  1  0  0  0
  5 27  1  0  0  0
  5 28  1  0  0  0
  6  7  1  0  0  0
  6 11  2  0  0  0
  7  8  2  0  0  0
  7 29  1  0  0  0
  8  9  1  0  0  0
  8 30  1  0  0  0
  9 10  2  0  0  0
  9 12  1  0  0  0
 10 11  1  0  0  0
 10 31  1  0  0  0
 11 32  1  0  0  0
 12 13  2  0  0  0
 12 14  2  0  0  0
 12 15  1  0  0  0
 15 33  1  0  0  0
 15 34  1  0  0  0
 15 35  1  0  0  0
 16 17  1  0  0  0
 16 21  2  0  0  0
 17 18  2  0  0  0
 17 36  1  0  0  0
 18 19  1  0  0  0
 18 37  1  0  0  0
 19 20  2  0  0  0
 19 22  1  0  0  0
 20 21  1  0  0  0
 20 38  1  0  0  0
 21 39  1  0  0  0
 22 40  1  0  0  0
 22 41  1  0  0  0
 22 42  1  0  0  0
M  END
>  <Activity>
8.52288

>  <set>
1

>  <Min_dist>
999.9

>  <Avg_dist>
999.9

$$$$
5-1F
  Cerius2 12110214513D 1   1.00000                          
 
 42 44  0  0  0  0  0  0  0  0999 V2000
    1.0035    2.7537    0.0680 C   0  0  0  0  0  0
   -0.3324    2.8471    0.0563 C   0  0  0  0  0  0
   -0.7628    4.2957    0.0717 C   0  0  0  0  0  0
    0.4992    5.0898   -0.3345 C   0  0  0  0  0  0
    1.6311    4.1282    0.0926 C   0  0  0  0  0  0
   -1.2543    1.6974    0.0315 C   0  0  0  0  0  0
   -2.1749    1.5133    1.0664 C   0  0  0  0  0  0
   -3.0348    0.4354    1.0361 C   0  0  0  0  0  0
   -2.9872   -0.4627   -0.0155 C   0  0  0  0  0  0
   -2.0779   -0.2870   -1.0437 C   0  0  0  0  0  0
   -1.2160    0.7896   -1.0301 C   0  0  0  0  0  0
   -4.0894   -1.8371   -0.0453 S   0  0  0  0  0  0
   -3.3808   -2.7924   -0.8229 O   0  0  0  0  0  0
   -4.3718   -2.0443    1.3319 O   0  0  0  0  0  0
   -5.5326   -1.1902   -0.9336 C   0  0  0  0  0  0
    1.7567    1.4867    0.0638 C   0  0  0  0  0  0
    2.6444    1.2011   -0.9768 C   0  0  0  0  0  0
    3.3461    0.0138   -0.9737 C   0  0  0  0  0  0
    3.1726   -0.8937    0.0565 C   0  0  0  0  0  0
    2.2949   -0.6179    1.0901 C   0  0  0  0  0  0
    1.5907    0.5679    1.1035 C   0  0  0  0  0  0
    3.9431   -2.1888    0.0525 C   0  0  0  0  0  0
    3.6041   -2.9366    1.1853 F   0  0  0  0  0  0
    3.6253   -2.9169   -1.0991 F   0  0  0  0  0  0
    5.3150   -1.9154    0.0676 F   0  0  0  0  0  0
   -1.5632    4.4610   -0.6495 H   0  0  0  0  0  0
   -1.0868    4.5843    1.0716 H   0  0  0  0  0  0
    0.5208    5.2636   -1.4104 H   0  0  0  0  0  0
    0.5603    6.0308    0.2121 H   0  0  0  0  0  0
    1.9746    4.3701    1.0984 H   0  0  0  0  0  0
    2.4591    4.1796   -0.6143 H   0  0  0  0  0  0
   -2.2127    2.2130    1.8882 H   0  0  0  0  0  0
   -3.7469    0.2917    1.8354 H   0  0  0  0  0  0
   -2.0459   -0.9924   -1.8610 H   0  0  0  0  0  0
   -0.5068    0.9255   -1.8332 H   0  0  0  0  0  0
   -6.2906   -1.9697   -1.0116 H   0  0  0  0  0  0
   -5.9419   -0.3385   -0.3904 H   0  0  0  0  0  0
   -5.2326   -0.8739   -1.9326 H   0  0  0  0  0  0
    2.7805    1.9083   -1.7816 H   0  0  0  0  0  0
    4.0323   -0.2085   -1.7775 H   0  0  0  0  0  0
    2.1643   -1.3310    1.8907 H   0  0  0  0  0  0
    0.9062    0.7820    1.9110 H   0  0  0  0  0  0
  1  2  2  0  0  0
  1  5  1  0  0  0
  1 16  1  0  0  0
  2  3  1  0  0  0
  2  6  1  0  0  0
  3  4  1  0  0  0
  3 26  1  0  0  0
  3 27  1  0  0  0
  4  5  1  0  0  0
  4 28  1  0  0  0
  4 29  1  0  0  0
  5 30  1  0  0  0
  5 31  1  0  0  0
  6  7  1  0  0  0
  6 11  2  0  0  0
  7  8  2  0  0  0
  7 32  1  0  0  0
  8  9  1  0  0  0
  8 33  1  0  0  0
  9 10  2  0  0  0
  9 12  1  0  0  0
 10 11  1  0  0  0
 10 34  1  0  0  0
 11 35  1  0  0  0
 12 13  2  0  0  0
 12 14  2  0  0  0
 12 15  1  0  0  0
 15 36  1  0  0  0
 15 37  1  0  0  0
 15 38  1  0  0  0
 16 17  1  0  0  0
 16 21  2  0  0  0
 17 18  2  0  0  0
 17 39  1  0  0  0
 18 19  1  0  0  0
 18 40  1  0  0  0
 19 20  2  0  0  0
 19 22  1  0  0  0
 20 21  1  0  0  0
 20 41  1  0  0  0
 21 42  1  0  0  0
 22 23  1  0  0  0
 22 24  1  0  0  0
 22 25  1  0  0  0
M  END
>  <Activity>
6.06298

>  <set>
1

>  <Min_dist>
999.9

>  <Avg_dist>
999.9

$$$$
5-1I
  Cerius2 12110214513D 1   1.00000                          
 
 43 45  0  0  0  0  0  0  0  0999 V2000
    2.0458    1.9414    0.0584 C   0  0  0  0  0  0
    0.7864    2.3962    0.0784 C   0  0  0  0  0  0
    0.7686    3.9063    0.1335 C   0  0  0  0  0  0
    2.1931    4.3361   -0.2842 C   0  0  0  0  0  0
    3.0255    3.0913    0.0975 C   0  0  0  0  0  0
   -0.4151    1.5429    0.0503 C   0  0  0  0  0  0
   -1.3345    1.5900    1.1015 C   0  0  0  0  0  0
   -2.4567    0.7889    1.0680 C   0  0  0  0  0  0
   -2.6730   -0.0604   -0.0029 C   0  0  0  0  0  0
   -1.7667   -0.1127   -1.0473 C   0  0  0  0  0  0
   -0.6431    0.6870   -1.0305 C   0  0  0  0  0  0
   -4.1093   -1.0805   -0.0366 S   0  0  0  0  0  0
   -3.7012   -2.1722   -0.8495 O   0  0  0  0  0  0
   -4.4158   -1.2386    1.3419 O   0  0  0  0  0  0
   -5.3346   -0.0413   -0.8789 C   0  0  0  0  0  0
    2.4237    0.5176    0.0111 C   0  0  0  0  0  0
    3.1830    0.0278   -1.0548 C   0  0  0  0  0  0
    3.5333   -1.3057   -1.0921 C   0  0  0  0  0  0
    3.1347   -2.1579   -0.0773 C   0  0  0  0  0  0
    2.3822   -1.6801    0.9811 C   0  0  0  0  0  0
    2.0293   -0.3479    1.0348 C   0  0  0  0  0  0
    3.5215   -3.6136   -0.1254 C   0  0  0  0  0  0
    4.7745   -3.7956    0.5371 O   0  0  0  0  0  0
    0.0326    4.3025   -0.5661 H   0  0  0  0  0  0
    0.5517    4.2462    1.1462 H   0  0  0  0  0  0
    2.2444    4.5255   -1.3564 H   0  0  0  0  0  0
    2.5177    5.2102    0.2804 H   0  0  0  0  0  0
    3.4380    3.2040    1.1002 H   0  0  0  0  0  0
    3.8248    2.9332   -0.6265 H   0  0  0  0  0  0
   -1.1666    2.2518    1.9383 H   0  0  0  0  0  0
   -3.1682    0.8242    1.8797 H   0  0  0  0  0  0
   -1.9416   -0.7785   -1.8795 H   0  0  0  0  0  0
    0.0634    0.6451   -1.8463 H   0  0  0  0  0  0
   -6.2779   -0.5820   -0.9561 H   0  0  0  0  0  0
   -5.4867    0.8753   -0.3091 H   0  0  0  0  0  0
   -4.9753    0.2071   -1.8775 H   0  0  0  0  0  0
    3.4945    0.6917   -1.8477 H   0  0  0  0  0  0
    4.1199   -1.6858   -1.9154 H   0  0  0  0  0  0
    2.0743   -2.3511    1.7694 H   0  0  0  0  0  0
    1.4423    0.0238    1.8617 H   0  0  0  0  0  0
    2.7570   -4.2094    0.3731 H   0  0  0  0  0  0
    3.6101   -3.9319   -1.1642 H   0  0  0  0  0  0
    4.9846   -4.7380    0.4836 H   0  0  0  0  0  0
  1  2  2  0  0  0
  1  5  1  0  0  0
  1 16  1  0  0  0
  2  3  1  0  0  0
  2  6  1  0  0  0
  3  4  1  0  0  0
  3 24  1  0  0  0
  3 25  1  0  0  0
  4  5  1  0  0  0
  4 26  1  0  0  0
  4 27  1  0  0  0
  5 28  1  0  0  0
  5 29  1  0  0  0
  6  7  1  0  0  0
  6 11  2  0  0  0
  7  8  2  0  0  0
  7 30  1  0  0  0
  8  9  1  0  0  0
  8 31  1  0  0  0
  9 10  2  0  0  0
  9 12  1  0  0  0
 10 11  1  0  0  0
 10 32  1  0  0  0
 11 33  1  0  0  0
 12 13  2  0  0  0
 12 14  2  0  0  0
 12 15  1  0  0  0
 15 34  1  0  0  0
 15 35  1  0  0  0
 15 36  1  0  0  0
 16 17  1  0  0  0
 16 21  2  0  0  0
 17 18  2  0  0  0
 17 37  1  0  0  0
 18 19  1  0  0  0
 18 38  1  0  0  0
 19 20  2  0  0  0
 19 22  1  0  0  0
 20 21  1  0  0  0
 20 39  1  0  0  0
 21 40  1  0  0  0
 22 23  1  0  0  0
 22 41  1  0  0  0
 22 42  1  0  0  0
 23 43  1  0  0  0
M  END
>  <Activity>
5.49485

>  <set>
1

>  <Min_dist>
999.9

>  <Avg_dist>
999.9

$$$$
5-1K
  Cerius2 12110214513D 1   1.00000                          
 
 43 45  0  0  0  0  0  0  0  0999 V2000
    1.7449    2.3383    0.0923 C   0  0  0  0  0  0
    0.4458    2.6646    0.1292 C   0  0  0  0  0  0
    0.2784    4.1629    0.2328 C   0  0  0  0  0  0
    1.6509    4.7455   -0.1735 C   0  0  0  0  0  0
    2.6052    3.5786    0.1667 C   0  0  0  0  0  0
   -0.6647    1.6974    0.0761 C   0  0  0  0  0  0
   -1.5791    1.6195    1.1301 C   0  0  0  0  0  0
   -2.6161    0.7121    1.0732 C   0  0  0  0  0  0
   -2.7525   -0.1200   -0.0240 C   0  0  0  0  0  0
   -1.8507   -0.0490   -1.0713 C   0  0  0  0  0  0
   -0.8120    0.8574   -1.0310 C   0  0  0  0  0  0
   -4.0806   -1.2761   -0.0877 S   0  0  0  0  0  0
   -3.5704   -2.2956   -0.9360 O   0  0  0  0  0  0
   -4.3630   -1.5075    1.2856 O   0  0  0  0  0  0
   -5.4072   -0.3376   -0.8939 C   0  0  0  0  0  0
    2.2623    0.9626   -0.0014 C   0  0  0  0  0  0
    3.0619    0.5867   -1.0854 C   0  0  0  0  0  0
    3.5438   -0.7004   -1.1697 C   0  0  0  0  0  0
    3.2360   -1.6268   -0.1778 C   0  0  0  0  0  0
    2.4402   -1.2565    0.9022 C   0  0  0  0  0  0
    1.9599    0.0305    0.9963 C   0  0  0  0  0  0
    3.8550   -3.2727   -0.2899 S   0  0  0  0  0  0
    3.1487   -3.9787    1.2244 C   0  0  0  0  0  0
   -0.4969    4.5061   -0.4522 H   0  0  0  0  0  0
    0.0339    4.4472    1.2563 H   0  0  0  0  0  0
    1.6777    4.9729   -1.2392 H   0  0  0  0  0  0
    1.8896    5.6293    0.4182 H   0  0  0  0  0  0
    3.0092    3.6999    1.1718 H   0  0  0  0  0  0
    3.4127    3.5242   -0.5633 H   0  0  0  0  0  0
   -1.4737    2.2681    1.9873 H   0  0  0  0  0  0
   -3.3233    0.6506    1.8872 H   0  0  0  0  0  0
   -1.9632   -0.7018   -1.9242 H   0  0  0  0  0  0
   -0.1091    0.9120   -1.8492 H   0  0  0  0  0  0
   -6.2926   -0.9665   -0.9867 H   0  0  0  0  0  0
   -5.6467    0.5409   -0.2947 H   0  0  0  0  0  0
   -5.0794   -0.0232   -1.8848 H   0  0  0  0  0  0
    3.3009    1.3051   -1.8557 H   0  0  0  0  0  0
    4.1611   -0.9914   -2.0067 H   0  0  0  0  0  0
    2.2031   -1.9782    1.6699 H   0  0  0  0  0  0
    1.3424    0.3172    1.8347 H   0  0  0  0  0  0
    3.4443   -5.0243    1.3101 H   0  0  0  0  0  0
    3.5158   -3.4254    2.0888 H   0  0  0  0  0  0
    2.0615   -3.9106    1.1844 H   0  0  0  0  0  0
  1  2  2  0  0  0
  1  5  1  0  0  0
  1 16  1  0  0  0
  2  3  1  0  0  0
  2  6  1  0  0  0
  3  4  1  0  0  0
  3 24  1  0  0  0
  3 25  1  0  0  0
  4  5  1  0  0  0
  4 26  1  0  0  0
  4 27  1  0  0  0
  5 28  1  0  0  0
  5 29  1  0  0  0
  6  7  1  0  0  0
  6 11  2  0  0  0
  7  8  2  0  0  0
  7 30  1  0  0  0
  8  9  1  0  0  0
  8 31  1  0  0  0
  9 10  2  0  0  0
  9 12  1  0  0  0
 10 11  1  0  0  0
 10 32  1  0  0  0
 11 33  1  0  0  0
 12 13  2  0  0  0
 12 14  2  0  0  0
 12 15  1  0  0  0
 15 34  1  0  0  0
 15 35  1  0  0  0
 15 36  1  0  0  0
 16 17  1  0  0  0
 16 21  2  0  0  0
 17 18  2  0  0  0
 17 37  1  0  0  0
 18 19  1  0  0  0
 18 38  1  0  0  0
 19 20  2  0  0  0
 19 22  1  0  0  0
 20 21  1  0  0  0
 20 39  1  0  0  0
 21 40  1  0  0  0
 22 23  1  0  0  0
 23 41  1  0  0  0
 23 42  1  0  0  0
 23 43  1  0  0  0
M  END
>  <Activity>
6.65561

>  <set>
1

>  <Min_dist>
999.9

>  <Avg_dist>
999.9

$$$$
5-1L
  Cerius2 12110214513D 1   1.00000                          
 
 42 44  0  0  0  0  0  0  0  0999 V2000
    2.3997    1.3756   -0.1717 C   0  0  0  0  0  0
    1.2352    2.0366   -0.1401 C   0  0  0  0  0  0
    1.4719    3.5290   -0.1601 C   0  0  0  0  0  0
    2.9325    3.6935   -0.6375 C   0  0  0  0  0  0
    3.5584    2.3446   -0.2168 C   0  0  0  0  0  0
   -0.0920    1.3975   -0.0931 C   0  0  0  0  0  0
   -0.9532    1.6456    0.9791 C   0  0  0  0  0  0
   -2.1937    1.0439    1.0163 C   0  0  0  0  0  0
   -2.5861    0.1960   -0.0045 C   0  0  0  0  0  0
   -1.7385   -0.0548   -1.0692 C   0  0  0  0  0  0
   -0.4976    0.5450   -1.1233 C   0  0  0  0  0  0
   -4.1725   -0.5685    0.0519 S   0  0  0  0  0  0
   -3.9811   -1.7486   -0.7161 O   0  0  0  0  0  0
   -4.4524   -0.6109    1.4445 O   0  0  0  0  0  0
   -5.2364    0.6231   -0.8077 C   0  0  0  0  0  0
    2.5326   -0.0921   -0.1579 C   0  0  0  0  0  0
    2.6373   -0.7758    1.0566 C   0  0  0  0  0  0
    2.7615   -2.1487    1.0629 C   0  0  0  0  0  0
    2.7831   -2.8511   -0.1322 C   0  0  0  0  0  0
    2.6798   -2.1788   -1.3397 C   0  0  0  0  0  0
    2.5488   -0.8062   -1.3589 C   0  0  0  0  0  0
    2.9060   -4.1964   -0.1196 F   0  0  0  0  0  0
    2.6149   -0.0137    2.3565 C   0  0  0  0  0  0
    0.7882    4.0119   -0.8583 H   0  0  0  0  0  0
    1.3507    3.9455    0.8398 H   0  0  0  0  0  0
    2.9768    3.8233   -1.7188 H   0  0  0  0  0  0
    3.4182    4.5248   -0.1264 H   0  0  0  0  0  0
    4.0189    2.4310    0.7673 H   0  0  0  0  0  0
    4.2940    2.0219   -0.9535 H   0  0  0  0  0  0
   -0.6480    2.3065    1.7768 H   0  0  0  0  0  0
   -2.8603    1.2347    1.8443 H   0  0  0  0  0  0
   -2.0511   -0.7182   -1.8620 H   0  0  0  0  0  0
    0.1627    0.3486   -1.9550 H   0  0  0  0  0  0
   -6.2587    0.2459   -0.8321 H   0  0  0  0  0  0
   -5.2135    1.5769   -0.2805 H   0  0  0  0  0  0
   -4.8761    0.7626   -1.8269 H   0  0  0  0  0  0
    2.8424   -2.6782    2.0007 H   0  0  0  0  0  0
    2.6976   -2.7314   -2.2674 H   0  0  0  0  0  0
    2.4680   -0.2834   -2.3004 H   0  0  0  0  0  0
    1.5866    0.0780    2.7062 H   0  0  0  0  0  0
    3.2056   -0.5476    3.1009 H   0  0  0  0  0  0
    3.0363    0.9797    2.2026 H   0  0  0  0  0  0
  1  2  2  0  0  0
  1  5  1  0  0  0
  1 16  1  0  0  0
  2  3  1  0  0  0
  2  6  1  0  0  0
  3  4  1  0  0  0
  3 24  1  0  0  0
  3 25  1  0  0  0
  4  5  1  0  0  0
  4 26  1  0  0  0
  4 27  1  0  0  0
  5 28  1  0  0  0
  5 29  1  0  0  0
  6  7  1  0  0  0
  6 11  2  0  0  0
  7  8  2  0  0  0
  7 30  1  0  0  0
  8  9  1  0  0  0
  8 31  1  0  0  0
  9 10  2  0  0  0
  9 12  1  0  0  0
 10 11  1  0  0  0
 10 32  1  0  0  0
 11 33  1  0  0  0
 12 13  2  0  0  0
 12 14  2  0  0  0
 12 15  1  0  0  0
 15 34  1  0  0  0
 15 35  1  0  0  0
 15 36  1  0  0  0
 16 17  1  0  0  0
 16 21  2  0  0  0
 17 18  2  0  0  0
 17 23  1  0  0  0
 18 19  1  0  0  0
 18 37  1  0  0  0
 19 20  2  0  0  0
 19 22  1  0  0  0
 20 21  1  0  0  0
 20 38  1  0  0  0
 21 39  1  0  0  0
 23 40  1  0  0  0
 23 41  1  0  0  0
 23 42  1  0  0  0
M  END
>  <Activity>
7.12494

>  <set>
1

>  <Min_dist>
999.9

>  <Avg_dist>
999.9

$$$$
5-7A
  Cerius2 12110214513D 1   1.00000                          
 
 45 47  0  0  0  0  0  0  0  0999 V2000
    2.4150    0.4069    0.1663 C   0  0  0  0  0  0
    1.4554    1.3398    0.2190 C   0  0  0  0  0  0
    2.0621    2.7178    0.3478 C   0  0  0  0  0  0
    3.5421    2.5405   -0.0602 C   0  0  0  0  0  0
    3.7814    1.0463    0.2535 C   0  0  0  0  0  0
    3.7363    2.8244   -1.5510 C   0  0  0  0  0  0
    4.4535    3.4303    0.7874 C   0  0  0  0  0  0
    0.0093    1.0612    0.1588 C   0  0  0  0  0  0
   -0.5906    0.2515    1.1268 C   0  0  0  0  0  0
   -1.9443   -0.0048    1.0640 C   0  0  0  0  0  0
   -2.7080    0.5373    0.0453 C   0  0  0  0  0  0
   -2.1208    1.3397   -0.9171 C   0  0  0  0  0  0
   -0.7694    1.6102   -0.8634 C   0  0  0  0  0  0
   -4.4367    0.2038   -0.0270 S   0  0  0  0  0  0
   -4.7276    0.3476   -1.4104 O   0  0  0  0  0  0
   -4.5447   -1.0455    0.6415 O   0  0  0  0  0  0
   -5.1586    1.5500    0.9514 C   0  0  0  0  0  0
    2.1719   -1.0417    0.0466 C   0  0  0  0  0  0
    1.4837   -1.5486   -1.0591 C   0  0  0  0  0  0
    1.2594   -2.9048   -1.1654 C   0  0  0  0  0  0
    1.7146   -3.7649   -0.1783 C   0  0  0  0  0  0
    2.3979   -3.2682    0.9207 C   0  0  0  0  0  0
    2.6338   -1.9147    1.0353 C   0  0  0  0  0  0
    1.4910   -5.0928   -0.2877 F   0  0  0  0  0  0
    1.5642    3.4156   -0.3255 H   0  0  0  0  0  0
    1.9921    3.0681    1.3776 H   0  0  0  0  0  0
    4.1909    0.9305    1.2570 H   0  0  0  0  0  0
    4.4533    0.6070   -0.4840 H   0  0  0  0  0  0
    4.7863    2.6925   -1.8122 H   0  0  0  0  0  0
    3.1273    2.1342   -2.1347 H   0  0  0  0  0  0
    3.4338    3.8488   -1.7682 H   0  0  0  0  0  0
    5.4894    3.2865    0.4802 H   0  0  0  0  0  0
    4.1746    4.4746    0.6470 H   0  0  0  0  0  0
    4.3460    3.1636    1.8388 H   0  0  0  0  0  0
    0.0044   -0.1728    1.9220 H   0  0  0  0  0  0
   -2.4093   -0.6304    1.8115 H   0  0  0  0  0  0
   -2.7230    1.7588   -1.7096 H   0  0  0  0  0  0
   -0.3125    2.2369   -1.6150 H   0  0  0  0  0  0
   -6.2429    1.4414    0.9743 H   0  0  0  0  0  0
   -4.7678    1.5102    1.9682 H   0  0  0  0  0  0
   -4.8988    2.5073    0.4995 H   0  0  0  0  0  0
    1.1280   -0.8793   -1.8284 H   0  0  0  0  0  0
    0.7277   -3.2977   -2.0194 H   0  0  0  0  0  0
    2.7498   -3.9434    1.6867 H   0  0  0  0  0  0
    3.1663   -1.5289    1.8921 H   0  0  0  0  0  0
  1  2  2  0  0  0
  1  5  1  0  0  0
  1 18  1  0  0  0
  2  3  1  0  0  0
  2  8  1  0  0  0
  3  4  1  0  0  0
  3 25  1  0  0  0
  3 26  1  0  0  0
  4  5  1  0  0  0
  4  6  1  0  0  0
  4  7  1  0  0  0
  5 27  1  0  0  0
  5 28  1  0  0  0
  6 29  1  0  0  0
  6 30  1  0  0  0
  6 31  1  0  0  0
  7 32  1  0  0  0
  7 33  1  0  0  0
  7 34  1  0  0  0
  8  9  1  0  0  0
  8 13  2  0  0  0
  9 10  2  0  0  0
  9 35  1  0  0  0
 10 11  1  0  0  0
 10 36  1  0  0  0
 11 12  2  0  0  0
 11 14  1  0  0  0
 12 13  1  0  0  0
 12 37  1  0  0  0
 13 38  1  0  0  0
 14 15  2  0  0  0
 14 16  2  0  0  0
 14 17  1  0  0  0
 17 39  1  0  0  0
 17 40  1  0  0  0
 17 41  1  0  0  0
 18 19  1  0  0  0
 18 23  2  0  0  0
 19 20  2  0  0  0
 19 42  1  0  0  0
 20 21  1  0  0  0
 20 43  1  0  0  0
 21 22  2  0  0  0
 21 24  1  0  0  0
 22 23  1  0  0  0
 22 44  1  0  0  0
 23 45  1  0  0  0
M  END
>  <Activity>
7.82391

>  <set>
1

>  <Min_dist>
999.9

>  <Avg_dist>
999.9

$$$$
5-7C
  Cerius2 12110214513D 1   1.00000                          
 
 45 47  0  0  0  0  0  0  0  0999 V2000
    1.1289    0.9033   -0.2945 C   0  0  0  0  0  0
    0.6093   -0.3296   -0.3545 C   0  0  0  0  0  0
    1.7029   -1.3581   -0.5276 C   0  0  0  0  0  0
    3.0055   -0.6226   -0.1398 C   0  0  0  0  0  0
    2.6340    0.8511   -0.4201 C   0  0  0  0  0  0
    3.3324   -0.8323    1.3401 C   0  0  0  0  0  0
    4.5146   -0.1548    1.6571 F   0  0  0  0  0  0
    2.2856   -0.3354    2.1239 F   0  0  0  0  0  0
    3.4959   -2.1986    1.5924 F   0  0  0  0  0  0
    4.1709   -1.0707   -1.0242 C   0  0  0  0  0  0
    5.3319   -0.3871   -0.6474 F   0  0  0  0  0  0
    4.3697   -2.4470   -0.8715 F   0  0  0  0  0  0
    3.8765   -0.7876   -2.3622 F   0  0  0  0  0  0
   -0.8286   -0.6401   -0.2636 C   0  0  0  0  0  0
   -1.7212   -0.1139   -1.2012 C   0  0  0  0  0  0
   -3.0654   -0.4088   -1.1097 C   0  0  0  0  0  0
   -3.5308   -1.2232   -0.0923 C   0  0  0  0  0  0
   -2.6529   -1.7476    0.8400 C   0  0  0  0  0  0
   -1.3051   -1.4668    0.7573 C   0  0  0  0  0  0
   -5.2500   -1.5939    0.0168 S   0  0  0  0  0  0
   -5.4270   -1.8629    1.4008 O   0  0  0  0  0  0
   -5.8543   -0.4757   -0.6185 O   0  0  0  0  0  0
   -5.4124   -3.0990   -0.9828 C   0  0  0  0  0  0
    0.3421    2.1392   -0.1347 C   0  0  0  0  0  0
   -0.4617    2.3181    0.9944 C   0  0  0  0  0  0
   -1.1954    3.4764    1.1381 C   0  0  0  0  0  0
   -1.1374    4.4622    0.1654 C   0  0  0  0  0  0
   -0.3420    4.2906   -0.9568 C   0  0  0  0  0  0
    0.4013    3.1394   -1.1089 C   0  0  0  0  0  0
   -1.8594    5.5947    0.3114 F   0  0  0  0  0  0
    1.5344   -2.2061    0.1363 H   0  0  0  0  0  0
    1.7498   -1.6909   -1.5645 H   0  0  0  0  0  0
    2.9405    1.1344   -1.4270 H   0  0  0  0  0  0
    3.0988    1.5060    0.3169 H   0  0  0  0  0  0
   -1.3594    0.5224   -1.9952 H   0  0  0  0  0  0
   -3.7564   -0.0028   -1.8336 H   0  0  0  0  0  0
   -3.0235   -2.3819    1.6317 H   0  0  0  0  0  0
   -0.6211   -1.8770    1.4854 H   0  0  0  0  0  0
   -6.4531   -3.4230   -0.9851 H   0  0  0  0  0  0
   -5.0938   -2.8927   -2.0045 H   0  0  0  0  0  0
   -4.7879   -3.8856   -0.5592 H   0  0  0  0  0  0
   -0.5083    1.5504    1.7526 H   0  0  0  0  0  0
   -1.8170    3.6158    2.0102 H   0  0  0  0  0  0
   -0.3011    5.0621   -1.7115 H   0  0  0  0  0  0
    1.0206    3.0068   -1.9837 H   0  0  0  0  0  0
  1  2  2  0  0  0
  1  5  1  0  0  0
  1 24  1  0  0  0
  2  3  1  0  0  0
  2 14  1  0  0  0
  3  4  1  0  0  0
  3 31  1  0  0  0
  3 32  1  0  0  0
  4  5  1  0  0  0
  4  6  1  0  0  0
  4 10  1  0  0  0
  5 33  1  0  0  0
  5 34  1  0  0  0
  6  7  1  0  0  0
  6  8  1  0  0  0
  6  9  1  0  0  0
 10 11  1  0  0  0
 10 12  1  0  0  0
 10 13  1  0  0  0
 14 15  1  0  0  0
 14 19  2  0  0  0
 15 16  2  0  0  0
 15 35  1  0  0  0
 16 17  1  0  0  0
 16 36  1  0  0  0
 17 18  2  0  0  0
 17 20  1  0  0  0
 18 19  1  0  0  0
 18 37  1  0  0  0
 19 38  1  0  0  0
 20 21  2  0  0  0
 20 22  2  0  0  0
 20 23  1  0  0  0
 23 39  1  0  0  0
 23 40  1  0  0  0
 23 41  1  0  0  0
 24 25  1  0  0  0
 24 29  2  0  0  0
 25 26  2  0  0  0
 25 42  1  0  0  0
 26 27  1  0  0  0
 26 43  1  0  0  0
 27 28  2  0  0  0
 27 30  1  0  0  0
 28 29  1  0  0  0
 28 44  1  0  0  0
 29 45  1  0  0  0
M  END
>  <Activity>
7.17393

>  <set>
1

>  <Min_dist>
999.9

>  <Avg_dist>
999.9

$$$$
6-7B
  Cerius2 12110214513D 1   1.00000                          
 
 39 41  0  0  0  0  0  0  0  0999 V2000
    2.1054    1.7783    0.1548 C   0  0  0  0  0  0
    0.8790    2.3033    0.0363 C   0  0  0  0  0  0
    0.9541    3.8093   -0.0633 C   0  0  0  0  0  0
    2.4279    4.1114   -0.4167 C   0  0  0  0  0  0
    3.1517    2.8687    0.1492 C   0  0  0  0  0  0
   -0.3699    1.5211    0.0066 C   0  0  0  0  0  0
   -1.3529    1.7308    0.9773 C   0  0  0  0  0  0
   -2.5189    0.9950    0.9431 C   0  0  0  0  0  0
   -2.7167    0.0511   -0.0492 C   0  0  0  0  0  0
   -1.7475   -0.1624   -1.0136 C   0  0  0  0  0  0
   -0.5790    0.5702   -0.9958 C   0  0  0  0  0  0
   -4.2096   -0.8840   -0.0847 S   0  0  0  0  0  0
   -3.8184   -2.0768   -0.7507 O   0  0  0  0  0  0
   -4.6174   -0.8782    1.2765 O   0  0  0  0  0  0
   -5.3068    0.1280   -1.1156 C   0  0  0  0  0  0
    2.3940    0.3385    0.2798 C   0  0  0  0  0  0
    3.1906   -0.3025   -0.6730 C   0  0  0  0  0  0
    3.4574   -1.6513   -0.5499 C   0  0  0  0  0  0
    2.9359   -2.3695    0.5178 C   0  0  0  0  0  0
    2.1459   -1.7379    1.4643 C   0  0  0  0  0  0
    1.8770   -0.3896    1.3544 C   0  0  0  0  0  0
    3.1995   -3.6894    0.6337 F   0  0  0  0  0  0
    4.2268   -2.2734   -1.4698 F   0  0  0  0  0  0
    0.2936    4.1705   -0.8515 H   0  0  0  0  0  0
    0.6919    4.2659    0.8911 H   0  0  0  0  0  0
    2.5630    4.1833   -1.4959 H   0  0  0  0  0  0
    2.7691    5.0204    0.0787 H   0  0  0  0  0  0
    3.5023    3.0631    1.1628 H   0  0  0  0  0  0
    3.9861    2.5902   -0.4945 H   0  0  0  0  0  0
   -1.1998    2.4669    1.7526 H   0  0  0  0  0  0
   -3.2795    1.1558    1.6929 H   0  0  0  0  0  0
   -1.9085   -0.9010   -1.7849 H   0  0  0  0  0  0
    0.1766    0.4026   -1.7491 H   0  0  0  0  0  0
   -6.2753   -0.3635   -1.2067 H   0  0  0  0  0  0
   -5.4380    1.1068   -0.6542 H   0  0  0  0  0  0
   -4.8662    0.2489   -2.1052 H   0  0  0  0  0  0
    3.5961    0.2559   -1.5038 H   0  0  0  0  0  0
    1.7427   -2.3019    2.2924 H   0  0  0  0  0  0
    1.2608    0.1009    2.0934 H   0  0  0  0  0  0
  1  2  2  0  0  0
  1  5  1  0  0  0
  1 16  1  0  0  0
  2  3  1  0  0  0
  2  6  1  0  0  0
  3  4  1  0  0  0
  3 24  1  0  0  0
  3 25  1  0  0  0
  4  5  1  0  0  0
  4 26  1  0  0  0
  4 27  1  0  0  0
  5 28  1  0  0  0
  5 29  1  0  0  0
  6  7  1  0  0  0
  6 11  2  0  0  0
  7  8  2  0  0  0
  7 30  1  0  0  0
  8  9  1  0  0  0
  8 31  1  0  0  0
  9 10  2  0  0  0
  9 12  1  0  0  0
 10 11  1  0  0  0
 10 32  1  0  0  0
 11 33  1  0  0  0
 12 13  2  0  0  0
 12 14  2  0  0  0
 12 15  1  0  0  0
 15 34  1  0  0  0
 15 35  1  0  0  0
 15 36  1  0  0  0
 16 17  1  0  0  0
 16 21  2  0  0  0
 17 18  2  0  0  0
 17 37  1  0  0  0
 18 19  1  0  0  0
 18 23  1  0  0  0
 19 20  2  0  0  0
 19 22  1  0  0  0
 20 21  1  0  0  0
 20 38  1  0  0  0
 21 39  1  0  0  0
M  END
>  <Activity>
7.29243

>  <set>
1

>  <Min_dist>
999.9

>  <Avg_dist>
999.9

$$$$
6-7I
  Cerius2 12110214513D 1   1.00000                          
 
 43 45  0  0  0  0  0  0  0  0999 V2000
    1.8851    2.0565    0.1972 C   0  0  0  0  0  0
    0.6220    2.4993    0.1424 C   0  0  0  0  0  0
    0.5886    4.0100    0.1621 C   0  0  0  0  0  0
    2.0288    4.4443   -0.1920 C   0  0  0  0  0  0
    2.8514    3.2166    0.2601 C   0  0  0  0  0  0
   -0.5689    1.6339    0.0724 C   0  0  0  0  0  0
   -1.5414    1.6955    1.0739 C   0  0  0  0  0  0
   -2.6532    0.8826    1.0016 C   0  0  0  0  0  0
   -2.8069    0.0075   -0.0593 C   0  0  0  0  0  0
   -1.8479   -0.0591   -1.0548 C   0  0  0  0  0  0
   -0.7337    0.7519   -0.9989 C   0  0  0  0  0  0
   -4.2304   -1.0276   -0.1428 S   0  0  0  0  0  0
   -3.7716   -2.1331   -0.9087 O   0  0  0  0  0  0
   -4.6055   -1.1580    1.2216 O   0  0  0  0  0  0
   -5.4203   -0.0200   -1.0698 C   0  0  0  0  0  0
    2.2773    0.6362    0.2018 C   0  0  0  0  0  0
    3.0951    0.1314   -0.8137 C   0  0  0  0  0  0
    3.4593   -1.1991   -0.8048 C   0  0  0  0  0  0
    3.0134   -2.0370    0.2124 C   0  0  0  0  0  0
    2.2010   -1.5388    1.2215 C   0  0  0  0  0  0
    1.8376   -0.2088    1.2241 C   0  0  0  0  0  0
    3.3738   -3.3473    0.2176 O   0  0  0  0  0  0
    2.7689   -3.9375    1.3699 C   0  0  0  0  0  0
    4.2495   -1.6890   -1.7850 F   0  0  0  0  0  0
   -0.1139    4.3833   -0.5830 H   0  0  0  0  0  0
    0.3171    4.3703    1.1543 H   0  0  0  0  0  0
    2.1334    4.6100   -1.2643 H   0  0  0  0  0  0
    2.3165    5.3339    0.3682 H   0  0  0  0  0  0
    3.2108    3.3558    1.2797 H   0  0  0  0  0  0
    3.6882    3.0503   -0.4183 H   0  0  0  0  0  0
   -1.4226    2.3778    1.9026 H   0  0  0  0  0  0
   -3.4056    0.9288    1.7751 H   0  0  0  0  0  0
   -1.9746   -0.7444   -1.8798 H   0  0  0  0  0  0
    0.0137    0.6991   -1.7767 H   0  0  0  0  0  0
   -6.3535   -0.5717   -1.1826 H   0  0  0  0  0  0
   -5.6096    0.9076   -0.5295 H   0  0  0  0  0  0
   -5.0127    0.2097   -2.0543 H   0  0  0  0  0  0
    3.4407    0.7817   -1.6037 H   0  0  0  0  0  0
    1.8570   -2.1931    2.0088 H   0  0  0  0  0  0
    1.2057    0.1772    2.0103 H   0  0  0  0  0  0
    3.0312   -4.9944    1.4169 H   0  0  0  0  0  0
    3.1283   -3.4337    2.2672 H   0  0  0  0  0  0
    1.6857   -3.8345    1.3046 H   0  0  0  0  0  0
  1  2  2  0  0  0
  1  5  1  0  0  0
  1 16  1  0  0  0
  2  3  1  0  0  0
  2  6  1  0  0  0
  3  4  1  0  0  0
  3 25  1  0  0  0
  3 26  1  0  0  0
  4  5  1  0  0  0
  4 27  1  0  0  0
  4 28  1  0  0  0
  5 29  1  0  0  0
  5 30  1  0  0  0
  6  7  1  0  0  0
  6 11  2  0  0  0
  7  8  2  0  0  0
  7 31  1  0  0  0
  8  9  1  0  0  0
  8 32  1  0  0  0
  9 10  2  0  0  0
  9 12  1  0  0  0
 10 11  1  0  0  0
 10 33  1  0  0  0
 11 34  1  0  0  0
 12 13  2  0  0  0
 12 14  2  0  0  0
 12 15  1  0  0  0
 15 35  1  0  0  0
 15 36  1  0  0  0
 15 37  1  0  0  0
 16 17  1  0  0  0
 16 21  2  0  0  0
 17 18  2  0  0  0
 17 38  1  0  0  0
 18 19  1  0  0  0
 18 24  1  0  0  0
 19 20  2  0  0  0
 19 22  1  0  0  0
 20 21  1  0  0  0
 20 39  1  0  0  0
 21 40  1  0  0  0
 22 23  1  0  0  0
 23 41  1  0  0  0
 23 42  1  0  0  0
 23 43  1  0  0  0
M  END
>  <Activity>
6.92082

>  <set>
1

>  <Min_dist>
999.9

>  <Avg_dist>
999.9

$$$$
6-7L
  Cerius2 12110214513D 1   1.00000                          
 
 42 45  0  0  0  0  0  0  0  0999 V2000
    1.7861    2.0758    0.1287 C   0  0  0  0  0  0
    0.5150    2.4752   -0.0099 C   0  0  0  0  0  0
    0.4439    3.9782   -0.1505 C   0  0  0  0  0  0
    1.8838    4.4129   -0.5055 C   0  0  0  0  0  0
    2.7211    3.2626    0.0977 C   0  0  0  0  0  0
   -0.6515    1.5746   -0.0233 C   0  0  0  0  0  0
   -1.6572    1.7139    0.9369 C   0  0  0  0  0  0
   -2.7458    0.8673    0.9180 C   0  0  0  0  0  0
   -2.8436   -0.1182   -0.0485 C   0  0  0  0  0  0
   -1.8514   -0.2624   -1.0023 C   0  0  0  0  0  0
   -0.7600    0.5808   -0.9998 C   0  0  0  0  0  0
   -4.2382   -1.1950   -0.0645 S   0  0  0  0  0  0
   -3.7281   -2.3617   -0.6953 O   0  0  0  0  0  0
   -4.6543   -1.1918    1.2942 O   0  0  0  0  0  0
   -5.4213   -0.3232   -1.1280 C   0  0  0  0  0  0
    2.2125    0.6752    0.2944 C   0  0  0  0  0  0
    3.0749    0.0900   -0.6373 C   0  0  0  0  0  0
    3.4721   -1.2237   -0.4778 C   0  0  0  0  0  0
    3.0124   -1.9639    0.6118 C   0  0  0  0  0  0
    2.1563   -1.3828    1.5358 C   0  0  0  0  0  0
    1.7608   -0.0702    1.3865 C   0  0  0  0  0  0
    3.5448   -3.2188    0.5406 O   0  0  0  0  0  0
    4.6540   -3.1153   -0.3713 C   0  0  0  0  0  0
    4.2915   -2.0168   -1.2286 O   0  0  0  0  0  0
   -0.2430    4.2520   -0.9513 H   0  0  0  0  0  0
    0.1316    4.4326    0.7898 H   0  0  0  0  0  0
    2.0190    4.4685   -1.5856 H   0  0  0  0  0  0
    2.1312    5.3639   -0.0337 H   0  0  0  0  0  0
    3.0437    3.5175    1.1072 H   0  0  0  0  0  0
    3.5833    3.0495   -0.5342 H   0  0  0  0  0  0
   -1.5820    2.4823    1.6920 H   0  0  0  0  0  0
   -3.5237    0.9735    1.6597 H   0  0  0  0  0  0
   -1.9343   -1.0340   -1.7534 H   0  0  0  0  0  0
    0.0134    0.4674   -1.7450 H   0  0  0  0  0  0
   -6.3368   -0.9092   -1.2096 H   0  0  0  0  0  0
   -5.6505    0.6503   -0.6947 H   0  0  0  0  0  0
   -4.9875   -0.1870   -2.1186 H   0  0  0  0  0  0
    3.4298    0.6638   -1.4806 H   0  0  0  0  0  0
    1.8023   -1.9590    2.3779 H   0  0  0  0  0  0
    1.0944    0.3786    2.1083 H   0  0  0  0  0  0
    5.5742   -2.8920    0.1687 H   0  0  0  0  0  0
    4.7613   -4.0330   -0.9496 H   0  0  0  0  0  0
  1  2  2  0  0  0
  1  5  1  0  0  0
  1 16  1  0  0  0
  2  3  1  0  0  0
  2  6  1  0  0  0
  3  4  1  0  0  0
  3 25  1  0  0  0
  3 26  1  0  0  0
  4  5  1  0  0  0
  4 27  1  0  0  0
  4 28  1  0  0  0
  5 29  1  0  0  0
  5 30  1  0  0  0
  6  7  1  0  0  0
  6 11  2  0  0  0
  7  8  2  0  0  0
  7 31  1  0  0  0
  8  9  1  0  0  0
  8 32  1  0  0  0
  9 10  2  0  0  0
  9 12  1  0  0  0
 10 11  1  0  0  0
 10 33  1  0  0  0
 11 34  1  0  0  0
 12 13  2  0  0  0
 12 14  2  0  0  0
 12 15  1  0  0  0
 15 35  1  0  0  0
 15 36  1  0  0  0
 15 37  1  0  0  0
 16 17  1  0  0  0
 16 21  2  0  0  0
 17 18  2  0  0  0
 17 38  1  0  0  0
 18 19  1  0  0  0
 18 24  1  0  0  0
 19 20  2  0  0  0
 19 22  1  0  0  0
 20 21  1  0  0  0
 20 39  1  0  0  0
 21 40  1  0  0  0
 22 23  1  0  0  0
 23 24  1  0  0  0
 23 41  1  0  0  0
 23 42  1  0  0  0
M  END
>  <Activity>
7.67778

>  <set>
1

>  <Min_dist>
999.9

>  <Avg_dist>
999.9

$$$$
6-7P
  Cerius2 12110214513D 1   1.00000                          
 
 42 44  0  0  0  0  0  0  0  0999 V2000
    0.7712    2.7761    0.1790 C   0  0  0  0  0  0
   -0.5641    2.8557    0.1152 C   0  0  0  0  0  0
   -1.0095    4.2997    0.1074 C   0  0  0  0  0  0
    0.2592    5.1052   -0.2532 C   0  0  0  0  0  0
    1.3833    4.1571    0.2217 C   0  0  0  0  0  0
   -1.4727    1.6965    0.0594 C   0  0  0  0  0  0
   -2.4308    1.5067    1.0587 C   0  0  0  0  0  0
   -3.2775    0.4196    0.9999 C   0  0  0  0  0  0
   -3.1796   -0.4822   -0.0451 C   0  0  0  0  0  0
   -2.2333   -0.3008   -1.0382 C   0  0  0  0  0  0
   -1.3839    0.7850   -0.9960 C   0  0  0  0  0  0
   -4.2650   -1.8687   -0.1111 S   0  0  0  0  0  0
   -3.5167   -2.8193   -0.8565 O   0  0  0  0  0  0
   -4.5981   -2.0733    1.2551 O   0  0  0  0  0  0
   -5.6798   -1.2413   -1.0573 C   0  0  0  0  0  0
    1.5368    1.5169    0.2096 C   0  0  0  0  0  0
    2.4669    1.2366   -0.7946 C   0  0  0  0  0  0
    3.1809    0.0547   -0.7587 C   0  0  0  0  0  0
    2.9754   -0.8509    0.2705 C   0  0  0  0  0  0
    2.0554   -0.5782    1.2667 C   0  0  0  0  0  0
    1.3398    0.6010    1.2462 C   0  0  0  0  0  0
    3.7576   -2.1386    0.3038 C   0  0  0  0  0  0
    3.3813   -2.8838    1.4265 F   0  0  0  0  0  0
    3.4923   -2.8756   -0.8554 F   0  0  0  0  0  0
    5.1252   -1.8519    0.3714 F   0  0  0  0  0  0
    4.0806   -0.2194   -1.7286 F   0  0  0  0  0  0
   -1.7830    4.4539   -0.6450 H   0  0  0  0  0  0
   -1.3749    4.5891    1.0927 H   0  0  0  0  0  0
    0.3207    5.2749   -1.3281 H   0  0  0  0  0  0
    0.2894    6.0490    0.2912 H   0  0  0  0  0  0
    1.6852    4.4066    1.2390 H   0  0  0  0  0  0
    2.2376    4.2141   -0.4529 H   0  0  0  0  0  0
   -2.5078    2.2094    1.8752 H   0  0  0  0  0  0
   -4.0185    0.2716    1.7716 H   0  0  0  0  0  0
   -2.1624   -1.0089   -1.8506 H   0  0  0  0  0  0
   -0.6460    0.9255   -1.7720 H   0  0  0  0  0  0
   -6.4258   -2.0293   -1.1609 H   0  0  0  0  0  0
   -6.1189   -0.3919   -0.5341 H   0  0  0  0  0  0
   -5.3449   -0.9258   -2.0454 H   0  0  0  0  0  0
    2.6269    1.9418   -1.5967 H   0  0  0  0  0  0
    1.8999   -1.2886    2.0652 H   0  0  0  0  0  0
    0.6222    0.8119    2.0253 H   0  0  0  0  0  0
  1  2  2  0  0  0
  1  5  1  0  0  0
  1 16  1  0  0  0
  2  3  1  0  0  0
  2  6  1  0  0  0
  3  4  1  0  0  0
  3 27  1  0  0  0
  3 28  1  0  0  0
  4  5  1  0  0  0
  4 29  1  0  0  0
  4 30  1  0  0  0
  5 31  1  0  0  0
  5 32  1  0  0  0
  6  7  1  0  0  0
  6 11  2  0  0  0
  7  8  2  0  0  0
  7 33  1  0  0  0
  8  9  1  0  0  0
  8 34  1  0  0  0
  9 10  2  0  0  0
  9 12  1  0  0  0
 10 11  1  0  0  0
 10 35  1  0  0  0
 11 36  1  0  0  0
 12 13  2  0  0  0
 12 14  2  0  0  0
 12 15  1  0  0  0
 15 37  1  0  0  0
 15 38  1  0  0  0
 15 39  1  0  0  0
 16 17  1  0  0  0
 16 21  2  0  0  0
 17 18  2  0  0  0
 17 40  1  0  0  0
 18 19  1  0  0  0
 18 26  1  0  0  0
 19 20  2  0  0  0
 19 22  1  0  0  0
 20 21  1  0  0  0
 20 41  1  0  0  0
 21 42  1  0  0  0
 22 23  1  0  0  0
 22 24  1  0  0  0
 22 25  1  0  0  0
M  END
>  <Activity>
6.11919

>  <set>
1

>  <Min_dist>
999.9

>  <Avg_dist>
999.9

$$$$
6-8A
  Cerius2 12110214513D 1   1.00000                          
 
 38 40  0  0  0  0  0  0  0  0999 V2000
    2.5501    1.3648    0.0612 C   0  0  0  0  0  0
    1.3898    2.0333    0.0358 C   0  0  0  0  0  0
    1.6369    3.5241    0.0266 C   0  0  0  0  0  0
    3.1200    3.6789   -0.3793 C   0  0  0  0  0  0
    3.7159    2.3263    0.0720 C   0  0  0  0  0  0
    0.0577    1.4029    0.0185 C   0  0  0  0  0  0
   -0.8529    1.6574    1.0474 C   0  0  0  0  0  0
   -2.0976    1.0638    1.0245 C   0  0  0  0  0  0
   -2.4454    0.2177   -0.0137 C   0  0  0  0  0  0
   -1.5487   -0.0394   -1.0358 C   0  0  0  0  0  0
   -0.3028    0.5522   -1.0298 C   0  0  0  0  0  0
   -4.0377   -0.5365   -0.0341 S   0  0  0  0  0  0
   -3.9077   -1.6908   -0.8526 O   0  0  0  0  0  0
   -4.4849   -0.5308    1.3147 O   0  0  0  0  0  0
   -5.0573    0.4815   -0.8505 N   0  0  0  0  0  0
    2.6727   -0.1037    0.0820 C   0  0  0  0  0  0
    3.3482   -0.7660   -0.9466 C   0  0  0  0  0  0
    3.4595   -2.1400   -0.9214 C   0  0  0  0  0  0
    2.9027   -2.8643    0.1210 C   0  0  0  0  0  0
    2.2314   -2.2131    1.1441 C   0  0  0  0  0  0
    2.1188   -0.8391    1.1334 C   0  0  0  0  0  0
    3.0142   -4.2106    0.1396 F   0  0  0  0  0  0
    0.9911    4.0109   -0.7043 H   0  0  0  0  0  0
    1.4699    3.9422    1.0192 H   0  0  0  0  0  0
    3.2177    3.8075   -1.4573 H   0  0  0  0  0  0
    3.5857    4.5074    0.1544 H   0  0  0  0  0  0
    4.1286    2.4104    1.0773 H   0  0  0  0  0  0
    4.4844    1.9982   -0.6280 H   0  0  0  0  0  0
   -0.5825    2.3170    1.8587 H   0  0  0  0  0  0
   -2.8024    1.2596    1.8191 H   0  0  0  0  0  0
   -1.8268   -0.7014   -1.8426 H   0  0  0  0  0  0
    0.3959    0.3509   -1.8284 H   0  0  0  0  0  0
   -5.9894    0.2410   -0.9700 H   0  0  0  0  0  0
   -4.7224    1.3182   -1.2091 H   0  0  0  0  0  0
    3.7819   -0.2028   -1.7596 H   0  0  0  0  0  0
    3.9813   -2.6530   -1.7157 H   0  0  0  0  0  0
    1.7994   -2.7830    1.9534 H   0  0  0  0  0  0
    1.5956   -0.3328    1.9311 H   0  0  0  0  0  0
  1  2  2  0  0  0
  1  5  1  0  0  0
  1 16  1  0  0  0
  2  3  1  0  0  0
  2  6  1  0  0  0
  3  4  1  0  0  0
  3 23  1  0  0  0
  3 24  1  0  0  0
  4  5  1  0  0  0
  4 25  1  0  0  0
  4 26  1  0  0  0
  5 27  1  0  0  0
  5 28  1  0  0  0
  6  7  1  0  0  0
  6 11  2  0  0  0
  7  8  2  0  0  0
  7 29  1  0  0  0
  8  9  1  0  0  0
  8 30  1  0  0  0
  9 10  2  0  0  0
  9 12  1  0  0  0
 10 11  1  0  0  0
 10 31  1  0  0  0
 11 32  1  0  0  0
 12 13  2  0  0  0
 12 14  2  0  0  0
 12 15  1  0  0  0
 15 33  1  0  0  0
 15 34  1  0  0  0
 16 17  1  0  0  0
 16 21  2  0  0  0
 17 18  2  0  0  0
 17 35  1  0  0  0
 18 19  1  0  0  0
 18 36  1  0  0  0
 19 20  2  0  0  0
 19 22  1  0  0  0
 20 21  1  0  0  0
 20 37  1  0  0  0
 21 38  1  0  0  0
M  END
>  <Activity>
8.1549

>  <set>
1

>  <Min_dist>
999.9

>  <Avg_dist>
999.9

$$$$
6-8B
  Cerius2 12110214513D 1   1.00000                          
 
 38 40  0  0  0  0  0  0  0  0999 V2000
    2.1451    1.7670    0.1471 C   0  0  0  0  0  0
    0.9230    2.3018    0.0269 C   0  0  0  0  0  0
    1.0109    3.8066   -0.0803 C   0  0  0  0  0  0
    2.4870    4.0944   -0.4363 C   0  0  0  0  0  0
    3.2006    2.8484    0.1352 C   0  0  0  0  0  0
   -0.3324    1.5301    0.0021 C   0  0  0  0  0  0
   -1.3128    1.7530    0.9725 C   0  0  0  0  0  0
   -2.4852    1.0271    0.9429 C   0  0  0  0  0  0
   -2.6917    0.0799   -0.0445 C   0  0  0  0  0  0
   -1.7252   -0.1466   -1.0086 C   0  0  0  0  0  0
   -0.5505    0.5761   -0.9954 C   0  0  0  0  0  0
   -4.1926   -0.8426   -0.0742 S   0  0  0  0  0  0
   -3.9025   -2.0286   -0.8012 O   0  0  0  0  0  0
   -4.7017   -0.7944    1.2516 O   0  0  0  0  0  0
   -5.2740    0.0009   -1.0023 N   0  0  0  0  0  0
    2.4215    0.3255    0.2791 C   0  0  0  0  0  0
    3.2118   -0.3271   -0.6712 C   0  0  0  0  0  0
    3.4673   -1.6775   -0.5415 C   0  0  0  0  0  0
    2.9405   -2.3859    0.5302 C   0  0  0  0  0  0
    2.1567   -1.7429    1.4741 C   0  0  0  0  0  0
    1.8992   -0.3928    1.3577 C   0  0  0  0  0  0
    3.1929   -3.7074    0.6525 F   0  0  0  0  0  0
    4.2305   -2.3107   -1.4589 F   0  0  0  0  0  0
    0.3528    4.1695   -0.8697 H   0  0  0  0  0  0
    0.7534    4.2702    0.8721 H   0  0  0  0  0  0
    2.6218    4.1597   -1.5160 H   0  0  0  0  0  0
    2.8362    5.0029    0.0543 H   0  0  0  0  0  0
    3.5536    3.0448    1.1475 H   0  0  0  0  0  0
    4.0320    2.5595   -0.5078 H   0  0  0  0  0  0
   -1.1528    2.4917    1.7440 H   0  0  0  0  0  0
   -3.2437    1.1980    1.6925 H   0  0  0  0  0  0
   -1.8931   -0.8877   -1.7760 H   0  0  0  0  0  0
    0.2030    0.3982   -1.7484 H   0  0  0  0  0  0
   -6.1687   -0.3470   -1.1414 H   0  0  0  0  0  0
   -5.0127    0.8430   -1.4068 H   0  0  0  0  0  0
    3.6213    0.2237   -1.5050 H   0  0  0  0  0  0
    1.7494   -2.2992    2.3054 H   0  0  0  0  0  0
    1.2878    0.1066    2.0947 H   0  0  0  0  0  0
  1  2  2  0  0  0
  1  5  1  0  0  0
  1 16  1  0  0  0
  2  3  1  0  0  0
  2  6  1  0  0  0
  3  4  1  0  0  0
  3 24  1  0  0  0
  3 25  1  0  0  0
  4  5  1  0  0  0
  4 26  1  0  0  0
  4 27  1  0  0  0
  5 28  1  0  0  0
  5 29  1  0  0  0
  6  7  1  0  0  0
  6 11  2  0  0  0
  7  8  2  0  0  0
  7 30  1  0  0  0
  8  9  1  0  0  0
  8 31  1  0  0  0
  9 10  2  0  0  0
  9 12  1  0  0  0
 10 11  1  0  0  0
 10 32  1  0  0  0
 11 33  1  0  0  0
 12 13  2  0  0  0
 12 14  2  0  0  0
 12 15  1  0  0  0
 15 34  1  0  0  0
 15 35  1  0  0  0
 16 17  1  0  0  0
 16 21  2  0  0  0
 17 18  2  0  0  0
 17 36  1  0  0  0
 18 19  1  0  0  0
 18 23  1  0  0  0
 19 20  2  0  0  0
 19 22  1  0  0  0
 20 21  1  0  0  0
 20 37  1  0  0  0
 21 38  1  0  0  0
M  END
>  <Activity>
7.74473

>  <set>
1

>  <Min_dist>
999.9

>  <Avg_dist>
999.9

$$$$
6-8I
  Cerius2 12110214513D 1   1.00000                          
 
 42 44  0  0  0  0  0  0  0  0999 V2000
    1.9309    2.0435    0.1896 C   0  0  0  0  0  0
    0.6726    2.4997    0.1342 C   0  0  0  0  0  0
    0.6554    4.0108    0.1474 C   0  0  0  0  0  0
    2.0999    4.4280   -0.2099 C   0  0  0  0  0  0
    2.9097    3.1935    0.2467 C   0  0  0  0  0  0
   -0.5277    1.6469    0.0689 C   0  0  0  0  0  0
   -1.4985    1.7233    1.0711 C   0  0  0  0  0  0
   -2.6191    0.9221    1.0033 C   0  0  0  0  0  0
   -2.7832    0.0442   -0.0537 C   0  0  0  0  0  0
   -1.8260   -0.0369   -1.0498 C   0  0  0  0  0  0
   -0.7031    0.7622   -0.9985 C   0  0  0  0  0  0
   -4.2179   -0.9758   -0.1314 S   0  0  0  0  0  0
   -3.8643   -2.0771   -0.9569 O   0  0  0  0  0  0
   -4.6982   -1.0688    1.2027 O   0  0  0  0  0  0
   -5.3756   -0.1390   -0.9692 N   0  0  0  0  0  0
    2.3077    0.6192    0.1999 C   0  0  0  0  0  0
    3.1190    0.1012   -0.8142 C   0  0  0  0  0  0
    3.4688   -1.2330   -0.8000 C   0  0  0  0  0  0
    3.0149   -2.0617    0.2211 C   0  0  0  0  0  0
    2.2090   -1.5505    1.2289 C   0  0  0  0  0  0
    1.8599   -0.2167    1.2262 C   0  0  0  0  0  0
    3.3612   -3.3759    0.2317 O   0  0  0  0  0  0
    2.7511   -3.9546    1.3870 C   0  0  0  0  0  0
    4.2527   -1.7356   -1.7788 F   0  0  0  0  0  0
   -0.0438    4.3885   -0.5987 H   0  0  0  0  0  0
    0.3889    4.3782    1.1383 H   0  0  0  0  0  0
    2.2052    4.5880   -1.2830 H   0  0  0  0  0  0
    2.3977    5.3169    0.3462 H   0  0  0  0  0  0
    3.2715    3.3331    1.2653 H   0  0  0  0  0  0
    3.7439    3.0152   -0.4318 H   0  0  0  0  0  0
   -1.3716    2.4077    1.8968 H   0  0  0  0  0  0
   -3.3701    0.9797    1.7773 H   0  0  0  0  0  0
   -1.9609   -0.7244   -1.8718 H   0  0  0  0  0  0
    0.0430    0.6981   -1.7767 H   0  0  0  0  0  0
   -6.2474   -0.5365   -1.1202 H   0  0  0  0  0  0
   -5.1818    0.7487   -1.3088 H   0  0  0  0  0  0
    3.4708    0.7444   -1.6073 H   0  0  0  0  0  0
    1.8587   -2.1977    2.0193 H   0  0  0  0  0  0
    1.2330    0.1795    2.0114 H   0  0  0  0  0  0
    3.0020   -5.0141    1.4382 H   0  0  0  0  0  0
    3.1168   -3.4509    2.2818 H   0  0  0  0  0  0
    1.6691   -3.8402    1.3223 H   0  0  0  0  0  0
  1  2  2  0  0  0
  1  5  1  0  0  0
  1 16  1  0  0  0
  2  3  1  0  0  0
  2  6  1  0  0  0
  3  4  1  0  0  0
  3 25  1  0  0  0
  3 26  1  0  0  0
  4  5  1  0  0  0
  4 27  1  0  0  0
  4 28  1  0  0  0
  5 29  1  0  0  0
  5 30  1  0  0  0
  6  7  1  0  0  0
  6 11  2  0  0  0
  7  8  2  0  0  0
  7 31  1  0  0  0
  8  9  1  0  0  0
  8 32  1  0  0  0
  9 10  2  0  0  0
  9 12  1  0  0  0
 10 11  1  0  0  0
 10 33  1  0  0  0
 11 34  1  0  0  0
 12 13  2  0  0  0
 12 14  2  0  0  0
 12 15  1  0  0  0
 15 35  1  0  0  0
 15 36  1  0  0  0
 16 17  1  0  0  0
 16 21  2  0  0  0
 17 18  2  0  0  0
 17 37  1  0  0  0
 18 19  1  0  0  0
 18 24  1  0  0  0
 19 20  2  0  0  0
 19 22  1  0  0  0
 20 21  1  0  0  0
 20 38  1  0  0  0
 21 39  1  0  0  0
 22 23  1  0  0  0
 23 40  1  0  0  0
 23 41  1  0  0  0
 23 42  1  0  0  0
M  END
>  <Activity>
7.79588

>  <set>
1

>  <Min_dist>
999.9

>  <Avg_dist>
999.9

$$$$
6-8M
  Cerius2 12110214513D 1   1.00000                          
 
 46 48  0  0  0  0  0  0  0  0999 V2000
    1.2397    2.4889    0.2666 C   0  0  0  0  0  0
   -0.0692    2.7524    0.1550 C   0  0  0  0  0  0
   -0.3087    4.2442    0.1238 C   0  0  0  0  0  0
    1.0713    4.8620   -0.1960 C   0  0  0  0  0  0
    2.0358    3.7721    0.3237 C   0  0  0  0  0  0
   -1.1276    1.7302    0.0735 C   0  0  0  0  0  0
   -2.1366    1.6857    1.0394 C   0  0  0  0  0  0
   -3.1238    0.7261    0.9566 C   0  0  0  0  0  0
   -3.1165   -0.1914   -0.0793 C   0  0  0  0  0  0
   -2.1203   -0.1538   -1.0391 C   0  0  0  0  0  0
   -1.1303    0.8042   -0.9731 C   0  0  0  0  0  0
   -4.3816   -1.4140   -0.1763 S   0  0  0  0  0  0
   -3.8387   -2.4703   -0.9566 O   0  0  0  0  0  0
   -4.8938   -1.5451    1.1427 O   0  0  0  0  0  0
   -5.6167   -0.7779   -1.0774 N   0  0  0  0  0  0
    1.8211    1.1369    0.3309 C   0  0  0  0  0  0
    2.7379    0.7212   -0.6398 C   0  0  0  0  0  0
    3.2794   -0.5443   -0.5759 C   0  0  0  0  0  0
    2.9146   -1.4080    0.4532 C   0  0  0  0  0  0
    2.0034   -0.9976    1.4197 C   0  0  0  0  0  0
    1.4621    0.2684    1.3657 C   0  0  0  0  0  0
    3.4646   -2.6891    0.5145 N   0  0  0  0  0  0
    4.1744   -2.7828    1.7973 C   0  0  0  0  0  0
    2.3380   -3.6292    0.5859 C   0  0  0  0  0  0
    4.4173   -1.0624   -1.7804 Cl  0  0  0  0  0  0
   -1.0270    4.4966   -0.6562 H   0  0  0  0  0  0
   -0.6639    4.5915    1.0941 H   0  0  0  0  0  0
    1.1926    5.0104   -1.2690 H   0  0  0  0  0  0
    1.2137    5.7981    0.3440 H   0  0  0  0  0  0
    2.3342    3.9878    1.3496 H   0  0  0  0  0  0
    2.9125    3.7033   -0.3205 H   0  0  0  0  0  0
   -2.1431    2.4007    1.8488 H   0  0  0  0  0  0
   -3.9042    0.6905    1.7023 H   0  0  0  0  0  0
   -2.1207   -0.8735   -1.8443 H   0  0  0  0  0  0
   -0.3537    0.8326   -1.7230 H   0  0  0  0  0  0
   -6.4142   -1.3035   -1.2466 H   0  0  0  0  0  0
   -5.5427    0.1203   -1.4361 H   0  0  0  0  0  0
    3.0209    1.3909   -1.4384 H   0  0  0  0  0  0
    1.7226   -1.6705    2.2163 H   0  0  0  0  0  0
    0.7546    0.5863    2.1172 H   0  0  0  0  0  0
    4.6239   -3.7713    1.8925 H   0  0  0  0  0  0
    4.9553   -2.0233    1.8367 H   0  0  0  0  0  0
    3.4709   -2.6233    2.6143 H   0  0  0  0  0  0
    2.7187   -4.6494    0.6357 H   0  0  0  0  0  0
    1.7450   -3.4188    1.4759 H   0  0  0  0  0  0
    1.7145   -3.5170   -0.3011 H   0  0  0  0  0  0
  1  2  2  0  0  0
  1  5  1  0  0  0
  1 16  1  0  0  0
  2  3  1  0  0  0
  2  6  1  0  0  0
  3  4  1  0  0  0
  3 26  1  0  0  0
  3 27  1  0  0  0
  4  5  1  0  0  0
  4 28  1  0  0  0
  4 29  1  0  0  0
  5 30  1  0  0  0
  5 31  1  0  0  0
  6  7  1  0  0  0
  6 11  2  0  0  0
  7  8  2  0  0  0
  7 32  1  0  0  0
  8  9  1  0  0  0
  8 33  1  0  0  0
  9 10  2  0  0  0
  9 12  1  0  0  0
 10 11  1  0  0  0
 10 34  1  0  0  0
 11 35  1  0  0  0
 12 13  2  0  0  0
 12 14  2  0  0  0
 12 15  1  0  0  0
 15 36  1  0  0  0
 15 37  1  0  0  0
 16 17  1  0  0  0
 16 21  2  0  0  0
 17 18  2  0  0  0
 17 38  1  0  0  0
 18 19  1  0  0  0
 18 25  1  0  0  0
 19 20  2  0  0  0
 19 22  1  0  0  0
 20 21  1  0  0  0
 20 39  1  0  0  0
 21 40  1  0  0  0
 22 23  1  0  0  0
 22 24  1  0  0  0
 23 41  1  0  0  0
 23 42  1  0  0  0
 23 43  1  0  0  0
 24 44  1  0  0  0
 24 45  1  0  0  0
 24 46  1  0  0  0
M  END
>  <Activity>
8.69897

>  <set>
1

>  <Min_dist>
999.9

>  <Avg_dist>
999.9

$$$$
6-8O
  Cerius2 12110214513D 1   1.00000                          
 
 41 43  0  0  0  0  0  0  0  0999 V2000
    1.0708    2.7476    0.0623 C   0  0  0  0  0  0
   -0.2633    2.8636    0.0504 C   0  0  0  0  0  0
   -0.6691    4.3193    0.0617 C   0  0  0  0  0  0
    0.6062    5.0907   -0.3469 C   0  0  0  0  0  0
    1.7216    4.1113    0.0829 C   0  0  0  0  0  0
   -1.2047    1.7297    0.0289 C   0  0  0  0  0  0
   -2.1282    1.5641    1.0644 C   0  0  0  0  0  0
   -3.0063    0.5009    1.0372 C   0  0  0  0  0  0
   -2.9740   -0.4009   -0.0119 C   0  0  0  0  0  0
   -2.0619   -0.2435   -1.0406 C   0  0  0  0  0  0
   -1.1819    0.8183   -1.0301 C   0  0  0  0  0  0
   -4.0993   -1.7564   -0.0377 S   0  0  0  0  0  0
   -3.5019   -2.7384   -0.8732 O   0  0  0  0  0  0
   -4.4948   -1.9556    1.3126 O   0  0  0  0  0  0
   -5.4607   -1.2545   -0.8358 N   0  0  0  0  0  0
    1.8023    1.4680    0.0617 C   0  0  0  0  0  0
    2.6850    1.1644   -0.9782 C   0  0  0  0  0  0
    3.3664   -0.0347   -0.9718 C   0  0  0  0  0  0
    3.1776   -0.9361    0.0610 C   0  0  0  0  0  0
    2.3048   -0.6426    1.0939 C   0  0  0  0  0  0
    1.6208    0.5551    1.1039 C   0  0  0  0  0  0
    3.9260   -2.2442    0.0607 C   0  0  0  0  0  0
    3.5745   -2.9828    1.1956 F   0  0  0  0  0  0
    3.5958   -2.9700   -1.0888 F   0  0  0  0  0  0
    5.3024   -1.9940    0.0749 F   0  0  0  0  0  0
   -1.4666    4.4961   -0.6599 H   0  0  0  0  0  0
   -0.9880    4.6162    1.0608 H   0  0  0  0  0  0
    0.6306    5.2611   -1.4232 H   0  0  0  0  0  0
    0.6832    6.0321    0.1971 H   0  0  0  0  0  0
    2.0693    4.3502    1.0880 H   0  0  0  0  0  0
    2.5503    4.1466   -0.6242 H   0  0  0  0  0  0
   -2.1540    2.2667    1.8842 H   0  0  0  0  0  0
   -3.7206    0.3716    1.8369 H   0  0  0  0  0  0
   -2.0420   -0.9516   -1.8559 H   0  0  0  0  0  0
   -0.4706    0.9399   -1.8337 H   0  0  0  0  0  0
   -6.2053   -1.8646   -0.9556 H   0  0  0  0  0  0
   -5.5136   -0.3506   -1.1836 H   0  0  0  0  0  0
    2.8330    1.8669   -1.7851 H   0  0  0  0  0  0
    4.0486   -0.2708   -1.7750 H   0  0  0  0  0  0
    2.1622   -1.3510    1.8965 H   0  0  0  0  0  0
    0.9402    0.7830    1.9108 H   0  0  0  0  0  0
  1  2  2  0  0  0
  1  5  1  0  0  0
  1 16  1  0  0  0
  2  3  1  0  0  0
  2  6  1  0  0  0
  3  4  1  0  0  0
  3 26  1  0  0  0
  3 27  1  0  0  0
  4  5  1  0  0  0
  4 28  1  0  0  0
  4 29  1  0  0  0
  5 30  1  0  0  0
  5 31  1  0  0  0
  6  7  1  0  0  0
  6 11  2  0  0  0
  7  8  2  0  0  0
  7 32  1  0  0  0
  8  9  1  0  0  0
  8 33  1  0  0  0
  9 10  2  0  0  0
  9 12  1  0  0  0
 10 11  1  0  0  0
 10 34  1  0  0  0
 11 35  1  0  0  0
 12 13  2  0  0  0
 12 14  2  0  0  0
 12 15  1  0  0  0
 15 36  1  0  0  0
 15 37  1  0  0  0
 16 17  1  0  0  0
 16 21  2  0  0  0
 17 18  2  0  0  0
 17 38  1  0  0  0
 18 19  1  0  0  0
 18 39  1  0  0  0
 19 20  2  0  0  0
 19 22  1  0  0  0
 20 21  1  0  0  0
 20 40  1  0  0  0
 21 41  1  0  0  0
 22 23  1  0  0  0
 22 24  1  0  0  0
 22 25  1  0  0  0
M  END
>  <Activity>
6.82391

>  <set>
1

>  <Min_dist>
999.9

>  <Avg_dist>
999.9

$$$$
7-17A
  Cerius2 12110214513D 1   1.00000                          
 
 37 39  0  0  0  0  0  0  0  0999 V2000
    2.7597    0.7413   -0.0330 C   0  0  0  0  0  0
    1.7712    1.7362    0.0360 C   0  0  0  0  0  0
    2.1454    3.0760    0.0824 C   0  0  0  0  0  0
    3.4822    3.4205    0.0604 C   0  0  0  0  0  0
    4.4567    2.4398   -0.0082 C   0  0  0  0  0  0
    4.1029    1.1061   -0.0544 C   0  0  0  0  0  0
    0.3370    1.3616    0.0590 C   0  0  0  0  0  0
   -0.5199    1.8119   -0.9442 C   0  0  0  0  0  0
   -1.8539    1.4596   -0.9179 C   0  0  0  0  0  0
   -2.3413    0.6613    0.1013 C   0  0  0  0  0  0
   -1.4957    0.2115    1.0994 C   0  0  0  0  0  0
   -0.1587    0.5530    1.0806 C   0  0  0  0  0  0
   -4.0459    0.2161    0.1285 S   0  0  0  0  0  0
   -4.3382   -0.1098    1.4804 O   0  0  0  0  0  0
   -4.7153    1.2042   -0.6426 O   0  0  0  0  0  0
   -4.2018   -1.1980   -0.7191 N   0  0  0  0  0  0
    2.3752   -0.6896   -0.0768 C   0  0  0  0  0  0
    2.8081   -1.5608    0.9219 C   0  0  0  0  0  0
    2.4474   -2.8916    0.8773 C   0  0  0  0  0  0
    1.6561   -3.3628   -0.1580 C   0  0  0  0  0  0
    1.2239   -2.5008   -1.1530 C   0  0  0  0  0  0
    1.5748   -1.1672   -1.1136 C   0  0  0  0  0  0
    1.3053   -4.6669   -0.1977 F   0  0  0  0  0  0
    1.3901    3.8462    0.1352 H   0  0  0  0  0  0
    3.7692    4.4610    0.0965 H   0  0  0  0  0  0
    5.4997    2.7195   -0.0252 H   0  0  0  0  0  0
    4.8682    0.3459   -0.1081 H   0  0  0  0  0  0
   -0.1405    2.4355   -1.7402 H   0  0  0  0  0  0
   -2.5188    1.8081   -1.6944 H   0  0  0  0  0  0
   -1.8817   -0.4115    1.8926 H   0  0  0  0  0  0
    0.5006    0.2012    1.8604 H   0  0  0  0  0  0
   -5.0743   -1.6099   -0.8190 H   0  0  0  0  0  0
   -3.4207   -1.6145   -1.1156 H   0  0  0  0  0  0
    3.4252   -1.1945    1.7290 H   0  0  0  0  0  0
    2.7825   -3.5673    1.6503 H   0  0  0  0  0  0
    0.6076   -2.8726   -1.9582 H   0  0  0  0  0  0
    1.2372   -0.4960   -1.8894 H   0  0  0  0  0  0
  1  2  1  0  0  0
  1  6  2  0  0  0
  1 17  1  0  0  0
  2  3  2  0  0  0
  2  7  1  0  0  0
  3  4  1  0  0  0
  3 24  1  0  0  0
  4  5  2  0  0  0
  4 25  1  0  0  0
  5  6  1  0  0  0
  5 26  1  0  0  0
  6 27  1  0  0  0
  7  8  1  0  0  0
  7 12  2  0  0  0
  8  9  2  0  0  0
  8 28  1  0  0  0
  9 10  1  0  0  0
  9 29  1  0  0  0
 10 11  2  0  0  0
 10 13  1  0  0  0
 11 12  1  0  0  0
 11 30  1  0  0  0
 12 31  1  0  0  0
 13 14  2  0  0  0
 13 15  2  0  0  0
 13 16  1  0  0  0
 16 32  1  0  0  0
 16 33  1  0  0  0
 17 18  1  0  0  0
 17 22  2  0  0  0
 18 19  2  0  0  0
 18 34  1  0  0  0
 19 20  1  0  0  0
 19 35  1  0  0  0
 20 21  2  0  0  0
 20 23  1  0  0  0
 21 22  1  0  0  0
 21 36  1  0  0  0
 22 37  1  0  0  0
M  END
>  <Activity>
7.21467

>  <set>
1

>  <Min_dist>
999.9

>  <Avg_dist>
999.9

$$$$
7-17B
  Cerius2 12110214513D 1   1.00000                          
 
 37 39  0  0  0  0  0  0  0  0999 V2000
    2.0298    1.8119   -0.1855 C   0  0  0  0  0  0
    0.8128    2.4593    0.0819 C   0  0  0  0  0  0
    0.7995    3.8321    0.3117 C   0  0  0  0  0  0
    1.9787    4.5493    0.2760 C   0  0  0  0  0  0
    3.1783    3.9113    0.0120 C   0  0  0  0  0  0
    3.2095    2.5503   -0.2177 C   0  0  0  0  0  0
   -0.4509    1.6851    0.1188 C   0  0  0  0  0  0
   -1.4869    1.9944   -0.7613 C   0  0  0  0  0  0
   -2.6608    1.2700   -0.7227 C   0  0  0  0  0  0
   -2.8106    0.2386    0.1869 C   0  0  0  0  0  0
   -1.7862   -0.0725    1.0629 C   0  0  0  0  0  0
   -0.6056    0.6412    1.0297 C   0  0  0  0  0  0
   -4.3124   -0.6820    0.2303 S   0  0  0  0  0  0
   -4.3782   -1.2523    1.5302 O   0  0  0  0  0  0
   -5.2989    0.1610   -0.3489 O   0  0  0  0  0  0
   -4.1417   -1.9571   -0.8124 N   0  0  0  0  0  0
    2.0591    0.3496   -0.4260 C   0  0  0  0  0  0
    2.8074   -0.4812    0.4071 C   0  0  0  0  0  0
    2.8315   -1.8424    0.1791 C   0  0  0  0  0  0
    2.1128   -2.3832   -0.8767 C   0  0  0  0  0  0
    1.3684   -1.5610   -1.7062 C   0  0  0  0  0  0
    1.3339   -0.1998   -1.4822 C   0  0  0  0  0  0
    2.1393   -3.7159   -1.0968 F   0  0  0  0  0  0
    3.7629   -2.8785    1.2147 Cl  0  0  0  0  0  0
   -0.1332    4.3362    0.5176 H   0  0  0  0  0  0
    1.9649    5.6144    0.4547 H   0  0  0  0  0  0
    4.0952    4.4814   -0.0145 H   0  0  0  0  0  0
    4.1489    2.0585   -0.4228 H   0  0  0  0  0  0
   -1.3711    2.7997   -1.4716 H   0  0  0  0  0  0
   -3.4642    1.5089   -1.4037 H   0  0  0  0  0  0
   -1.9091   -0.8783    1.7715 H   0  0  0  0  0  0
    0.1935    0.3975    1.7141 H   0  0  0  0  0  0
   -4.8692   -2.5878   -0.9303 H   0  0  0  0  0  0
   -3.3143   -2.0733   -1.3051 H   0  0  0  0  0  0
    3.3674   -0.0604    1.2291 H   0  0  0  0  0  0
    0.8103   -1.9865   -2.5271 H   0  0  0  0  0  0
    0.7531    0.4402   -2.1298 H   0  0  0  0  0  0
  1  2  1  0  0  0
  1  6  2  0  0  0
  1 17  1  0  0  0
  2  3  2  0  0  0
  2  7  1  0  0  0
  3  4  1  0  0  0
  3 25  1  0  0  0
  4  5  2  0  0  0
  4 26  1  0  0  0
  5  6  1  0  0  0
  5 27  1  0  0  0
  6 28  1  0  0  0
  7  8  1  0  0  0
  7 12  2  0  0  0
  8  9  2  0  0  0
  8 29  1  0  0  0
  9 10  1  0  0  0
  9 30  1  0  0  0
 10 11  2  0  0  0
 10 13  1  0  0  0
 11 12  1  0  0  0
 11 31  1  0  0  0
 12 32  1  0  0  0
 13 14  2  0  0  0
 13 15  2  0  0  0
 13 16  1  0  0  0
 16 33  1  0  0  0
 16 34  1  0  0  0
 17 18  1  0  0  0
 17 22  2  0  0  0
 18 19  2  0  0  0
 18 35  1  0  0  0
 19 20  1  0  0  0
 19 24  1  0  0  0
 20 21  2  0  0  0
 20 23  1  0  0  0
 21 22  1  0  0  0
 21 36  1  0  0  0
 22 37  1  0  0  0
M  END
>  <Activity>
7.76955

>  <set>
1

>  <Min_dist>
999.9

>  <Avg_dist>
999.9

$$$$
7-20C
  Cerius2 12110214513D 1   1.00000                          
 
 41 43  0  0  0  0  0  0  0  0999 V2000
    2.2303    0.0061    0.1397 C   0  0  0  0  0  0
    1.5111   -1.1898   -0.0158 C   0  0  0  0  0  0
    2.1957   -2.3960   -0.1337 C   0  0  0  0  0  0
    3.5773   -2.4128   -0.0973 C   0  0  0  0  0  0
    4.2886   -1.2302    0.0570 C   0  0  0  0  0  0
    3.6215   -0.0254    0.1747 C   0  0  0  0  0  0
    5.6388   -1.2574    0.0918 F   0  0  0  0  0  0
    4.2387   -3.5852   -0.2119 F   0  0  0  0  0  0
    0.0294   -1.1679   -0.0539 C   0  0  0  0  0  0
   -0.7055   -1.8744    0.8971 C   0  0  0  0  0  0
   -2.0847   -1.8503    0.8566 C   0  0  0  0  0  0
   -2.7381   -1.1270   -0.1250 C   0  0  0  0  0  0
   -2.0141   -0.4245   -1.0715 C   0  0  0  0  0  0
   -0.6346   -0.4361   -1.0374 C   0  0  0  0  0  0
   -4.4993   -1.1010   -0.1703 S   0  0  0  0  0  0
   -4.7755   -0.8488   -1.5412 O   0  0  0  0  0  0
   -4.8487   -2.3272    0.4572 O   0  0  0  0  0  0
   -4.9184    0.3251    0.8694 C   0  0  0  0  0  0
    1.5116    1.2969    0.2600 C   0  0  0  0  0  0
    1.7328    2.3100   -0.6722 C   0  0  0  0  0  0
    1.0613    3.5093   -0.5565 C   0  0  0  0  0  0
    0.1681    3.7082    0.4842 C   0  0  0  0  0  0
   -0.0545    2.7048    1.4130 C   0  0  0  0  0  0
    0.6082    1.4997    1.3022 C   0  0  0  0  0  0
   -0.4873    4.8845    0.5935 F   0  0  0  0  0  0
    1.2998    4.6052   -1.5631 C   0  0  0  0  0  0
    1.6474   -3.3187   -0.2531 H   0  0  0  0  0  0
    4.1796    0.8914    0.2945 H   0  0  0  0  0  0
   -0.1965   -2.4396    1.6637 H   0  0  0  0  0  0
   -2.6551   -2.3975    1.5926 H   0  0  0  0  0  0
   -2.5296    0.1379   -1.8361 H   0  0  0  0  0  0
   -0.0704    0.1130   -1.7766 H   0  0  0  0  0  0
   -6.0018    0.4373    0.9127 H   0  0  0  0  0  0
   -4.5289    0.1685    1.8753 H   0  0  0  0  0  0
   -4.4765    1.2266    0.4449 H   0  0  0  0  0  0
    2.4290    2.1560   -1.4834 H   0  0  0  0  0  0
   -0.7513    2.8644    2.2226 H   0  0  0  0  0  0
    0.4341    0.7180    2.0267 H   0  0  0  0  0  0
    0.5962    4.4996   -2.3888 H   0  0  0  0  0  0
    1.1567    5.5746   -1.0856 H   0  0  0  0  0  0
    2.3190    4.5342   -1.9429 H   0  0  0  0  0  0
  1  2  1  0  0  0
  1  6  2  0  0  0
  1 19  1  0  0  0
  2  3  2  0  0  0
  2  9  1  0  0  0
  3  4  1  0  0  0
  3 27  1  0  0  0
  4  5  2  0  0  0
  4  8  1  0  0  0
  5  6  1  0  0  0
  5  7  1  0  0  0
  6 28  1  0  0  0
  9 10  1  0  0  0
  9 14  2  0  0  0
 10 11  2  0  0  0
 10 29  1  0  0  0
 11 12  1  0  0  0
 11 30  1  0  0  0
 12 13  2  0  0  0
 12 15  1  0  0  0
 13 14  1  0  0  0
 13 31  1  0  0  0
 14 32  1  0  0  0
 15 16  2  0  0  0
 15 17  2  0  0  0
 15 18  1  0  0  0
 18 33  1  0  0  0
 18 34  1  0  0  0
 18 35  1  0  0  0
 19 20  1  0  0  0
 19 24  2  0  0  0
 20 21  2  0  0  0
 20 36  1  0  0  0
 21 22  1  0  0  0
 21 26  1  0  0  0
 22 23  2  0  0  0
 22 25  1  0  0  0
 23 24  1  0  0  0
 23 37  1  0  0  0
 24 38  1  0  0  0
 26 39  1  0  0  0
 26 40  1  0  0  0
 26 41  1  0  0  0
M  END
>  <Activity>
8.30103

>  <set>
1

>  <Min_dist>
999.9

>  <Avg_dist>
999.9

$$$$
7-20H
  Cerius2 12110214513D 1   1.00000                          
 
 46 48  0  0  0  0  0  0  0  0999 V2000
    2.1753   -0.3555    0.2373 C   0  0  0  0  0  0
    1.4259   -1.5283    0.0507 C   0  0  0  0  0  0
    2.0774   -2.7542   -0.0510 C   0  0  0  0  0  0
    3.4558   -2.8131    0.0317 C   0  0  0  0  0  0
    4.1969   -1.6534    0.2162 C   0  0  0  0  0  0
    3.5630   -0.4295    0.3188 C   0  0  0  0  0  0
    5.5438   -1.7218    0.2962 F   0  0  0  0  0  0
    4.0850   -4.0046   -0.0669 F   0  0  0  0  0  0
   -0.0523   -1.4613   -0.0371 C   0  0  0  0  0  0
   -0.8400   -2.1497    0.8845 C   0  0  0  0  0  0
   -2.2156   -2.0836    0.7978 C   0  0  0  0  0  0
   -2.8133   -1.3365   -0.2014 C   0  0  0  0  0  0
   -2.0369   -0.6518   -1.1189 C   0  0  0  0  0  0
   -0.6603   -0.7050   -1.0381 C   0  0  0  0  0  0
   -4.5704   -1.2573   -0.3061 S   0  0  0  0  0  0
   -4.7921   -0.9907   -1.6841 O   0  0  0  0  0  0
   -4.9774   -2.4752    0.3024 O   0  0  0  0  0  0
   -4.9818    0.1761    0.7267 C   0  0  0  0  0  0
    1.4923    0.9558    0.3407 C   0  0  0  0  0  0
    1.7762    1.9656   -0.5784 C   0  0  0  0  0  0
    1.1364    3.1874   -0.4786 C   0  0  0  0  0  0
    0.2105    3.4073    0.5386 C   0  0  0  0  0  0
   -0.0707    2.4031    1.4521 C   0  0  0  0  0  0
    0.5610    1.1798    1.3533 C   0  0  0  0  0  0
   -0.4181    4.6090    0.6361 O   0  0  0  0  0  0
   -1.2941    4.5267    1.7621 C   0  0  0  0  0  0
    1.4114    4.1742   -1.3731 O   0  0  0  0  0  0
    2.3856    3.6514   -2.2784 C   0  0  0  0  0  0
    1.5058   -3.6593   -0.1942 H   0  0  0  0  0  0
    4.1442    0.4695    0.4619 H   0  0  0  0  0  0
   -0.3744   -2.7338    1.6646 H   0  0  0  0  0  0
   -2.8268   -2.6164    1.5112 H   0  0  0  0  0  0
   -2.5090   -0.0704   -1.8971 H   0  0  0  0  0  0
   -0.0551   -0.1700   -1.7550 H   0  0  0  0  0  0
   -6.0621    0.3206    0.7340 H   0  0  0  0  0  0
   -4.6315    0.0032    1.7443 H   0  0  0  0  0  0
   -4.4989    1.0657    0.3225 H   0  0  0  0  0  0
    2.4945    1.7938   -1.3664 H   0  0  0  0  0  0
   -0.7885    2.5769    2.2401 H   0  0  0  0  0  0
    0.3402    0.3991    2.0662 H   0  0  0  0  0  0
   -1.8230    5.4724    1.8809 H   0  0  0  0  0  0
   -2.0150    3.7247    1.6038 H   0  0  0  0  0  0
   -0.7125    4.3204    2.6606 H   0  0  0  0  0  0
    2.6388    4.4109   -3.0181 H   0  0  0  0  0  0
    3.2816    3.3700   -1.7252 H   0  0  0  0  0  0
    1.9794    2.7745   -2.7825 H   0  0  0  0  0  0
  1  2  1  0  0  0
  1  6  2  0  0  0
  1 19  1  0  0  0
  2  3  2  0  0  0
  2  9  1  0  0  0
  3  4  1  0  0  0
  3 29  1  0  0  0
  4  5  2  0  0  0
  4  8  1  0  0  0
  5  6  1  0  0  0
  5  7  1  0  0  0
  6 30  1  0  0  0
  9 10  1  0  0  0
  9 14  2  0  0  0
 10 11  2  0  0  0
 10 31  1  0  0  0
 11 12  1  0  0  0
 11 32  1  0  0  0
 12 13  2  0  0  0
 12 15  1  0  0  0
 13 14  1  0  0  0
 13 33  1  0  0  0
 14 34  1  0  0  0
 15 16  2  0  0  0
 15 17  2  0  0  0
 15 18  1  0  0  0
 18 35  1  0  0  0
 18 36  1  0  0  0
 18 37  1  0  0  0
 19 20  1  0  0  0
 19 24  2  0  0  0
 20 21  2  0  0  0
 20 38  1  0  0  0
 21 22  1  0  0  0
 21 27  1  0  0  0
 22 23  2  0  0  0
 22 25  1  0  0  0
 23 24  1  0  0  0
 23 39  1  0  0  0
 24 40  1  0  0  0
 25 26  1  0  0  0
 26 41  1  0  0  0
 26 42  1  0  0  0
 26 43  1  0  0  0
 27 28  1  0  0  0
 28 44  1  0  0  0
 28 45  1  0  0  0
 28 46  1  0  0  0
M  END
>  <Activity>
6.46852

>  <set>
1

>  <Min_dist>
999.9

>  <Avg_dist>
999.9

$$$$
7-20I
  Cerius2 12110214513D 1   1.00000                          
 
 44 47  0  0  0  0  0  0  0  0999 V2000
    2.1966   -0.4506    0.1854 C   0  0  0  0  0  0
    1.4339   -1.6107   -0.0255 C   0  0  0  0  0  0
    2.0738   -2.8349   -0.1975 C   0  0  0  0  0  0
    3.4536   -2.9046   -0.1603 C   0  0  0  0  0  0
    4.2079   -1.7575    0.0483 C   0  0  0  0  0  0
    3.5856   -0.5354    0.2206 C   0  0  0  0  0  0
    5.5561   -1.8365    0.0834 F   0  0  0  0  0  0
    4.0715   -4.0944   -0.3272 F   0  0  0  0  0  0
   -0.0457   -1.5321   -0.0643 C   0  0  0  0  0  0
   -0.8091   -2.2534    0.8525 C   0  0  0  0  0  0
   -2.1863   -2.1763    0.8115 C   0  0  0  0  0  0
   -2.8096   -1.3856   -0.1372 C   0  0  0  0  0  0
   -2.0574   -0.6679   -1.0497 C   0  0  0  0  0  0
   -0.6793   -0.7320   -1.0141 C   0  0  0  0  0  0
   -4.5685   -1.2926   -0.1837 S   0  0  0  0  0  0
   -4.8310   -0.9684   -1.5421 O   0  0  0  0  0  0
   -4.9647   -2.5323    0.3869 O   0  0  0  0  0  0
   -4.9381    0.0993    0.9192 C   0  0  0  0  0  0
    1.5260    0.8590    0.3637 C   0  0  0  0  0  0
    1.7853    1.9036   -0.5178 C   0  0  0  0  0  0
    1.1601    3.1361   -0.3569 C   0  0  0  0  0  0
    0.2666    3.3195    0.6868 C   0  0  0  0  0  0
    0.0117    2.2706    1.5706 C   0  0  0  0  0  0
    0.6275    1.0496    1.4122 C   0  0  0  0  0  0
   -0.4040    4.4797    0.9098 O   0  0  0  0  0  0
    0.2683    5.5375    0.2342 C   0  0  0  0  0  0
    0.4808    5.1143   -1.2239 C   0  0  0  0  0  0
    1.4847    4.1052   -1.2518 O   0  0  0  0  0  0
    1.4920   -3.7302   -0.3597 H   0  0  0  0  0  0
    4.1771    0.3537    0.3821 H   0  0  0  0  0  0
   -0.3236   -2.8716    1.5931 H   0  0  0  0  0  0
   -2.7787   -2.7347    1.5212 H   0  0  0  0  0  0
   -2.5494   -0.0525   -1.7883 H   0  0  0  0  0  0
   -0.0930   -0.1713   -1.7271 H   0  0  0  0  0  0
   -6.0167    0.2493    0.9661 H   0  0  0  0  0  0
   -4.5577   -0.1171    1.9175 H   0  0  0  0  0  0
   -4.4620    1.0022    0.5368 H   0  0  0  0  0  0
    2.4777    1.7567   -1.3335 H   0  0  0  0  0  0
   -0.6804    2.4170    2.3866 H   0  0  0  0  0  0
    0.4218    0.2451    2.1029 H   0  0  0  0  0  0
   -0.3393    6.4417    0.2701 H   0  0  0  0  0  0
    1.2324    5.7224    0.7079 H   0  0  0  0  0  0
   -0.4496    4.7188   -1.6314 H   0  0  0  0  0  0
    0.8053    5.9724   -1.8124 H   0  0  0  0  0  0
  1  2  1  0  0  0
  1  6  2  0  0  0
  1 19  1  0  0  0
  2  3  2  0  0  0
  2  9  1  0  0  0
  3  4  1  0  0  0
  3 29  1  0  0  0
  4  5  2  0  0  0
  4  8  1  0  0  0
  5  6  1  0  0  0
  5  7  1  0  0  0
  6 30  1  0  0  0
  9 10  1  0  0  0
  9 14  2  0  0  0
 10 11  2  0  0  0
 10 31  1  0  0  0
 11 12  1  0  0  0
 11 32  1  0  0  0
 12 13  2  0  0  0
 12 15  1  0  0  0
 13 14  1  0  0  0
 13 33  1  0  0  0
 14 34  1  0  0  0
 15 16  2  0  0  0
 15 17  2  0  0  0
 15 18  1  0  0  0
 18 35  1  0  0  0
 18 36  1  0  0  0
 18 37  1  0  0  0
 19 20  1  0  0  0
 19 24  2  0  0  0
 20 21  2  0  0  0
 20 38  1  0  0  0
 21 22  1  0  0  0
 21 28  1  0  0  0
 22 23  2  0  0  0
 22 25  1  0  0  0
 23 24  1  0  0  0
 23 39  1  0  0  0
 24 40  1  0  0  0
 25 26  1  0  0  0
 26 27  1  0  0  0
 26 41  1  0  0  0
 26 42  1  0  0  0
 27 28  1  0  0  0
 27 43  1  0  0  0
 27 44  1  0  0  0
M  END
>  <Activity>
6.46852

>  <set>
1

>  <Min_dist>
999.9

>  <Avg_dist>
999.9

$$$$
7-20J
  Cerius2 12110214513D 1   1.00000                          
 
 41 44  0  0  0  0  0  0  0  0999 V2000
    2.2331   -0.1673    0.1662 C   0  0  0  0  0  0
    1.5164   -1.3584   -0.0331 C   0  0  0  0  0  0
    2.2038   -2.5571   -0.2008 C   0  0  0  0  0  0
    3.5855   -2.5714   -0.1707 C   0  0  0  0  0  0
    4.2943   -1.3937    0.0264 C   0  0  0  0  0  0
    3.6246   -0.1963    0.1943 C   0  0  0  0  0  0
    5.6448   -1.4184    0.0546 F   0  0  0  0  0  0
    4.2496   -3.7366   -0.3334 F   0  0  0  0  0  0
    0.0345   -1.3392   -0.0643 C   0  0  0  0  0  0
   -0.6945   -2.0844    0.8613 C   0  0  0  0  0  0
   -2.0739   -2.0627    0.8274 C   0  0  0  0  0  0
   -2.7333   -1.3039   -0.1229 C   0  0  0  0  0  0
   -2.0152   -0.5628   -1.0441 C   0  0  0  0  0  0
   -0.6355   -0.5714   -1.0157 C   0  0  0  0  0  0
   -4.4948   -1.2816   -0.1604 S   0  0  0  0  0  0
   -4.7771   -0.9771   -1.5193 O   0  0  0  0  0  0
   -4.8380   -2.5323    0.4203 O   0  0  0  0  0  0
   -4.9140    0.1017    0.9356 C   0  0  0  0  0  0
    1.5116    1.1156    0.3398 C   0  0  0  0  0  0
    1.7268    2.1646   -0.5536 C   0  0  0  0  0  0
    1.0522    3.3602   -0.3890 C   0  0  0  0  0  0
    0.1581    3.5151    0.6698 C   0  0  0  0  0  0
   -0.0539    2.4714    1.5575 C   0  0  0  0  0  0
    0.6123    1.2740    1.3929 C   0  0  0  0  0  0
   -0.3716    4.7720    0.6117 O   0  0  0  0  0  0
   -0.1046    5.2408   -0.7231 C   0  0  0  0  0  0
    1.0808    4.5201   -1.1085 O   0  0  0  0  0  0
    1.6574   -3.4760   -0.3541 H   0  0  0  0  0  0
    4.1808    0.7168    0.3469 H   0  0  0  0  0  0
   -0.1808   -2.6778    1.6032 H   0  0  0  0  0  0
   -2.6398   -2.6396    1.5439 H   0  0  0  0  0  0
   -2.5353    0.0276   -1.7840 H   0  0  0  0  0  0
   -0.0758    0.0075   -1.7354 H   0  0  0  0  0  0
   -5.9975    0.2088    0.9875 H   0  0  0  0  0  0
   -4.5200   -0.0927    1.9332 H   0  0  0  0  0  0
   -4.4764    1.0204    0.5449 H   0  0  0  0  0  0
    2.4199    2.0433   -1.3730 H   0  0  0  0  0  0
   -0.7470    2.5937    2.3768 H   0  0  0  0  0  0
    0.4444    0.4630    2.0861 H   0  0  0  0  0  0
   -0.9337    4.9973   -1.3875 H   0  0  0  0  0  0
    0.0836    6.3144   -0.7214 H   0  0  0  0  0  0
  1  2  1  0  0  0
  1  6  2  0  0  0
  1 19  1  0  0  0
  2  3  2  0  0  0
  2  9  1  0  0  0
  3  4  1  0  0  0
  3 28  1  0  0  0
  4  5  2  0  0  0
  4  8  1  0  0  0
  5  6  1  0  0  0
  5  7  1  0  0  0
  6 29  1  0  0  0
  9 10  1  0  0  0
  9 14  2  0  0  0
 10 11  2  0  0  0
 10 30  1  0  0  0
 11 12  1  0  0  0
 11 31  1  0  0  0
 12 13  2  0  0  0
 12 15  1  0  0  0
 13 14  1  0  0  0
 13 32  1  0  0  0
 14 33  1  0  0  0
 15 16  2  0  0  0
 15 17  2  0  0  0
 15 18  1  0  0  0
 18 34  1  0  0  0
 18 35  1  0  0  0
 18 36  1  0  0  0
 19 20  1  0  0  0
 19 24  2  0  0  0
 20 21  2  0  0  0
 20 37  1  0  0  0
 21 22  1  0  0  0
 21 27  1  0  0  0
 22 23  2  0  0  0
 22 25  1  0  0  0
 23 24  1  0  0  0
 23 38  1  0  0  0
 24 39  1  0  0  0
 25 26  1  0  0  0
 26 27  1  0  0  0
 26 40  1  0  0  0
 26 41  1  0  0  0
M  END
>  <Activity>
7.92082

>  <set>
1

>  <Min_dist>
999.9

>  <Avg_dist>
999.9

$$$$
7-20K
  Cerius2 12110214513D 1   1.00000                          
 
 41 43  0  0  0  0  0  0  0  0999 V2000
    2.2694    0.3372    0.0403 C   0  0  0  0  0  0
    1.6013   -0.8963   -0.0223 C   0  0  0  0  0  0
    2.3365   -2.0776   -0.0615 C   0  0  0  0  0  0
    3.7177   -2.0329   -0.0388 C   0  0  0  0  0  0
    4.3784   -0.8132    0.0231 C   0  0  0  0  0  0
    3.6608    0.3675    0.0626 C   0  0  0  0  0  0
    5.7289   -0.7803    0.0453 F   0  0  0  0  0  0
    4.4283   -3.1814   -0.0766 F   0  0  0  0  0  0
    0.1198   -0.9402   -0.0460 C   0  0  0  0  0  0
   -0.5766   -1.6076    0.9605 C   0  0  0  0  0  0
   -1.9559   -1.6452    0.9331 C   0  0  0  0  0  0
   -2.6473   -1.0223   -0.0904 C   0  0  0  0  0  0
   -1.9616   -0.3585   -1.0918 C   0  0  0  0  0  0
   -0.5826   -0.3093   -1.0718 C   0  0  0  0  0  0
   -4.4083   -1.0750   -0.1189 S   0  0  0  0  0  0
   -4.7053   -0.9330   -1.5013 O   0  0  0  0  0  0
   -4.6994   -2.2672    0.5974 O   0  0  0  0  0  0
   -4.8812    0.4023    0.8215 C   0  0  0  0  0  0
    1.4965    1.6015    0.0763 C   0  0  0  0  0  0
    1.6661    2.5542   -0.9273 C   0  0  0  0  0  0
    0.9435    3.7292   -0.8887 C   0  0  0  0  0  0
    0.0526    3.9629    0.1434 C   0  0  0  0  0  0
   -0.1196    3.0215    1.1422 C   0  0  0  0  0  0
    0.5930    1.8401    1.1109 C   0  0  0  0  0  0
   -0.7332    5.2483    0.1800 C   0  0  0  0  0  0
    1.8276   -3.0290   -0.1094 H   0  0  0  0  0  0
    4.1797    1.3135    0.1103 H   0  0  0  0  0  0
   -0.0379   -2.0946    1.7598 H   0  0  0  0  0  0
   -2.4965   -2.1622    1.7121 H   0  0  0  0  0  0
   -2.5066    0.1257   -1.8886 H   0  0  0  0  0  0
   -0.0483    0.2095   -1.8540 H   0  0  0  0  0  0
   -5.9681    0.4708    0.8681 H   0  0  0  0  0  0
   -4.4778    0.3345    1.8318 H   0  0  0  0  0  0
   -4.4820    1.2894    0.3297 H   0  0  0  0  0  0
    2.3620    2.3731   -1.7332 H   0  0  0  0  0  0
    1.0741    4.4680   -1.6657 H   0  0  0  0  0  0
   -0.8160    3.2096    1.9459 H   0  0  0  0  0  0
    0.4578    1.1058    1.8912 H   0  0  0  0  0  0
   -1.6720    5.1157   -0.3578 H   0  0  0  0  0  0
   -0.9425    5.5169    1.2155 H   0  0  0  0  0  0
   -0.1535    6.0421   -0.2912 H   0  0  0  0  0  0
  1  2  1  0  0  0
  1  6  2  0  0  0
  1 19  1  0  0  0
  2  3  2  0  0  0
  2  9  1  0  0  0
  3  4  1  0  0  0
  3 26  1  0  0  0
  4  5  2  0  0  0
  4  8  1  0  0  0
  5  6  1  0  0  0
  5  7  1  0  0  0
  6 27  1  0  0  0
  9 10  1  0  0  0
  9 14  2  0  0  0
 10 11  2  0  0  0
 10 28  1  0  0  0
 11 12  1  0  0  0
 11 29  1  0  0  0
 12 13  2  0  0  0
 12 15  1  0  0  0
 13 14  1  0  0  0
 13 30  1  0  0  0
 14 31  1  0  0  0
 15 16  2  0  0  0
 15 17  2  0  0  0
 15 18  1  0  0  0
 18 32  1  0  0  0
 18 33  1  0  0  0
 18 34  1  0  0  0
 19 20  1  0  0  0
 19 24  2  0  0  0
 20 21  2  0  0  0
 20 35  1  0  0  0
 21 22  1  0  0  0
 21 36  1  0  0  0
 22 23  2  0  0  0
 22 25  1  0  0  0
 23 24  1  0  0  0
 23 37  1  0  0  0
 24 38  1  0  0  0
 25 39  1  0  0  0
 25 40  1  0  0  0
 25 41  1  0  0  0
M  END
>  <Activity>
8.1549

>  <set>
1

>  <Min_dist>
999.9

>  <Avg_dist>
999.9

$$$$
7-20O
  Cerius2 12110214513D 1   1.00000                          
 
 46 48  0  0  0  0  0  0  0  0999 V2000
    2.2451   -0.4921    0.1914 C   0  0  0  0  0  0
    1.5494   -1.7007    0.0250 C   0  0  0  0  0  0
    2.2566   -2.8955   -0.0742 C   0  0  0  0  0  0
    3.6372   -2.8888   -0.0089 C   0  0  0  0  0  0
    4.3252   -1.6939    0.1556 C   0  0  0  0  0  0
    3.6357   -0.5001    0.2555 C   0  0  0  0  0  0
    5.6747   -1.6982    0.2182 F   0  0  0  0  0  0
    4.3205   -4.0503   -0.1051 F   0  0  0  0  0  0
    0.0688   -1.7040   -0.0441 C   0  0  0  0  0  0
   -0.6740   -2.4198    0.8938 C   0  0  0  0  0  0
   -2.0522   -2.4188    0.8247 C   0  0  0  0  0  0
   -2.6969   -1.7094   -0.1726 C   0  0  0  0  0  0
   -1.9653   -0.9973   -1.1060 C   0  0  0  0  0  0
   -0.5867   -0.9866   -1.0438 C   0  0  0  0  0  0
   -4.4570   -1.7133   -0.2548 S   0  0  0  0  0  0
   -4.7087   -1.4695   -1.6319 O   0  0  0  0  0  0
   -4.7988   -2.9434    0.3691 O   0  0  0  0  0  0
   -4.9218   -0.2915    0.7715 C   0  0  0  0  0  0
    1.5026    0.7864    0.2920 C   0  0  0  0  0  0
    1.7272    1.7999   -0.6400 C   0  0  0  0  0  0
    1.0349    2.9887   -0.5440 C   0  0  0  0  0  0
    0.1134    3.1772    0.4814 C   0  0  0  0  0  0
   -0.1110    2.1689    1.4108 C   0  0  0  0  0  0
    0.5744    0.9761    1.3151 C   0  0  0  0  0  0
   -0.5865    4.3818    0.5770 N   0  0  0  0  0  0
   -2.0136    4.0505    0.4686 C   0  0  0  0  0  0
   -0.3728    4.8873    1.9396 C   0  0  0  0  0  0
    1.3138    4.2510   -1.7027 Cl  0  0  0  0  0  0
    1.7266   -3.8278   -0.2019 H   0  0  0  0  0  0
    4.1758    0.4264    0.3834 H   0  0  0  0  0  0
   -0.1717   -2.9743    1.6727 H   0  0  0  0  0  0
   -2.6286   -2.9732    1.5505 H   0  0  0  0  0  0
   -2.4740   -0.4455   -1.8827 H   0  0  0  0  0  0
   -0.0165   -0.4303   -1.7730 H   0  0  0  0  0  0
   -6.0075   -0.1975    0.7918 H   0  0  0  0  0  0
   -4.5508   -0.4388    1.7858 H   0  0  0  0  0  0
   -4.4863    0.6161    0.3535 H   0  0  0  0  0  0
    2.4427    1.6537   -1.4356 H   0  0  0  0  0  0
   -0.8262    2.3178    2.2062 H   0  0  0  0  0  0
    0.3991    0.1928    2.0377 H   0  0  0  0  0  0
   -2.6048    4.9635    0.5380 H   0  0  0  0  0  0
   -2.2026    3.5671   -0.4899 H   0  0  0  0  0  0
   -2.2922    3.3749    1.2774 H   0  0  0  0  0  0
   -0.9026    5.8317    2.0640 H   0  0  0  0  0  0
   -0.7502    4.1613    2.6598 H   0  0  0  0  0  0
    0.6929    5.0439    2.1060 H   0  0  0  0  0  0
  1  2  1  0  0  0
  1  6  2  0  0  0
  1 19  1  0  0  0
  2  3  2  0  0  0
  2  9  1  0  0  0
  3  4  1  0  0  0
  3 29  1  0  0  0
  4  5  2  0  0  0
  4  8  1  0  0  0
  5  6  1  0  0  0
  5  7  1  0  0  0
  6 30  1  0  0  0
  9 10  1  0  0  0
  9 14  2  0  0  0
 10 11  2  0  0  0
 10 31  1  0  0  0
 11 12  1  0  0  0
 11 32  1  0  0  0
 12 13  2  0  0  0
 12 15  1  0  0  0
 13 14  1  0  0  0
 13 33  1  0  0  0
 14 34  1  0  0  0
 15 16  2  0  0  0
 15 17  2  0  0  0
 15 18  1  0  0  0
 18 35  1  0  0  0
 18 36  1  0  0  0
 18 37  1  0  0  0
 19 20  1  0  0  0
 19 24  2  0  0  0
 20 21  2  0  0  0
 20 38  1  0  0  0
 21 22  1  0  0  0
 21 28  1  0  0  0
 22 23  2  0  0  0
 22 25  1  0  0  0
 23 24  1  0  0  0
 23 39  1  0  0  0
 24 40  1  0  0  0
 25 26  1  0  0  0
 25 27  1  0  0  0
 26 41  1  0  0  0
 26 42  1  0  0  0
 26 43  1  0  0  0
 27 44  1  0  0  0
 27 45  1  0  0  0
 27 46  1  0  0  0
M  END
>  <Activity>
8.09691

>  <set>
1

>  <Min_dist>
999.9

>  <Avg_dist>
999.9

$$$$
7-21C
  Cerius2 12110214513D 1   1.00000                          
 
 40 42  0  0  0  0  0  0  0  0999 V2000
    2.2528    0.0015    0.1398 C   0  0  0  0  0  0
    1.5315   -1.1926   -0.0201 C   0  0  0  0  0  0
    2.2142   -2.3996   -0.1415 C   0  0  0  0  0  0
    3.5957   -2.4189   -0.1042 C   0  0  0  0  0  0
    4.3089   -1.2381    0.0544 C   0  0  0  0  0  0
    3.6438   -0.0325    0.1756 C   0  0  0  0  0  0
    5.6591   -1.2677    0.0900 F   0  0  0  0  0  0
    4.2551   -3.5921   -0.2223 F   0  0  0  0  0  0
    0.0499   -1.1680   -0.0591 C   0  0  0  0  0  0
   -0.6869   -1.8763    0.8890 C   0  0  0  0  0  0
   -2.0660   -1.8497    0.8477 C   0  0  0  0  0  0
   -2.7174   -1.1221   -0.1320 C   0  0  0  0  0  0
   -1.9916   -0.4177   -1.0757 C   0  0  0  0  0  0
   -0.6121   -0.4318   -1.0407 C   0  0  0  0  0  0
   -4.4785   -1.0929   -0.1784 S   0  0  0  0  0  0
   -4.8240   -0.7542   -1.5145 O   0  0  0  0  0  0
   -4.9023   -2.2618    0.5096 O   0  0  0  0  0  0
   -4.9772    0.1827    0.7524 N   0  0  0  0  0  0
    1.5362    1.2932    0.2639 C   0  0  0  0  0  0
    1.7598    2.3090   -0.6649 C   0  0  0  0  0  0
    1.0903    3.5090   -0.5457 C   0  0  0  0  0  0
    0.1967    3.7061    0.4950 C   0  0  0  0  0  0
   -0.0283    2.7000    1.4204 C   0  0  0  0  0  0
    0.6325    1.4941    1.3060 C   0  0  0  0  0  0
   -0.4567    4.8832    0.6078 F   0  0  0  0  0  0
    1.3314    4.6078   -1.5485 C   0  0  0  0  0  0
    1.6643   -3.3210   -0.2644 H   0  0  0  0  0  0
    4.2034    0.8830    0.2988 H   0  0  0  0  0  0
   -0.1793   -2.4450    1.6541 H   0  0  0  0  0  0
   -2.6378   -2.3983    1.5815 H   0  0  0  0  0  0
   -2.5055    0.1481   -1.8387 H   0  0  0  0  0  0
   -0.0464    0.1188   -1.7777 H   0  0  0  0  0  0
   -5.9239    0.3682    0.8539 H   0  0  0  0  0  0
   -4.3227    0.7445    1.1961 H   0  0  0  0  0  0
    2.4563    2.1564   -1.4761 H   0  0  0  0  0  0
   -0.7253    2.8581    2.2301 H   0  0  0  0  0  0
    0.4565    0.7103    2.0279 H   0  0  0  0  0  0
    0.6281    4.5061   -2.3751 H   0  0  0  0  0  0
    1.1897    5.5758   -1.0679 H   0  0  0  0  0  0
    2.3507    4.5363   -1.9279 H   0  0  0  0  0  0
  1  2  1  0  0  0
  1  6  2  0  0  0
  1 19  1  0  0  0
  2  3  2  0  0  0
  2  9  1  0  0  0
  3  4  1  0  0  0
  3 27  1  0  0  0
  4  5  2  0  0  0
  4  8  1  0  0  0
  5  6  1  0  0  0
  5  7  1  0  0  0
  6 28  1  0  0  0
  9 10  1  0  0  0
  9 14  2  0  0  0
 10 11  2  0  0  0
 10 29  1  0  0  0
 11 12  1  0  0  0
 11 30  1  0  0  0
 12 13  2  0  0  0
 12 15  1  0  0  0
 13 14  1  0  0  0
 13 31  1  0  0  0
 14 32  1  0  0  0
 15 16  2  0  0  0
 15 17  2  0  0  0
 15 18  1  0  0  0
 18 33  1  0  0  0
 18 34  1  0  0  0
 19 20  1  0  0  0
 19 24  2  0  0  0
 20 21  2  0  0  0
 20 35  1  0  0  0
 21 22  1  0  0  0
 21 26  1  0  0  0
 22 23  2  0  0  0
 22 25  1  0  0  0
 23 24  1  0  0  0
 23 36  1  0  0  0
 24 37  1  0  0  0
 26 38  1  0  0  0
 26 39  1  0  0  0
 26 40  1  0  0  0
M  END
>  <Activity>
8.69897

>  <set>
1

>  <Min_dist>
999.9

>  <Avg_dist>
999.9

$$$$
7-21D
  Cerius2 12110214513D 1   1.00000                          
 
 41 43  0  0  0  0  0  0  0  0999 V2000
    2.2939   -0.0679    0.1149 C   0  0  0  0  0  0
    1.6324   -1.3021    0.0091 C   0  0  0  0  0  0
    2.3733   -2.4793   -0.0438 C   0  0  0  0  0  0
    3.7536   -2.4300    0.0079 C   0  0  0  0  0  0
    4.4077   -1.2096    0.1125 C   0  0  0  0  0  0
    3.6845   -0.0329    0.1660 C   0  0  0  0  0  0
    5.7573   -1.1722    0.1623 F   0  0  0  0  0  0
    4.4697   -3.5744   -0.0432 F   0  0  0  0  0  0
    0.1519   -1.3510   -0.0456 C   0  0  0  0  0  0
   -0.5618   -2.0453    0.9302 C   0  0  0  0  0  0
   -1.9399   -2.0875    0.8741 C   0  0  0  0  0  0
   -2.6133   -1.4430   -0.1480 C   0  0  0  0  0  0
   -1.9105   -0.7529   -1.1194 C   0  0  0  0  0  0
   -0.5325   -0.6982   -1.0699 C   0  0  0  0  0  0
   -4.3731   -1.5018   -0.2134 S   0  0  0  0  0  0
   -4.7178   -1.2485   -1.5685 O   0  0  0  0  0  0
   -4.7488   -2.6534    0.5294 O   0  0  0  0  0  0
   -4.9440   -0.2063    0.6458 N   0  0  0  0  0  0
    1.5152    1.1921    0.1658 C   0  0  0  0  0  0
    1.7020    2.1691   -0.8121 C   0  0  0  0  0  0
    0.9749    3.3414   -0.7614 C   0  0  0  0  0  0
    0.0577    3.5477    0.2633 C   0  0  0  0  0  0
   -0.1289    2.5772    1.2368 C   0  0  0  0  0  0
    0.5904    1.4008    1.1879 C   0  0  0  0  0  0
   -0.6572    4.7028    0.3113 O   0  0  0  0  0  0
   -1.5013    4.6186    1.4612 C   0  0  0  0  0  0
    1.1549    4.2889   -1.7074 F   0  0  0  0  0  0
    1.8696   -3.4312   -0.1248 H   0  0  0  0  0  0
    4.1983    0.9135    0.2477 H   0  0  0  0  0  0
   -0.0370   -2.5494    1.7283 H   0  0  0  0  0  0
   -2.4939   -2.6250    1.6295 H   0  0  0  0  0  0
   -2.4415   -0.2519   -1.9152 H   0  0  0  0  0  0
    0.0152   -0.1592   -1.8287 H   0  0  0  0  0  0
   -5.8997   -0.0621    0.7282 H   0  0  0  0  0  0
   -4.3227    0.4084    1.0666 H   0  0  0  0  0  0
    2.4147    2.0087   -1.6075 H   0  0  0  0  0  0
   -0.8415    2.7408    2.0317 H   0  0  0  0  0  0
    0.4439    0.6460    1.9463 H   0  0  0  0  0  0
   -2.0972    5.5278    1.5418 H   0  0  0  0  0  0
   -2.1630    3.7579    1.3639 H   0  0  0  0  0  0
   -0.8877    4.5060    2.3549 H   0  0  0  0  0  0
  1  2  1  0  0  0
  1  6  2  0  0  0
  1 19  1  0  0  0
  2  3  2  0  0  0
  2  9  1  0  0  0
  3  4  1  0  0  0
  3 28  1  0  0  0
  4  5  2  0  0  0
  4  8  1  0  0  0
  5  6  1  0  0  0
  5  7  1  0  0  0
  6 29  1  0  0  0
  9 10  1  0  0  0
  9 14  2  0  0  0
 10 11  2  0  0  0
 10 30  1  0  0  0
 11 12  1  0  0  0
 11 31  1  0  0  0
 12 13  2  0  0  0
 12 15  1  0  0  0
 13 14  1  0  0  0
 13 32  1  0  0  0
 14 33  1  0  0  0
 15 16  2  0  0  0
 15 17  2  0  0  0
 15 18  1  0  0  0
 18 34  1  0  0  0
 18 35  1  0  0  0
 19 20  1  0  0  0
 19 24  2  0  0  0
 20 21  2  0  0  0
 20 36  1  0  0  0
 21 22  1  0  0  0
 21 27  1  0  0  0
 22 23  2  0  0  0
 22 25  1  0  0  0
 23 24  1  0  0  0
 23 37  1  0  0  0
 24 38  1  0  0  0
 25 26  1  0  0  0
 26 39  1  0  0  0
 26 40  1  0  0  0
 26 41  1  0  0  0
M  END
>  <Activity>
7.88606

>  <set>
1

>  <Min_dist>
999.9

>  <Avg_dist>
999.9

$$$$
7-21G
  Cerius2 12110214513D 1   1.00000                          
 
 44 46  0  0  0  0  0  0  0  0999 V2000
    2.3044   -0.0076    0.1013 C   0  0  0  0  0  0
    1.6547   -1.2488    0.0050 C   0  0  0  0  0  0
    2.4068   -2.4192   -0.0405 C   0  0  0  0  0  0
    3.7866   -2.3563    0.0091 C   0  0  0  0  0  0
    4.4291   -1.1291    0.1047 C   0  0  0  0  0  0
    3.6947    0.0410    0.1503 C   0  0  0  0  0  0
    5.7783   -1.0784    0.1530 F   0  0  0  0  0  0
    4.5135   -3.4942   -0.0353 F   0  0  0  0  0  0
    0.1747   -1.3124   -0.0474 C   0  0  0  0  0  0
   -0.5312   -2.0065    0.9342 C   0  0  0  0  0  0
   -1.9090   -2.0623    0.8802 C   0  0  0  0  0  0
   -2.5897   -1.4311   -0.1454 C   0  0  0  0  0  0
   -1.8947   -0.7409   -1.1223 C   0  0  0  0  0  0
   -0.5172   -0.6734   -1.0754 C   0  0  0  0  0  0
   -4.3490   -1.5072   -0.2081 S   0  0  0  0  0  0
   -4.6977   -1.2663   -1.5644 O   0  0  0  0  0  0
   -4.7127   -2.6574    0.5428 O   0  0  0  0  0  0
   -4.9312   -0.2115    0.6431 N   0  0  0  0  0  0
    1.5137    1.2452    0.1443 C   0  0  0  0  0  0
    1.6898    2.2169   -0.8406 C   0  0  0  0  0  0
    0.9527    3.3812   -0.7976 C   0  0  0  0  0  0
    0.0358    3.5870    0.2247 C   0  0  0  0  0  0
   -0.1419    2.6218    1.2065 C   0  0  0  0  0  0
    0.5881    1.4524    1.1662 C   0  0  0  0  0  0
   -0.6887    4.7358    0.2644 O   0  0  0  0  0  0
   -1.5314    4.6531    1.4156 C   0  0  0  0  0  0
    1.1427    4.4320   -1.8611 C   0  0  0  0  0  0
    1.9121   -3.3765   -0.1142 H   0  0  0  0  0  0
    4.1995    0.9929    0.2247 H   0  0  0  0  0  0
   -0.0007   -2.4999    1.7352 H   0  0  0  0  0  0
   -2.4568   -2.6000    1.6398 H   0  0  0  0  0  0
   -2.4315   -0.2504   -1.9208 H   0  0  0  0  0  0
    0.0244   -0.1340   -1.8384 H   0  0  0  0  0  0
   -5.8881   -0.0760    0.7258 H   0  0  0  0  0  0
   -4.3153    0.4119    1.0590 H   0  0  0  0  0  0
    2.4031    2.0576   -1.6357 H   0  0  0  0  0  0
   -0.8556    2.7851    2.0005 H   0  0  0  0  0  0
    0.4494    0.7019    1.9303 H   0  0  0  0  0  0
   -2.1351    5.5576    1.4897 H   0  0  0  0  0  0
   -2.1856    3.7859    1.3254 H   0  0  0  0  0  0
   -0.9161    4.5526    2.3097 H   0  0  0  0  0  0
    0.4559    4.2425   -2.6859 H   0  0  0  0  0  0
    0.9410    5.4166   -1.4392 H   0  0  0  0  0  0
    2.1688    4.3969   -2.2273 H   0  0  0  0  0  0
  1  2  1  0  0  0
  1  6  2  0  0  0
  1 19  1  0  0  0
  2  3  2  0  0  0
  2  9  1  0  0  0
  3  4  1  0  0  0
  3 28  1  0  0  0
  4  5  2  0  0  0
  4  8  1  0  0  0
  5  6  1  0  0  0
  5  7  1  0  0  0
  6 29  1  0  0  0
  9 10  1  0  0  0
  9 14  2  0  0  0
 10 11  2  0  0  0
 10 30  1  0  0  0
 11 12  1  0  0  0
 11 31  1  0  0  0
 12 13  2  0  0  0
 12 15  1  0  0  0
 13 14  1  0  0  0
 13 32  1  0  0  0
 14 33  1  0  0  0
 15 16  2  0  0  0
 15 17  2  0  0  0
 15 18  1  0  0  0
 18 34  1  0  0  0
 18 35  1  0  0  0
 19 20  1  0  0  0
 19 24  2  0  0  0
 20 21  2  0  0  0
 20 36  1  0  0  0
 21 22  1  0  0  0
 21 27  1  0  0  0
 22 23  2  0  0  0
 22 25  1  0  0  0
 23 24  1  0  0  0
 23 37  1  0  0  0
 24 38  1  0  0  0
 25 26  1  0  0  0
 26 39  1  0  0  0
 26 40  1  0  0  0
 26 41  1  0  0  0
 27 42  1  0  0  0
 27 43  1  0  0  0
 27 44  1  0  0  0
M  END
>  <Activity>
8.30103

>  <set>
1

>  <Min_dist>
999.9

>  <Avg_dist>
999.9

$$$$
7-21J
  Cerius2 12110214513D 1   1.00000                          
 
 40 43  0  0  0  0  0  0  0  0999 V2000
    2.2542   -0.1753    0.1659 C   0  0  0  0  0  0
    1.5335   -1.3632   -0.0374 C   0  0  0  0  0  0
    2.2169   -2.5638   -0.2079 C   0  0  0  0  0  0
    3.5985   -2.5830   -0.1768 C   0  0  0  0  0  0
    4.3113   -1.4083    0.0242 C   0  0  0  0  0  0
    3.6456   -0.2091    0.1950 C   0  0  0  0  0  0
    5.6616   -1.4379    0.0534 F   0  0  0  0  0  0
    4.2587   -3.7501   -0.3422 F   0  0  0  0  0  0
    0.0518   -1.3388   -0.0697 C   0  0  0  0  0  0
   -0.6806   -2.0842    0.8532 C   0  0  0  0  0  0
   -2.0599   -2.0576    0.8183 C   0  0  0  0  0  0
   -2.7159   -1.2937   -0.1303 C   0  0  0  0  0  0
   -1.9944   -0.5525   -1.0489 C   0  0  0  0  0  0
   -0.6148   -0.5660   -1.0194 C   0  0  0  0  0  0
   -4.4772   -1.2653   -0.1691 S   0  0  0  0  0  0
   -4.8281   -0.8759   -1.4900 O   0  0  0  0  0  0
   -4.8970   -2.4604    0.4749 O   0  0  0  0  0  0
   -4.9741   -0.0271    0.8119 N   0  0  0  0  0  0
    1.5370    1.1096    0.3425 C   0  0  0  0  0  0
    1.7566    2.1604   -0.5477 C   0  0  0  0  0  0
    1.0860    3.3579   -0.3801 C   0  0  0  0  0  0
    0.1915    3.5129    0.6784 C   0  0  0  0  0  0
   -0.0248    2.4674    1.5630 C   0  0  0  0  0  0
    0.6374    1.2682    1.3954 C   0  0  0  0  0  0
   -0.3337    4.7718    0.6235 O   0  0  0  0  0  0
   -0.0640    5.2434   -0.7098 C   0  0  0  0  0  0
    1.1192    4.5198   -1.0963 O   0  0  0  0  0  0
    1.6675   -3.4804   -0.3642 H   0  0  0  0  0  0
    4.2048    0.7016    0.3506 H   0  0  0  0  0  0
   -0.1696   -2.6814    1.5938 H   0  0  0  0  0  0
   -2.6283   -2.6346    1.5327 H   0  0  0  0  0  0
   -2.5119    0.0417   -1.7875 H   0  0  0  0  0  0
   -0.0526    0.0130   -1.7371 H   0  0  0  0  0  0
   -5.9206    0.1530    0.9239 H   0  0  0  0  0  0
   -4.3186    0.5181    1.2745 H   0  0  0  0  0  0
    2.4499    2.0391   -1.3668 H   0  0  0  0  0  0
   -0.7181    2.5898    2.3820 H   0  0  0  0  0  0
    0.4662    0.4558    2.0862 H   0  0  0  0  0  0
   -0.8934    5.0048   -1.3756 H   0  0  0  0  0  0
    0.1279    6.3164   -0.7050 H   0  0  0  0  0  0
  1  2  1  0  0  0
  1  6  2  0  0  0
  1 19  1  0  0  0
  2  3  2  0  0  0
  2  9  1  0  0  0
  3  4  1  0  0  0
  3 28  1  0  0  0
  4  5  2  0  0  0
  4  8  1  0  0  0
  5  6  1  0  0  0
  5  7  1  0  0  0
  6 29  1  0  0  0
  9 10  1  0  0  0
  9 14  2  0  0  0
 10 11  2  0  0  0
 10 30  1  0  0  0
 11 12  1  0  0  0
 11 31  1  0  0  0
 12 13  2  0  0  0
 12 15  1  0  0  0
 13 14  1  0  0  0
 13 32  1  0  0  0
 14 33  1  0  0  0
 15 16  2  0  0  0
 15 17  2  0  0  0
 15 18  1  0  0  0
 18 34  1  0  0  0
 18 35  1  0  0  0
 19 20  1  0  0  0
 19 24  2  0  0  0
 20 21  2  0  0  0
 20 36  1  0  0  0
 21 22  1  0  0  0
 21 27  1  0  0  0
 22 23  2  0  0  0
 22 25  1  0  0  0
 23 24  1  0  0  0
 23 37  1  0  0  0
 24 38  1  0  0  0
 25 26  1  0  0  0
 26 27  1  0  0  0
 26 39  1  0  0  0
 26 40  1  0  0  0
M  END
>  <Activity>
8.39794

>  <set>
1

>  <Min_dist>
999.9

>  <Avg_dist>
999.9

$$$$
7-21L
  Cerius2 12110214513D 1   1.00000                          
 
 40 42  0  0  0  0  0  0  0  0999 V2000
    2.1469   -0.4337    0.2415 C   0  0  0  0  0  0
    1.3199   -1.5374   -0.0220 C   0  0  0  0  0  0
    1.8883   -2.7902   -0.2334 C   0  0  0  0  0  0
    3.2610   -2.9435   -0.1835 C   0  0  0  0  0  0
    4.0789   -1.8521    0.0775 C   0  0  0  0  0  0
    3.5278   -0.6023    0.2888 C   0  0  0  0  0  0
    5.4196   -2.0125    0.1246 F   0  0  0  0  0  0
    3.8096   -4.1609   -0.3892 F   0  0  0  0  0  0
   -0.1519   -1.3692   -0.0742 C   0  0  0  0  0  0
   -0.9689   -2.0774    0.8059 C   0  0  0  0  0  0
   -2.3384   -1.9164    0.7529 C   0  0  0  0  0  0
   -2.9010   -1.0543   -0.1711 C   0  0  0  0  0  0
   -2.0954   -0.3488   -1.0469 C   0  0  0  0  0  0
   -0.7242   -0.4977   -0.9997 C   0  0  0  0  0  0
   -4.6505   -0.8543   -0.2332 S   0  0  0  0  0  0
   -4.9385   -0.3786   -1.5409 O   0  0  0  0  0  0
   -5.1944   -2.0289    0.3531 O   0  0  0  0  0  0
   -5.0439    0.3844    0.7930 N   0  0  0  0  0  0
    1.5526    0.9063    0.4621 C   0  0  0  0  0  0
    1.8867    1.9669   -0.3787 C   0  0  0  0  0  0
    1.3298    3.2129   -0.1681 C   0  0  0  0  0  0
    0.4417    3.4092    0.8760 C   0  0  0  0  0  0
    0.1073    2.3601    1.7126 C   0  0  0  0  0  0
    0.6531    1.1090    1.5076 C   0  0  0  0  0  0
   -0.1623    4.7713    1.1018 C   0  0  0  0  0  0
    1.7441    4.5354   -1.2136 Cl  0  0  0  0  0  0
    1.2567   -3.6425   -0.4361 H   0  0  0  0  0  0
    4.1685    0.2431    0.4918 H   0  0  0  0  0  0
   -0.5308   -2.7511    1.5275 H   0  0  0  0  0  0
   -2.9723   -2.4648    1.4339 H   0  0  0  0  0  0
   -2.5401    0.3226   -1.7665 H   0  0  0  0  0  0
   -0.0963    0.0535   -1.6840 H   0  0  0  0  0  0
   -5.9707    0.6503    0.8994 H   0  0  0  0  0  0
   -4.3476    0.8442    1.2876 H   0  0  0  0  0  0
    2.5799    1.8145   -1.1927 H   0  0  0  0  0  0
   -0.5857    2.5190    2.5256 H   0  0  0  0  0  0
    0.3910    0.2907    2.1619 H   0  0  0  0  0  0
   -1.0905    4.8554    0.5365 H   0  0  0  0  0  0
   -0.3701    4.9052    2.1634 H   0  0  0  0  0  0
    0.5367    5.5385    0.7688 H   0  0  0  0  0  0
  1  2  1  0  0  0
  1  6  2  0  0  0
  1 19  1  0  0  0
  2  3  2  0  0  0
  2  9  1  0  0  0
  3  4  1  0  0  0
  3 27  1  0  0  0
  4  5  2  0  0  0
  4  8  1  0  0  0
  5  6  1  0  0  0
  5  7  1  0  0  0
  6 28  1  0  0  0
  9 10  1  0  0  0
  9 14  2  0  0  0
 10 11  2  0  0  0
 10 29  1  0  0  0
 11 12  1  0  0  0
 11 30  1  0  0  0
 12 13  2  0  0  0
 12 15  1  0  0  0
 13 14  1  0  0  0
 13 31  1  0  0  0
 14 32  1  0  0  0
 15 16  2  0  0  0
 15 17  2  0  0  0
 15 18  1  0  0  0
 18 33  1  0  0  0
 18 34  1  0  0  0
 19 20  1  0  0  0
 19 24  2  0  0  0
 20 21  2  0  0  0
 20 35  1  0  0  0
 21 22  1  0  0  0
 21 26  1  0  0  0
 22 23  2  0  0  0
 22 25  1  0  0  0
 23 24  1  0  0  0
 23 36  1  0  0  0
 24 37  1  0  0  0
 25 38  1  0  0  0
 25 39  1  0  0  0
 25 40  1  0  0  0
M  END
>  <Activity>
8.52288

>  <set>
1

>  <Min_dist>
999.9

>  <Avg_dist>
999.9

$$$$
7-21Q
  Cerius2 12110214513D 1   1.00000                          
 
 39 41  0  0  0  0  0  0  0  0999 V2000
    2.2941    0.3334    0.0275 C   0  0  0  0  0  0
    1.6244   -0.8995   -0.0275 C   0  0  0  0  0  0
    2.3580   -2.0820   -0.0591 C   0  0  0  0  0  0
    3.7394   -2.0390   -0.0362 C   0  0  0  0  0  0
    4.4016   -0.8198    0.0182 C   0  0  0  0  0  0
    3.6855    0.3620    0.0500 C   0  0  0  0  0  0
    5.7521   -0.7885    0.0406 F   0  0  0  0  0  0
    4.4484   -3.1886   -0.0665 F   0  0  0  0  0  0
    0.1429   -0.9416   -0.0514 C   0  0  0  0  0  0
   -0.5548   -1.6017    0.9591 C   0  0  0  0  0  0
   -1.9340   -1.6377    0.9316 C   0  0  0  0  0  0
   -2.6243   -1.0207   -0.0963 C   0  0  0  0  0  0
   -1.9374   -0.3645   -1.1019 C   0  0  0  0  0  0
   -0.5584   -0.3163   -1.0813 C   0  0  0  0  0  0
   -4.3853   -1.0713   -0.1250 S   0  0  0  0  0  0
   -4.7557   -0.8573   -1.4801 O   0  0  0  0  0  0
   -4.7521   -2.1977    0.6598 O   0  0  0  0  0  0
   -4.9323    0.2530    0.7054 N   0  0  0  0  0  0
    1.5229    1.5991    0.0554 C   0  0  0  0  0  0
    1.6877    2.5540   -0.9527 C   0  0  0  0  0  0
    0.9443    3.7191   -0.8809 C   0  0  0  0  0  0
    0.0701    3.9000    0.1758 C   0  0  0  0  0  0
   -0.0642    2.9812    1.1124 N   0  0  0  0  0  0
    0.6173    1.8542    1.0837 C   0  0  0  0  0  0
   -0.7411    5.1674    0.2584 C   0  0  0  0  0  0
    1.8479   -3.0330   -0.1011 H   0  0  0  0  0  0
    4.2056    1.3076    0.0920 H   0  0  0  0  0  0
   -0.0168   -2.0844    1.7617 H   0  0  0  0  0  0
   -2.4755   -2.1488    1.7138 H   0  0  0  0  0  0
   -2.4816    0.1148   -1.9022 H   0  0  0  0  0  0
   -0.0231    0.1962   -1.8670 H   0  0  0  0  0  0
   -5.8854    0.4051    0.8022 H   0  0  0  0  0  0
   -4.2996    0.8766    1.0949 H   0  0  0  0  0  0
    2.3779    2.3868   -1.7664 H   0  0  0  0  0  0
    1.0457    4.4791   -1.6415 H   0  0  0  0  0  0
    0.4798    1.1254    1.8688 H   0  0  0  0  0  0
   -1.6866    5.0284   -0.2658 H   0  0  0  0  0  0
   -0.9370    5.4058    1.3038 H   0  0  0  0  0  0
   -0.1866    5.9845   -0.2029 H   0  0  0  0  0  0
  1  2  1  0  0  0
  1  6  2  0  0  0
  1 19  1  0  0  0
  2  3  2  0  0  0
  2  9  1  0  0  0
  3  4  1  0  0  0
  3 26  1  0  0  0
  4  5  2  0  0  0
  4  8  1  0  0  0
  5  6  1  0  0  0
  5  7  1  0  0  0
  6 27  1  0  0  0
  9 10  1  0  0  0
  9 14  2  0  0  0
 10 11  2  0  0  0
 10 28  1  0  0  0
 11 12  1  0  0  0
 11 29  1  0  0  0
 12 13  2  0  0  0
 12 15  1  0  0  0
 13 14  1  0  0  0
 13 30  1  0  0  0
 14 31  1  0  0  0
 15 16  2  0  0  0
 15 17  2  0  0  0
 15 18  1  0  0  0
 18 32  1  0  0  0
 18 33  1  0  0  0
 19 20  1  0  0  0
 19 24  2  0  0  0
 20 21  2  0  0  0
 20 34  1  0  0  0
 21 22  1  0  0  0
 21 35  1  0  0  0
 22 23  2  0  0  0
 22 25  1  0  0  0
 23 24  1  0  0  0
 24 36  1  0  0  0
 25 37  1  0  0  0
 25 38  1  0  0  0
 25 39  1  0  0  0
M  END
>  <Activity>
7.29243

>  <set>
1

>  <Min_dist>
999.9

>  <Avg_dist>
999.9

$$$$
7-21P
  Cerius2 12110214513D 1   1.00000                          
 
 39 41  0  0  0  0  0  0  0  0999 V2000
    2.2908    0.3208   -0.0084 C   0  0  0  0  0  0
    1.6115   -0.9083   -0.0320 C   0  0  0  0  0  0
    2.3361   -2.0962   -0.0594 C   0  0  0  0  0  0
    3.7180   -2.0628   -0.0632 C   0  0  0  0  0  0
    4.3898   -0.8476   -0.0394 C   0  0  0  0  0  0
    3.6829    0.3396   -0.0125 C   0  0  0  0  0  0
    5.7406   -0.8259   -0.0425 F   0  0  0  0  0  0
    4.4184   -3.2178   -0.0898 F   0  0  0  0  0  0
    0.1295   -0.9401   -0.0273 C   0  0  0  0  0  0
   -0.5534   -1.5799    1.0061 C   0  0  0  0  0  0
   -1.9331   -1.6063    1.0051 C   0  0  0  0  0  0
   -2.6385   -0.9996   -0.0186 C   0  0  0  0  0  0
   -1.9663   -0.3632   -1.0466 C   0  0  0  0  0  0
   -0.5868   -0.3254   -1.0533 C   0  0  0  0  0  0
   -4.4001   -1.0380   -0.0134 S   0  0  0  0  0  0
   -4.7945   -0.8413   -1.3643 O   0  0  0  0  0  0
   -4.7596   -2.1501    0.7948 O   0  0  0  0  0  0
   -4.9220    0.3022    0.8074 N   0  0  0  0  0  0
    1.5294    1.5916    0.0147 C   0  0  0  0  0  0
    1.9721    2.6487    0.8088 C   0  0  0  0  0  0
    1.2506    3.8293    0.8195 C   0  0  0  0  0  0
    0.1086    3.9152    0.0351 C   0  0  0  0  0  0
   -0.2732    2.8280   -0.7286 C   0  0  0  0  0  0
    0.4345    1.7165   -0.7248 N   0  0  0  0  0  0
   -0.7078    5.1818    0.0167 C   0  0  0  0  0  0
    1.8188   -3.0440   -0.0773 H   0  0  0  0  0  0
    4.2103    1.2819    0.0056 H   0  0  0  0  0  0
   -0.0037   -2.0542    1.8056 H   0  0  0  0  0  0
   -2.4632   -2.1020    1.8049 H   0  0  0  0  0  0
   -2.5222    0.1084   -1.8434 H   0  0  0  0  0  0
   -0.0631    0.1721   -1.8562 H   0  0  0  0  0  0
   -5.8720    0.4626    0.9200 H   0  0  0  0  0  0
   -4.2778    0.9269    1.1757 H   0  0  0  0  0  0
    2.8653    2.5473    1.4074 H   0  0  0  0  0  0
    1.5687    4.6652    1.4249 H   0  0  0  0  0  0
   -1.1612    2.8919   -1.3399 H   0  0  0  0  0  0
   -0.3402    5.8396   -0.7709 H   0  0  0  0  0  0
   -1.7532    4.9376   -0.1723 H   0  0  0  0  0  0
   -0.6206    5.6844    0.9799 H   0  0  0  0  0  0
  1  2  1  0  0  0
  1  6  2  0  0  0
  1 19  1  0  0  0
  2  3  2  0  0  0
  2  9  1  0  0  0
  3  4  1  0  0  0
  3 26  1  0  0  0
  4  5  2  0  0  0
  4  8  1  0  0  0
  5  6  1  0  0  0
  5  7  1  0  0  0
  6 27  1  0  0  0
  9 10  1  0  0  0
  9 14  2  0  0  0
 10 11  2  0  0  0
 10 28  1  0  0  0
 11 12  1  0  0  0
 11 29  1  0  0  0
 12 13  2  0  0  0
 12 15  1  0  0  0
 13 14  1  0  0  0
 13 30  1  0  0  0
 14 31  1  0  0  0
 15 16  2  0  0  0
 15 17  2  0  0  0
 15 18  1  0  0  0
 18 32  1  0  0  0
 18 33  1  0  0  0
 19 20  1  0  0  0
 19 24  2  0  0  0
 20 21  2  0  0  0
 20 34  1  0  0  0
 21 22  1  0  0  0
 21 35  1  0  0  0
 22 23  2  0  0  0
 22 25  1  0  0  0
 23 24  1  0  0  0
 23 36  1  0  0  0
 25 37  1  0  0  0
 25 38  1  0  0  0
 25 39  1  0  0  0
M  END
>  <Activity>
6.48149

>  <set>
1

>  <Min_dist>
999.9

>  <Avg_dist>
999.9

$$$$
8-1B
  Cerius2 12110214513D 1   1.00000                          
 
 37 39  0  0  0  0  0  0  0  0999 V2000
   -3.2304   -0.6891    0.0276 C   0  0  0  0  0  0
   -2.5198   -1.6449   -0.6752 C   0  0  0  0  0  0
   -1.1399   -1.5966   -0.7073 C   0  0  0  0  0  0
   -0.4661   -0.5870   -0.0328 C   0  0  0  0  0  0
   -1.1825    0.3713    0.6721 C   0  0  0  0  0  0
   -2.5623    0.3175    0.7003 C   0  0  0  0  0  0
    0.9335   -0.5356   -0.0629 N   0  0  0  0  0  0
    1.6962    0.5922   -0.1700 C   0  0  0  0  0  0
    3.0052    0.1995   -0.1614 C   0  0  0  0  0  0
    3.0341   -1.1908   -0.0470 C   0  0  0  0  0  0
    1.8027   -1.6311    0.0174 N   0  0  0  0  0  0
    4.2760   -2.0431    0.0008 C   0  0  0  0  0  0
    3.9135   -3.3892    0.1186 F   0  0  0  0  0  0
    5.0129   -1.8598   -1.1742 F   0  0  0  0  0  0
    5.0544   -1.6716    1.1023 F   0  0  0  0  0  0
    1.1981    1.9809   -0.2757 C   0  0  0  0  0  0
    1.8507    3.0143    0.4020 C   0  0  0  0  0  0
    1.3794    4.3091    0.2979 C   0  0  0  0  0  0
    0.2650    4.5821   -0.4749 C   0  0  0  0  0  0
   -0.3849    3.5627   -1.1474 C   0  0  0  0  0  0
    0.0783    2.2659   -1.0569 C   0  0  0  0  0  0
    2.9388    2.7480    1.1572 F   0  0  0  0  0  0
   -4.9910   -0.7499    0.0599 S   0  0  0  0  0  0
   -5.4174    0.5709    0.3645 O   0  0  0  0  0  0
   -5.3729   -1.4930   -1.0895 O   0  0  0  0  0  0
   -5.4306   -1.6758    1.3607 N   0  0  0  0  0  0
   -3.0444   -2.4300   -1.1993 H   0  0  0  0  0  0
   -0.5855   -2.3435   -1.2560 H   0  0  0  0  0  0
   -0.6613    1.1575    1.1979 H   0  0  0  0  0  0
   -3.1201    1.0627    1.2480 H   0  0  0  0  0  0
    3.8646    0.8498   -0.2311 H   0  0  0  0  0  0
    1.8818    5.1094    0.8210 H   0  0  0  0  0  0
   -0.0995    5.5957   -0.5532 H   0  0  0  0  0  0
   -1.2546    3.7832   -1.7486 H   0  0  0  0  0  0
   -0.4308    1.4718   -1.5829 H   0  0  0  0  0  0
   -6.3691   -1.8302    1.5511 H   0  0  0  0  0  0
   -4.7496   -2.0638    1.9321 H   0  0  0  0  0  0
  1  2  1  0  0  0
  1  6  2  0  0  0
  1 23  1  0  0  0
  2  3  2  0  0  0
  2 27  1  0  0  0
  3  4  1  0  0  0
  3 28  1  0  0  0
  4  5  2  0  0  0
  4  7  1  0  0  0
  5  6  1  0  0  0
  5 29  1  0  0  0
  6 30  1  0  0  0
  7  8  1  0  0  0
  7 11  1  0  0  0
  8  9  2  0  0  0
  8 16  1  0  0  0
  9 10  1  0  0  0
  9 31  1  0  0  0
 10 11  2  0  0  0
 10 12  1  0  0  0
 12 13  1  0  0  0
 12 14  1  0  0  0
 12 15  1  0  0  0
 16 17  1  0  0  0
 16 21  2  0  0  0
 17 18  2  0  0  0
 17 22  1  0  0  0
 18 19  1  0  0  0
 18 32  1  0  0  0
 19 20  2  0  0  0
 19 33  1  0  0  0
 20 21  1  0  0  0
 20 34  1  0  0  0
 21 35  1  0  0  0
 23 24  2  0  0  0
 23 25  2  0  0  0
 23 26  1  0  0  0
 26 36  1  0  0  0
 26 37  1  0  0  0
M  END
>  <Activity>
7.23657

>  <set>
1

>  <Min_dist>
999.9

>  <Avg_dist>
999.9

$$$$
8-1C
  Cerius2 12110214513D 1   1.00000                          
 
 37 39  0  0  0  0  0  0  0  0999 V2000
   -3.2023   -0.7446    0.0313 C   0  0  0  0  0  0
   -2.5067   -1.7269   -0.6495 C   0  0  0  0  0  0
   -1.1260   -1.7068   -0.6733 C   0  0  0  0  0  0
   -0.4362   -0.6986   -0.0129 C   0  0  0  0  0  0
   -1.1376    0.2865    0.6696 C   0  0  0  0  0  0
   -2.5184    0.2606    0.6900 C   0  0  0  0  0  0
    0.9642   -0.6757   -0.0347 N   0  0  0  0  0  0
    1.7501    0.4345   -0.1573 C   0  0  0  0  0  0
    3.0508    0.0159   -0.1329 C   0  0  0  0  0  0
    3.0511   -1.3723    0.0071 C   0  0  0  0  0  0
    1.8107   -1.7867    0.0714 N   0  0  0  0  0  0
    4.2754   -2.2481    0.0787 C   0  0  0  0  0  0
    3.8852   -3.5843    0.2187 F   0  0  0  0  0  0
    5.0232   -2.1011   -1.0945 F   0  0  0  0  0  0
    5.0541   -1.8720    1.1784 F   0  0  0  0  0  0
    1.2806    1.8308   -0.2921 C   0  0  0  0  0  0
    1.9486    2.8612    0.3700 C   0  0  0  0  0  0
    1.5050    4.1633    0.2395 C   0  0  0  0  0  0
    0.3994    4.4451   -0.5472 C   0  0  0  0  0  0
   -0.2658    3.4266   -1.2049 C   0  0  0  0  0  0
    0.1716    2.1230   -1.0865 C   0  0  0  0  0  0
    2.1497    5.1630    0.8799 F   0  0  0  0  0  0
   -4.9640   -0.7700    0.0536 S   0  0  0  0  0  0
   -5.3658    0.5644    0.3316 O   0  0  0  0  0  0
   -5.3537   -1.5261   -1.0847 O   0  0  0  0  0  0
   -5.4297   -1.6632    1.3680 N   0  0  0  0  0  0
   -3.0437   -2.5107   -1.1630 H   0  0  0  0  0  0
   -0.5832   -2.4746   -1.2047 H   0  0  0  0  0  0
   -0.6040    1.0717    1.1844 H   0  0  0  0  0  0
   -3.0645    1.0268    1.2203 H   0  0  0  0  0  0
    3.9235    0.6475   -0.2090 H   0  0  0  0  0  0
    2.8099    2.6416    0.9834 H   0  0  0  0  0  0
    0.0557    5.4641   -0.6468 H   0  0  0  0  0  0
   -1.1272    3.6523   -1.8159 H   0  0  0  0  0  0
   -0.3494    1.3291   -1.6010 H   0  0  0  0  0  0
   -6.3722   -1.7955    1.5552 H   0  0  0  0  0  0
   -4.7600   -2.0541    1.9507 H   0  0  0  0  0  0
  1  2  1  0  0  0
  1  6  2  0  0  0
  1 23  1  0  0  0
  2  3  2  0  0  0
  2 27  1  0  0  0
  3  4  1  0  0  0
  3 28  1  0  0  0
  4  5  2  0  0  0
  4  7  1  0  0  0
  5  6  1  0  0  0
  5 29  1  0  0  0
  6 30  1  0  0  0
  7  8  1  0  0  0
  7 11  1  0  0  0
  8  9  2  0  0  0
  8 16  1  0  0  0
  9 10  1  0  0  0
  9 31  1  0  0  0
 10 11  2  0  0  0
 10 12  1  0  0  0
 12 13  1  0  0  0
 12 14  1  0  0  0
 12 15  1  0  0  0
 16 17  1  0  0  0
 16 21  2  0  0  0
 17 18  2  0  0  0
 17 32  1  0  0  0
 18 19  1  0  0  0
 18 22  1  0  0  0
 19 20  2  0  0  0
 19 33  1  0  0  0
 20 21  1  0  0  0
 20 34  1  0  0  0
 21 35  1  0  0  0
 23 24  2  0  0  0
 23 25  2  0  0  0
 23 26  1  0  0  0
 26 36  1  0  0  0
 26 37  1  0  0  0
M  END
>  <Activity>
5.11182

>  <set>
1

>  <Min_dist>
999.9

>  <Avg_dist>
999.9

$$$$
8-1D
  Cerius2 12110214513D 1   1.00000                          
 
 37 39  0  0  0  0  0  0  0  0999 V2000
   -3.0195   -1.0480    0.0074 C   0  0  0  0  0  0
   -2.2351   -1.9103   -0.7366 C   0  0  0  0  0  0
   -0.8616   -1.7662   -0.7417 C   0  0  0  0  0  0
   -0.2683   -0.7540    0.0011 C   0  0  0  0  0  0
   -1.0587    0.1103    0.7472 C   0  0  0  0  0  0
   -2.4318   -0.0391    0.7482 C   0  0  0  0  0  0
    1.1246   -0.6054   -0.0016 N   0  0  0  0  0  0
    1.8088    0.5762   -0.0307 C   0  0  0  0  0  0
    3.1415    0.2740   -0.0223 C   0  0  0  0  0  0
    3.2651   -1.1154    0.0124 C   0  0  0  0  0  0
    2.0663   -1.6418    0.0309 N   0  0  0  0  0  0
    4.5622   -1.8822    0.0317 C   0  0  0  0  0  0
    4.2922   -3.2545    0.0659 F   0  0  0  0  0  0
    5.2994   -1.5806   -1.1185 F   0  0  0  0  0  0
    5.2993   -1.5235    1.1654 F   0  0  0  0  0  0
    1.2171    1.9315   -0.0653 C   0  0  0  0  0  0
    1.7872    2.9635    0.6811 C   0  0  0  0  0  0
    1.2316    4.2254    0.6453 C   0  0  0  0  0  0
    0.1092    4.4693   -0.1300 C   0  0  0  0  0  0
   -0.4611    3.4478   -0.8727 C   0  0  0  0  0  0
    0.0904    2.1837   -0.8488 C   0  0  0  0  0  0
   -0.4311    5.7071   -0.1615 F   0  0  0  0  0  0
   -4.7720   -1.2308    0.0056 S   0  0  0  0  0  0
   -5.2928    0.0378    0.3779 O   0  0  0  0  0  0
   -5.0860   -1.9298   -1.1911 O   0  0  0  0  0  0
   -5.1638   -2.2589    1.2433 N   0  0  0  0  0  0
   -2.6971   -2.6976   -1.3139 H   0  0  0  0  0  0
   -0.2495   -2.4401   -1.3227 H   0  0  0  0  0  0
   -0.6003    0.8983    1.3262 H   0  0  0  0  0  0
   -3.0471    0.6328    1.3282 H   0  0  0  0  0  0
    3.9548    0.9844   -0.0398 H   0  0  0  0  0  0
    2.6618    2.7744    1.2859 H   0  0  0  0  0  0
    1.6719    5.0248    1.2229 H   0  0  0  0  0  0
   -1.3360    3.6429   -1.4750 H   0  0  0  0  0  0
   -0.3546    1.3883   -1.4282 H   0  0  0  0  0  0
   -6.0919   -2.4879    1.4081 H   0  0  0  0  0  0
   -4.4653   -2.6321    1.8033 H   0  0  0  0  0  0
  1  2  1  0  0  0
  1  6  2  0  0  0
  1 23  1  0  0  0
  2  3  2  0  0  0
  2 27  1  0  0  0
  3  4  1  0  0  0
  3 28  1  0  0  0
  4  5  2  0  0  0
  4  7  1  0  0  0
  5  6  1  0  0  0
  5 29  1  0  0  0
  6 30  1  0  0  0
  7  8  1  0  0  0
  7 11  1  0  0  0
  8  9  2  0  0  0
  8 16  1  0  0  0
  9 10  1  0  0  0
  9 31  1  0  0  0
 10 11  2  0  0  0
 10 12  1  0  0  0
 12 13  1  0  0  0
 12 14  1  0  0  0
 12 15  1  0  0  0
 16 17  1  0  0  0
 16 21  2  0  0  0
 17 18  2  0  0  0
 17 32  1  0  0  0
 18 19  1  0  0  0
 18 33  1  0  0  0
 19 20  2  0  0  0
 19 22  1  0  0  0
 20 21  1  0  0  0
 20 34  1  0  0  0
 21 35  1  0  0  0
 23 24  2  0  0  0
 23 25  2  0  0  0
 23 26  1  0  0  0
 26 36  1  0  0  0
 26 37  1  0  0  0
M  END
>  <Activity>
7.38722

>  <set>
1

>  <Min_dist>
999.9

>  <Avg_dist>
999.9

$$$$
8-1G
  Cerius2 12110214513D 1   1.00000                          
 
 40 42  0  0  0  0  0  0  0  0999 V2000
   -3.2009   -0.6885    0.0272 C   0  0  0  0  0  0
   -2.4805   -1.6337   -0.6798 C   0  0  0  0  0  0
   -1.1011   -1.5725   -0.7097 C   0  0  0  0  0  0
   -0.4376   -0.5603   -0.0289 C   0  0  0  0  0  0
   -1.1638    0.3874    0.6802 C   0  0  0  0  0  0
   -2.5430    0.3206    0.7063 C   0  0  0  0  0  0
    0.9615   -0.4957   -0.0569 N   0  0  0  0  0  0
    1.7138    0.6397   -0.1569 C   0  0  0  0  0  0
    3.0263    0.2592   -0.1492 C   0  0  0  0  0  0
    3.0681   -1.1313   -0.0426 C   0  0  0  0  0  0
    1.8408   -1.5835    0.0187 N   0  0  0  0  0  0
    4.3178   -1.9723    0.0013 C   0  0  0  0  0  0
    3.9678   -3.3224    0.1114 F   0  0  0  0  0  0
    5.0537   -1.7755   -1.1721 F   0  0  0  0  0  0
    5.0921   -1.5998    1.1053 F   0  0  0  0  0  0
    1.2028    2.0244   -0.2558 C   0  0  0  0  0  0
    1.8441    3.0584    0.4275 C   0  0  0  0  0  0
    1.3629    4.3476    0.3308 C   0  0  0  0  0  0
    0.2468    4.6166   -0.4416 C   0  0  0  0  0  0
   -0.3934    3.5961   -1.1213 C   0  0  0  0  0  0
    0.0812    2.3030   -1.0371 C   0  0  0  0  0  0
    3.0595    2.7672    1.2696 C   0  0  0  0  0  0
   -4.9609   -0.7659    0.0569 S   0  0  0  0  0  0
   -5.4000    0.5493    0.3681 O   0  0  0  0  0  0
   -5.3343   -1.5062   -1.0971 O   0  0  0  0  0  0
   -5.3935   -1.7029    1.3520 N   0  0  0  0  0  0
   -2.9971   -2.4209   -1.2088 H   0  0  0  0  0  0
   -0.5390   -2.3112   -1.2618 H   0  0  0  0  0  0
   -0.6506    1.1756    1.2110 H   0  0  0  0  0  0
   -3.1084    1.0574    1.2576 H   0  0  0  0  0  0
    3.8797    0.9178   -0.2144 H   0  0  0  0  0  0
    1.8582    5.1487    0.8595 H   0  0  0  0  0  0
   -0.1262    5.6275   -0.5138 H   0  0  0  0  0  0
   -1.2643    3.8124   -1.7223 H   0  0  0  0  0  0
   -0.4196    1.5071   -1.5683 H   0  0  0  0  0  0
    3.9566    2.8610    0.6576 H   0  0  0  0  0  0
    3.1076    3.4766    2.0958 H   0  0  0  0  0  0
    2.9935    1.7534    1.6646 H   0  0  0  0  0  0
   -6.3308   -1.8670    1.5403 H   0  0  0  0  0  0
   -4.7096   -2.0876    1.9223 H   0  0  0  0  0  0
  1  2  1  0  0  0
  1  6  2  0  0  0
  1 23  1  0  0  0
  2  3  2  0  0  0
  2 27  1  0  0  0
  3  4  1  0  0  0
  3 28  1  0  0  0
  4  5  2  0  0  0
  4  7  1  0  0  0
  5  6  1  0  0  0
  5 29  1  0  0  0
  6 30  1  0  0  0
  7  8  1  0  0  0
  7 11  1  0  0  0
  8  9  2  0  0  0
  8 16  1  0  0  0
  9 10  1  0  0  0
  9 31  1  0  0  0
 10 11  2  0  0  0
 10 12  1  0  0  0
 12 13  1  0  0  0
 12 14  1  0  0  0
 12 15  1  0  0  0
 16 17  1  0  0  0
 16 21  2  0  0  0
 17 18  2  0  0  0
 17 22  1  0  0  0
 18 19  1  0  0  0
 18 32  1  0  0  0
 19 20  2  0  0  0
 19 33  1  0  0  0
 20 21  1  0  0  0
 20 34  1  0  0  0
 21 35  1  0  0  0
 22 36  1  0  0  0
 22 37  1  0  0  0
 22 38  1  0  0  0
 23 24  2  0  0  0
 23 25  2  0  0  0
 23 26  1  0  0  0
 26 39  1  0  0  0
 26 40  1  0  0  0
M  END
>  <Activity>
7.16115

>  <set>
1

>  <Min_dist>
999.9

>  <Avg_dist>
999.9

$$$$
8-1I
  Cerius2 12110214513D 1   1.00000                          
 
 40 42  0  0  0  0  0  0  0  0999 V2000
   -3.0208   -0.9960    0.0073 C   0  0  0  0  0  0
   -2.2367   -1.8596   -0.7355 C   0  0  0  0  0  0
   -0.8631   -1.7159   -0.7409 C   0  0  0  0  0  0
   -0.2695   -0.7029    0.0006 C   0  0  0  0  0  0
   -1.0596    0.1626    0.7455 C   0  0  0  0  0  0
   -2.4327    0.0137    0.7468 C   0  0  0  0  0  0
    1.1235   -0.5548   -0.0024 N   0  0  0  0  0  0
    1.8081    0.6265   -0.0330 C   0  0  0  0  0  0
    3.1407    0.3238   -0.0242 C   0  0  0  0  0  0
    3.2638   -1.0655    0.0124 C   0  0  0  0  0  0
    2.0649   -1.5915    0.0316 N   0  0  0  0  0  0
    4.5607   -1.8327    0.0329 C   0  0  0  0  0  0
    4.2903   -3.2049    0.0689 F   0  0  0  0  0  0
    5.2982   -1.5328   -1.1175 F   0  0  0  0  0  0
    5.2976   -1.4728    1.1663 F   0  0  0  0  0  0
    1.2169    1.9820   -0.0694 C   0  0  0  0  0  0
    1.7870    3.0151    0.6752 C   0  0  0  0  0  0
    1.2311    4.2773    0.6366 C   0  0  0  0  0  0
    0.1106    4.5195   -0.1379 C   0  0  0  0  0  0
   -0.4594    3.4994   -0.8785 C   0  0  0  0  0  0
    0.0904    2.2341   -0.8530 C   0  0  0  0  0  0
   -0.4919    5.9003   -0.1746 C   0  0  0  0  0  0
   -4.7733   -1.1781    0.0057 S   0  0  0  0  0  0
   -5.2937    0.0912    0.3763 O   0  0  0  0  0  0
   -5.0876   -1.8786   -1.1901 O   0  0  0  0  0  0
   -5.1656   -2.2044    1.2447 N   0  0  0  0  0  0
   -2.6989   -2.6474   -1.3118 H   0  0  0  0  0  0
   -0.2512   -2.3909   -1.3209 H   0  0  0  0  0  0
   -0.6009    0.9512    1.3235 H   0  0  0  0  0  0
   -3.0477    0.6866    1.3259 H   0  0  0  0  0  0
    3.9542    1.0340   -0.0426 H   0  0  0  0  0  0
    2.6612    2.8271    1.2808 H   0  0  0  0  0  0
    1.6713    5.0779    1.2125 H   0  0  0  0  0  0
   -1.3340    3.6948   -1.4812 H   0  0  0  0  0  0
   -0.3552    1.4387   -1.4319 H   0  0  0  0  0  0
   -0.0344    6.4751   -0.9799 H   0  0  0  0  0  0
   -1.5655    5.8238   -0.3474 H   0  0  0  0  0  0
   -0.3118    6.4008    0.7768 H   0  0  0  0  0  0
   -6.0937   -2.4329    1.4099 H   0  0  0  0  0  0
   -4.4672   -2.5771    1.8053 H   0  0  0  0  0  0
  1  2  1  0  0  0
  1  6  2  0  0  0
  1 23  1  0  0  0
  2  3  2  0  0  0
  2 27  1  0  0  0
  3  4  1  0  0  0
  3 28  1  0  0  0
  4  5  2  0  0  0
  4  7  1  0  0  0
  5  6  1  0  0  0
  5 29  1  0  0  0
  6 30  1  0  0  0
  7  8  1  0  0  0
  7 11  1  0  0  0
  8  9  2  0  0  0
  8 16  1  0  0  0
  9 10  1  0  0  0
  9 31  1  0  0  0
 10 11  2  0  0  0
 10 12  1  0  0  0
 12 13  1  0  0  0
 12 14  1  0  0  0
 12 15  1  0  0  0
 16 17  1  0  0  0
 16 21  2  0  0  0
 17 18  2  0  0  0
 17 32  1  0  0  0
 18 19  1  0  0  0
 18 33  1  0  0  0
 19 20  2  0  0  0
 19 22  1  0  0  0
 20 21  1  0  0  0
 20 34  1  0  0  0
 21 35  1  0  0  0
 22 36  1  0  0  0
 22 37  1  0  0  0
 22 38  1  0  0  0
 23 24  2  0  0  0
 23 25  2  0  0  0
 23 26  1  0  0  0
 26 39  1  0  0  0
 26 40  1  0  0  0
M  END
>  <Activity>
7.39794

>  <set>
1

>  <Min_dist>
999.9

>  <Avg_dist>
999.9

$$$$
8-1J
  Cerius2 12110214513D 1   1.00000                          
 
 43 45  0  0  0  0  0  0  0  0999 V2000
   -3.0402   -1.2062   -0.0073 C   0  0  0  0  0  0
   -2.2642   -2.0394   -0.7921 C   0  0  0  0  0  0
   -0.8892   -1.9097   -0.7895 C   0  0  0  0  0  0
   -0.2861   -0.9413    0.0023 C   0  0  0  0  0  0
   -1.0682   -0.1062    0.7892 C   0  0  0  0  0  0
   -2.4427   -0.2409    0.7822 C   0  0  0  0  0  0
    1.1083   -0.8076    0.0075 N   0  0  0  0  0  0
    1.8050    0.3667    0.0366 C   0  0  0  0  0  0
    3.1344    0.0503    0.0309 C   0  0  0  0  0  0
    3.2433   -1.3402   -0.0022 C   0  0  0  0  0  0
    2.0390   -1.8543   -0.0101 N   0  0  0  0  0  0
    4.5323   -2.1208   -0.0194 C   0  0  0  0  0  0
    4.2478   -3.4902   -0.0524 F   0  0  0  0  0  0
    5.2740   -1.7711   -1.1529 F   0  0  0  0  0  0
    5.2716   -1.8257    1.1310 F   0  0  0  0  0  0
    1.2277    1.7283    0.0679 C   0  0  0  0  0  0
    1.8075    2.7169    0.8637 C   0  0  0  0  0  0
    1.2645    3.9851    0.8881 C   0  0  0  0  0  0
    0.1474    4.2773    0.1261 C   0  0  0  0  0  0
   -0.4321    3.3015   -0.6651 C   0  0  0  0  0  0
    0.1046    2.0310   -0.7027 C   0  0  0  0  0  0
   -0.4410    5.6643    0.1583 C   0  0  0  0  0  0
    0.2107    6.5201   -0.9297 C   0  0  0  0  0  0
   -4.7946   -1.3700   -0.0190 S   0  0  0  0  0  0
   -5.3024   -0.1156    0.4145 O   0  0  0  0  0  0
   -5.1147   -2.0063   -1.2486 O   0  0  0  0  0  0
   -5.1986   -2.4531    1.1667 N   0  0  0  0  0  0
   -2.7339   -2.7926   -1.4073 H   0  0  0  0  0  0
   -0.2837   -2.5610   -1.4023 H   0  0  0  0  0  0
   -0.6020    0.6477    1.4063 H   0  0  0  0  0  0
   -3.0514    0.4083    1.3940 H   0  0  0  0  0  0
    3.9551    0.7521    0.0486 H   0  0  0  0  0  0
    2.6791    2.4899    1.4596 H   0  0  0  0  0  0
    1.7123    4.7512    1.5037 H   0  0  0  0  0  0
   -1.3041    3.5359   -1.2577 H   0  0  0  0  0  0
   -0.3485    1.2702   -1.3210 H   0  0  0  0  0  0
   -1.5150    5.6076   -0.0186 H   0  0  0  0  0  0
   -0.2567    6.1146    1.1337 H   0  0  0  0  0  0
   -0.2149    7.5234   -0.9064 H   0  0  0  0  0  0
    1.2847    6.5769   -0.7528 H   0  0  0  0  0  0
    0.0264    6.0699   -1.9051 H   0  0  0  0  0  0
   -6.1292   -2.6800    1.3197 H   0  0  0  0  0  0
   -4.5047   -2.8606    1.7083 H   0  0  0  0  0  0
  1  2  1  0  0  0
  1  6  2  0  0  0
  1 24  1  0  0  0
  2  3  2  0  0  0
  2 28  1  0  0  0
  3  4  1  0  0  0
  3 29  1  0  0  0
  4  5  2  0  0  0
  4  7  1  0  0  0
  5  6  1  0  0  0
  5 30  1  0  0  0
  6 31  1  0  0  0
  7  8  1  0  0  0
  7 11  1  0  0  0
  8  9  2  0  0  0
  8 16  1  0  0  0
  9 10  1  0  0  0
  9 32  1  0  0  0
 10 11  2  0  0  0
 10 12  1  0  0  0
 12 13  1  0  0  0
 12 14  1  0  0  0
 12 15  1  0  0  0
 16 17  1  0  0  0
 16 21  2  0  0  0
 17 18  2  0  0  0
 17 33  1  0  0  0
 18 19  1  0  0  0
 18 34  1  0  0  0
 19 20  2  0  0  0
 19 22  1  0  0  0
 20 21  1  0  0  0
 20 35  1  0  0  0
 21 36  1  0  0  0
 22 23  1  0  0  0
 22 37  1  0  0  0
 22 38  1  0  0  0
 23 39  1  0  0  0
 23 40  1  0  0  0
 23 41  1  0  0  0
 24 25  2  0  0  0
 24 26  2  0  0  0
 24 27  1  0  0  0
 27 42  1  0  0  0
 27 43  1  0  0  0
M  END
>  <Activity>
6.0655

>  <set>
1

>  <Min_dist>
999.9

>  <Avg_dist>
999.9

$$$$
8-1L
  Cerius2 12110214513D 1   1.00000                          
 
 39 41  0  0  0  0  0  0  0  0999 V2000
   -2.8032   -1.7691    0.0213 C   0  0  0  0  0  0
   -1.9400   -2.5426   -0.7329 C   0  0  0  0  0  0
   -0.5879   -2.2612   -0.7429 C   0  0  0  0  0  0
   -0.0955   -1.2000    0.0051 C   0  0  0  0  0  0
   -0.9649   -0.4247    0.7611 C   0  0  0  0  0  0
   -2.3159   -0.7115    0.7672 C   0  0  0  0  0  0
    1.2754   -0.9123   -0.0026 N   0  0  0  0  0  0
    1.8374    0.3322   -0.0255 C   0  0  0  0  0  0
    3.1938    0.1653   -0.0252 C   0  0  0  0  0  0
    3.4563   -1.2048   -0.0016 C   0  0  0  0  0  0
    2.3166   -1.8491    0.0180 N   0  0  0  0  0  0
    4.8240   -1.8376    0.0069 C   0  0  0  0  0  0
    4.6933   -3.2302    0.0317 F   0  0  0  0  0  0
    5.5220   -1.4551   -1.1436 F   0  0  0  0  0  0
    5.5264   -1.4149    1.1406 F   0  0  0  0  0  0
    1.1126    1.6215   -0.0476 C   0  0  0  0  0  0
    1.5793    2.7006    0.7038 C   0  0  0  0  0  0
    0.8990    3.9006    0.6786 C   0  0  0  0  0  0
   -0.2440    4.0352   -0.0892 C   0  0  0  0  0  0
   -0.7123    2.9689   -0.8361 C   0  0  0  0  0  0
   -0.0375    1.7655   -0.8243 C   0  0  0  0  0  0
   -0.9694    5.3253   -0.1113 N   0  3  0  0  0  0
   -1.9759    5.4466   -0.7863 O   0  0  0  0  0  0
   -0.5597    6.2656    0.5456 O   0  0  0  0  0  0
   -4.5284   -2.1272    0.0261 S   0  0  0  0  0  0
   -5.1722   -0.9202    0.4107 O   0  0  0  0  0  0
   -4.7769   -2.8455   -1.1745 O   0  0  0  0  0  0
   -4.8082   -3.1985    1.2575 N   0  0  0  0  0  0
   -2.3236   -3.3679   -1.3145 H   0  0  0  0  0  0
    0.0858   -2.8662   -1.3316 H   0  0  0  0  0  0
   -0.5849    0.4011    1.3441 H   0  0  0  0  0  0
   -2.9926   -0.1088    1.3547 H   0  0  0  0  0  0
    3.9315    0.9539   -0.0405 H   0  0  0  0  0  0
    2.4711    2.5966    1.3041 H   0  0  0  0  0  0
    1.2592    4.7366    1.2597 H   0  0  0  0  0  0
   -1.6053    3.0801   -1.4332 H   0  0  0  0  0  0
   -0.4038    0.9339   -1.4081 H   0  0  0  0  0  0
   -5.7076   -3.5209    1.4249 H   0  0  0  0  0  0
   -4.0727   -3.5035    1.8115 H   0  0  0  0  0  0
  1  2  1  0  0  0
  1  6  2  0  0  0
  1 25  1  0  0  0
  2  3  2  0  0  0
  2 29  1  0  0  0
  3  4  1  0  0  0
  3 30  1  0  0  0
  4  5  2  0  0  0
  4  7  1  0  0  0
  5  6  1  0  0  0
  5 31  1  0  0  0
  6 32  1  0  0  0
  7  8  1  0  0  0
  7 11  1  0  0  0
  8  9  2  0  0  0
  8 16  1  0  0  0
  9 10  1  0  0  0
  9 33  1  0  0  0
 10 11  2  0  0  0
 10 12  1  0  0  0
 12 13  1  0  0  0
 12 14  1  0  0  0
 12 15  1  0  0  0
 16 17  1  0  0  0
 16 21  2  0  0  0
 17 18  2  0  0  0
 17 34  1  0  0  0
 18 19  1  0  0  0
 18 35  1  0  0  0
 19 20  2  0  0  0
 19 22  1  0  0  0
 20 21  1  0  0  0
 20 36  1  0  0  0
 21 37  1  0  0  0
 22 23  2  0  0  0
 22 24  1  0  0  0
 25 26  2  0  0  0
 25 27  2  0  0  0
 25 28  1  0  0  0
 28 38  1  0  0  0
 28 39  1  0  0  0
M  CHG  1  22   1
M  END
>  <Activity>
5.58004

>  <set>
1

>  <Min_dist>
999.9

>  <Avg_dist>
999.9

$$$$
8-1N
  Cerius2 12110214513D 1   1.00000                          
 
 41 43  0  0  0  0  0  0  0  0999 V2000
   -3.3823   -0.6067    0.0638 C   0  0  0  0  0  0
   -2.7467   -1.6414   -0.5978 C   0  0  0  0  0  0
   -1.3673   -1.6836   -0.6529 C   0  0  0  0  0  0
   -0.6187   -0.6854   -0.0434 C   0  0  0  0  0  0
   -1.2600    0.3525    0.6198 C   0  0  0  0  0  0
   -2.6396    0.3888    0.6718 C   0  0  0  0  0  0
    0.7805   -0.7256   -0.0971 N   0  0  0  0  0  0
    1.6111    0.3438   -0.2756 C   0  0  0  0  0  0
    2.8927   -0.1313   -0.2651 C   0  0  0  0  0  0
    2.8354   -1.5126   -0.0769 C   0  0  0  0  0  0
    1.5799   -1.8689    0.0288 N   0  0  0  0  0  0
    4.0214   -2.4393   -0.0016 C   0  0  0  0  0  0
    3.5764   -3.7513    0.1934 F   0  0  0  0  0  0
    4.7472   -2.3657   -1.1954 F   0  0  0  0  0  0
    4.8415   -2.0613    1.0668 F   0  0  0  0  0  0
    1.2002    1.7537   -0.4486 C   0  0  0  0  0  0
    1.9300    2.7795    0.1642 C   0  0  0  0  0  0
    1.5373    4.0970   -0.0037 C   0  0  0  0  0  0
    0.4285    4.3969   -0.7732 C   0  0  0  0  0  0
   -0.2954    3.3859   -1.3800 C   0  0  0  0  0  0
    0.0873    2.0687   -1.2276 C   0  0  0  0  0  0
    3.0187    2.4837    0.9209 O   0  0  0  0  0  0
    3.5378    3.7255    1.4010 C   0  0  0  0  0  0
   -5.1424   -0.5529    0.1261 S   0  0  0  0  0  0
   -5.4788    0.8067    0.3664 O   0  0  0  0  0  0
   -5.5916   -1.3289   -0.9763 O   0  0  0  0  0  0
   -5.6154   -1.3796    1.4808 N   0  0  0  0  0  0
   -3.3295   -2.4174   -1.0716 H   0  0  0  0  0  0
   -0.8714   -2.4923   -1.1691 H   0  0  0  0  0  0
   -0.6805    1.1301    1.0951 H   0  0  0  0  0  0
   -3.1390    1.1957    1.1875 H   0  0  0  0  0  0
    3.7903    0.4578   -0.3822 H   0  0  0  0  0  0
    2.0976    4.8910    0.4674 H   0  0  0  0  0  0
    0.1257    5.4257   -0.9011 H   0  0  0  0  0  0
   -1.1605    3.6288   -1.9793 H   0  0  0  0  0  0
   -0.4800    1.2823   -1.7031 H   0  0  0  0  0  0
    4.4174    3.5378    2.0167 H   0  0  0  0  0  0
    3.8140    4.3551    0.5552 H   0  0  0  0  0  0
    2.7779    4.2307    1.9972 H   0  0  0  0  0  0
   -6.5581   -1.4634    1.6933 H   0  0  0  0  0  0
   -4.9498   -1.7800    2.0617 H   0  0  0  0  0  0
  1  2  1  0  0  0
  1  6  2  0  0  0
  1 24  1  0  0  0
  2  3  2  0  0  0
  2 28  1  0  0  0
  3  4  1  0  0  0
  3 29  1  0  0  0
  4  5  2  0  0  0
  4  7  1  0  0  0
  5  6  1  0  0  0
  5 30  1  0  0  0
  6 31  1  0  0  0
  7  8  1  0  0  0
  7 11  1  0  0  0
  8  9  2  0  0  0
  8 16  1  0  0  0
  9 10  1  0  0  0
  9 32  1  0  0  0
 10 11  2  0  0  0
 10 12  1  0  0  0
 12 13  1  0  0  0
 12 14  1  0  0  0
 12 15  1  0  0  0
 16 17  1  0  0  0
 16 21  2  0  0  0
 17 18  2  0  0  0
 17 22  1  0  0  0
 18 19  1  0  0  0
 18 33  1  0  0  0
 19 20  2  0  0  0
 19 34  1  0  0  0
 20 21  1  0  0  0
 20 35  1  0  0  0
 21 36  1  0  0  0
 22 23  1  0  0  0
 23 37  1  0  0  0
 23 38  1  0  0  0
 23 39  1  0  0  0
 24 25  2  0  0  0
 24 26  2  0  0  0
 24 27  1  0  0  0
 27 40  1  0  0  0
 27 41  1  0  0  0
M  END
>  <Activity>
6.5376

>  <set>
1

>  <Min_dist>
999.9

>  <Avg_dist>
999.9

$$$$
8-1O
  Cerius2 12110214513D 1   1.00000                          
 
 41 43  0  0  0  0  0  0  0  0999 V2000
   -2.8747   -1.4117    0.0164 C   0  0  0  0  0  0
   -2.0408   -2.1930   -0.7623 C   0  0  0  0  0  0
   -0.6796   -1.9588   -0.7686 C   0  0  0  0  0  0
   -0.1488   -0.9372    0.0079 C   0  0  0  0  0  0
   -0.9890   -0.1541    0.7885 C   0  0  0  0  0  0
   -2.3492   -0.3937    0.7907 C   0  0  0  0  0  0
    1.2313   -0.6974    0.0041 N   0  0  0  0  0  0
    1.8364    0.5269    0.0150 C   0  0  0  0  0  0
    3.1862    0.3127    0.0063 C   0  0  0  0  0  0
    3.4007   -1.0659   -0.0101 C   0  0  0  0  0  0
    2.2391   -1.6702   -0.0053 N   0  0  0  0  0  0
    4.7453   -1.7462   -0.0240 C   0  0  0  0  0  0
    4.5659   -3.1335   -0.0386 F   0  0  0  0  0  0
    5.4538   -1.3555   -1.1654 F   0  0  0  0  0  0
    5.4645   -1.3810    1.1190 F   0  0  0  0  0  0
    1.1572    1.8406    0.0321 C   0  0  0  0  0  0
    1.6641    2.8801    0.8132 C   0  0  0  0  0  0
    1.0281    4.1032    0.8265 C   0  0  0  0  0  0
   -0.1156    4.3014    0.0645 C   0  0  0  0  0  0
   -0.6230    3.2696   -0.7139 C   0  0  0  0  0  0
    0.0109    2.0455   -0.7373 C   0  0  0  0  0  0
   -0.7402    5.5080    0.0809 O   0  0  0  0  0  0
   -1.8683    5.4011   -0.7897 C   0  0  0  0  0  0
   -4.6114   -1.7094    0.0164 S   0  0  0  0  0  0
   -5.2117   -0.4921    0.4373 O   0  0  0  0  0  0
   -4.8875   -2.3839   -1.2035 O   0  0  0  0  0  0
   -4.9259   -2.8051    1.2175 N   0  0  0  0  0  0
   -2.4542   -2.9874   -1.3660 H   0  0  0  0  0  0
   -0.0288   -2.5698   -1.3764 H   0  0  0  0  0  0
   -0.5791    0.6409    1.3937 H   0  0  0  0  0  0
   -3.0031    0.2152    1.3973 H   0  0  0  0  0  0
    3.9511    1.0752    0.0107 H   0  0  0  0  0  0
    2.5532    2.7265    1.4066 H   0  0  0  0  0  0
    1.4198    4.9082    1.4307 H   0  0  0  0  0  0
   -1.5128    3.4275   -1.3052 H   0  0  0  0  0  0
   -0.3841    1.2435   -1.3432 H   0  0  0  0  0  0
   -2.4036    6.3504   -0.8091 H   0  0  0  0  0  0
   -1.5287    5.1549   -1.7958 H   0  0  0  0  0  0
   -2.5330    4.6164   -0.4284 H   0  0  0  0  0  0
   -5.8357   -3.1006    1.3784 H   0  0  0  0  0  0
   -4.2003   -3.1515    1.7602 H   0  0  0  0  0  0
  1  2  1  0  0  0
  1  6  2  0  0  0
  1 24  1  0  0  0
  2  3  2  0  0  0
  2 28  1  0  0  0
  3  4  1  0  0  0
  3 29  1  0  0  0
  4  5  2  0  0  0
  4  7  1  0  0  0
  5  6  1  0  0  0
  5 30  1  0  0  0
  6 31  1  0  0  0
  7  8  1  0  0  0
  7 11  1  0  0  0
  8  9  2  0  0  0
  8 16  1  0  0  0
  9 10  1  0  0  0
  9 32  1  0  0  0
 10 11  2  0  0  0
 10 12  1  0  0  0
 12 13  1  0  0  0
 12 14  1  0  0  0
 12 15  1  0  0  0
 16 17  1  0  0  0
 16 21  2  0  0  0
 17 18  2  0  0  0
 17 33  1  0  0  0
 18 19  1  0  0  0
 18 34  1  0  0  0
 19 20  2  0  0  0
 19 22  1  0  0  0
 20 21  1  0  0  0
 20 35  1  0  0  0
 21 36  1  0  0  0
 22 23  1  0  0  0
 23 37  1  0  0  0
 23 38  1  0  0  0
 23 39  1  0  0  0
 24 25  2  0  0  0
 24 26  2  0  0  0
 24 27  1  0  0  0
 27 40  1  0  0  0
 27 41  1  0  0  0
M  END
>  <Activity>
8.09691

>  <set>
1

>  <Min_dist>
999.9

>  <Avg_dist>
999.9

$$$$
8-1Q
  Cerius2 12110214513D 1   1.00000                          
 
 41 43  0  0  0  0  0  0  0  0999 V2000
   -2.6338   -1.9347    0.0232 C   0  0  0  0  0  0
   -1.7275   -2.6244   -0.7612 C   0  0  0  0  0  0
   -0.3972   -2.2534   -0.7704 C   0  0  0  0  0  0
    0.0299   -1.1863    0.0089 C   0  0  0  0  0  0
   -0.8827   -0.4955    0.7952 C   0  0  0  0  0  0
   -2.2116   -0.8716    0.8003 C   0  0  0  0  0  0
    1.3786   -0.8079    0.0022 N   0  0  0  0  0  0
    1.8566    0.4714    0.0166 C   0  0  0  0  0  0
    3.2214    0.3950    0.0031 C   0  0  0  0  0  0
    3.5741   -0.9547   -0.0198 C   0  0  0  0  0  0
    2.4797   -1.6736   -0.0142 N   0  0  0  0  0  0
    4.9807   -1.4953   -0.0412 C   0  0  0  0  0  0
    4.9426   -2.8936   -0.0609 F   0  0  0  0  0  0
    5.6416   -1.0306   -1.1833 F   0  0  0  0  0  0
    5.6636   -1.0635    1.1009 F   0  0  0  0  0  0
    1.0481    1.7092    0.0419 C   0  0  0  0  0  0
    1.4508    2.7916    0.8264 C   0  0  0  0  0  0
    0.6955    3.9437    0.8482 C   0  0  0  0  0  0
   -0.4673    4.0291    0.0895 C   0  0  0  0  0  0
   -0.8711    2.9519   -0.6927 C   0  0  0  0  0  0
   -0.1163    1.7997   -0.7231 C   0  0  0  0  0  0
   -1.4308    5.5040    0.1198 S   0  0  0  0  0  0
   -2.7637    5.0329   -1.0169 C   0  0  0  0  0  0
   -4.3313   -2.4068    0.0269 S   0  0  0  0  0  0
   -5.0505   -1.2583    0.4547 O   0  0  0  0  0  0
   -4.5417   -3.1010   -1.1950 O   0  0  0  0  0  0
   -4.5292   -3.5335    1.2243 N   0  0  0  0  0  0
   -2.0603   -3.4542   -1.3671 H   0  0  0  0  0  0
    0.3102   -2.7929   -1.3827 H   0  0  0  0  0  0
   -0.5535    0.3346    1.4027 H   0  0  0  0  0  0
   -2.9219   -0.3345    1.4113 H   0  0  0  0  0  0
    3.9052    1.2310    0.0085 H   0  0  0  0  0  0
    2.3533    2.7257    1.4159 H   0  0  0  0  0  0
    1.0064    4.7812    1.4552 H   0  0  0  0  0  0
   -1.7747    3.0206   -1.2803 H   0  0  0  0  0  0
   -0.4301    0.9637   -1.3306 H   0  0  0  0  0  0
   -3.4681    5.8591   -1.1131 H   0  0  0  0  0  0
   -2.3420    4.7994   -1.9945 H   0  0  0  0  0  0
   -3.2819    4.1573   -0.6262 H   0  0  0  0  0  0
   -5.4039   -3.9203    1.3866 H   0  0  0  0  0  0
   -3.7705   -3.8066    1.7635 H   0  0  0  0  0  0
  1  2  1  0  0  0
  1  6  2  0  0  0
  1 24  1  0  0  0
  2  3  2  0  0  0
  2 28  1  0  0  0
  3  4  1  0  0  0
  3 29  1  0  0  0
  4  5  2  0  0  0
  4  7  1  0  0  0
  5  6  1  0  0  0
  5 30  1  0  0  0
  6 31  1  0  0  0
  7  8  1  0  0  0
  7 11  1  0  0  0
  8  9  2  0  0  0
  8 16  1  0  0  0
  9 10  1  0  0  0
  9 32  1  0  0  0
 10 11  2  0  0  0
 10 12  1  0  0  0
 12 13  1  0  0  0
 12 14  1  0  0  0
 12 15  1  0  0  0
 16 17  1  0  0  0
 16 21  2  0  0  0
 17 18  2  0  0  0
 17 33  1  0  0  0
 18 19  1  0  0  0
 18 34  1  0  0  0
 19 20  2  0  0  0
 19 22  1  0  0  0
 20 21  1  0  0  0
 20 35  1  0  0  0
 21 36  1  0  0  0
 22 23  1  0  0  0
 23 37  1  0  0  0
 23 38  1  0  0  0
 23 39  1  0  0  0
 24 25  2  0  0  0
 24 26  2  0  0  0
 24 27  1  0  0  0
 27 40  1  0  0  0
 27 41  1  0  0  0
M  END
>  <Activity>
8.04576

>  <set>
1

>  <Min_dist>
999.9

>  <Avg_dist>
999.9

$$$$
8-1R
  Cerius2 12110214513D 1   1.00000                          
 
 39 41  0  0  0  0  0  0  0  0999 V2000
   -3.0224   -1.0037    0.0081 C   0  0  0  0  0  0
   -2.2393   -1.8679   -0.7349 C   0  0  0  0  0  0
   -0.8655   -1.7255   -0.7405 C   0  0  0  0  0  0
   -0.2709   -0.7131    0.0010 C   0  0  0  0  0  0
   -1.0601    0.1531    0.7461 C   0  0  0  0  0  0
   -2.4333    0.0054    0.7476 C   0  0  0  0  0  0
    1.1222   -0.5663   -0.0022 N   0  0  0  0  0  0
    1.8079    0.6145   -0.0328 C   0  0  0  0  0  0
    3.1405    0.3104   -0.0243 C   0  0  0  0  0  0
    3.2621   -1.0791    0.0121 C   0  0  0  0  0  0
    2.0626   -1.6038    0.0314 N   0  0  0  0  0  0
    4.5582   -1.8477    0.0323 C   0  0  0  0  0  0
    4.2863   -3.2195    0.0682 F   0  0  0  0  0  0
    5.2958   -1.5484   -1.1182 F   0  0  0  0  0  0
    5.2956   -1.4886    1.1656 F   0  0  0  0  0  0
    1.2181    1.9702   -0.0692 C   0  0  0  0  0  0
    1.7906    3.0020    0.6764 C   0  0  0  0  0  0
    1.2388    4.2644    0.6405 C   0  0  0  0  0  0
    0.1130    4.5106   -0.1374 C   0  0  0  0  0  0
   -0.4594    3.4847   -0.8812 C   0  0  0  0  0  0
    0.0914    2.2217   -0.8538 C   0  0  0  0  0  0
   -0.4439    5.7899   -0.1714 N   0  0  0  0  0  0
   -4.7752   -1.1842    0.0068 S   0  0  0  0  0  0
   -5.2943    0.0855    0.3777 O   0  0  0  0  0  0
   -5.0903   -1.8843   -1.1889 O   0  0  0  0  0  0
   -5.1681   -2.2103    1.2458 N   0  0  0  0  0  0
   -2.7023   -2.6553   -1.3112 H   0  0  0  0  0  0
   -0.2544   -2.4009   -1.3208 H   0  0  0  0  0  0
   -0.6005    0.9412    1.3242 H   0  0  0  0  0  0
   -3.0477    0.6789    1.3267 H   0  0  0  0  0  0
    3.9547    1.0197   -0.0425 H   0  0  0  0  0  0
    2.6649    2.8113    1.2811 H   0  0  0  0  0  0
    1.6810    5.0630    1.2175 H   0  0  0  0  0  0
   -1.3339    3.6789   -1.4846 H   0  0  0  0  0  0
   -0.3537    1.4253   -1.4317 H   0  0  0  0  0  0
   -1.2293    5.9627   -0.7138 H   0  0  0  0  0  0
   -0.0455    6.5062    0.3474 H   0  0  0  0  0  0
   -6.0964   -2.4380    1.4111 H   0  0  0  0  0  0
   -4.4699   -2.5838    1.8062 H   0  0  0  0  0  0
  1  2  1  0  0  0
  1  6  2  0  0  0
  1 23  1  0  0  0
  2  3  2  0  0  0
  2 27  1  0  0  0
  3  4  1  0  0  0
  3 28  1  0  0  0
  4  5  2  0  0  0
  4  7  1  0  0  0
  5  6  1  0  0  0
  5 29  1  0  0  0
  6 30  1  0  0  0
  7  8  1  0  0  0
  7 11  1  0  0  0
  8  9  2  0  0  0
  8 16  1  0  0  0
  9 10  1  0  0  0
  9 31  1  0  0  0
 10 11  2  0  0  0
 10 12  1  0  0  0
 12 13  1  0  0  0
 12 14  1  0  0  0
 12 15  1  0  0  0
 16 17  1  0  0  0
 16 21  2  0  0  0
 17 18  2  0  0  0
 17 32  1  0  0  0
 18 19  1  0  0  0
 18 33  1  0  0  0
 19 20  2  0  0  0
 19 22  1  0  0  0
 20 21  1  0  0  0
 20 34  1  0  0  0
 21 35  1  0  0  0
 22 36  1  0  0  0
 22 37  1  0  0  0
 23 24  2  0  0  0
 23 25  2  0  0  0
 23 26  1  0  0  0
 26 38  1  0  0  0
 26 39  1  0  0  0
M  END
>  <Activity>
6.46852

>  <set>
1

>  <Min_dist>
999.9

>  <Avg_dist>
999.9

$$$$
8-1T
  Cerius2 12110214513D 1   1.00000                          
 
 42 44  0  0  0  0  0  0  0  0999 V2000
   -2.8618   -1.4377    0.0151 C   0  0  0  0  0  0
   -2.0216   -2.2142   -0.7616 C   0  0  0  0  0  0
   -0.6624   -1.9692   -0.7681 C   0  0  0  0  0  0
   -0.1398   -0.9418    0.0063 C   0  0  0  0  0  0
   -0.9862   -0.1638    0.7851 C   0  0  0  0  0  0
   -2.3445   -0.4139    0.7874 C   0  0  0  0  0  0
    1.2384   -0.6911    0.0021 N   0  0  0  0  0  0
    1.8338    0.5381    0.0105 C   0  0  0  0  0  0
    3.1853    0.3345    0.0024 C   0  0  0  0  0  0
    3.4106   -1.0424   -0.0111 C   0  0  0  0  0  0
    2.2539   -1.6559   -0.0052 N   0  0  0  0  0  0
    4.7606   -1.7120   -0.0239 C   0  0  0  0  0  0
    4.5922   -3.1008   -0.0355 F   0  0  0  0  0  0
    5.4657   -1.3182   -1.1662 F   0  0  0  0  0  0
    5.4771   -1.3388    1.1182 F   0  0  0  0  0  0
    1.1442    1.8462    0.0248 C   0  0  0  0  0  0
    1.6432    2.8913    0.8041 C   0  0  0  0  0  0
    0.9984    4.1092    0.8155 C   0  0  0  0  0  0
   -0.1481    4.2976    0.0517 C   0  0  0  0  0  0
   -0.6475    3.2585   -0.7255 C   0  0  0  0  0  0
   -0.0037    2.0401   -0.7454 C   0  0  0  0  0  0
   -0.7991    5.5320    0.0656 N   0  0  0  0  0  0
   -2.0072    5.7320   -0.7386 C   0  0  0  0  0  0
   -4.5962   -1.7488    0.0151 S   0  0  0  0  0  0
   -5.2061   -0.5353    0.4331 O   0  0  0  0  0  0
   -4.8665   -2.4281   -1.2034 O   0  0  0  0  0  0
   -4.9027   -2.8443    1.2185 N   0  0  0  0  0  0
   -2.4286   -3.0133   -1.3634 H   0  0  0  0  0  0
   -0.0066   -2.5762   -1.3747 H   0  0  0  0  0  0
   -0.5828    0.6357    1.3887 H   0  0  0  0  0  0
   -3.0034    0.1910    1.3927 H   0  0  0  0  0  0
    3.9442    1.1030    0.0058 H   0  0  0  0  0  0
    2.5335    2.7454    1.3978 H   0  0  0  0  0  0
    1.3839    4.9180    1.4185 H   0  0  0  0  0  0
   -1.5382    3.4077   -1.3178 H   0  0  0  0  0  0
   -0.3921    1.2333   -1.3493 H   0  0  0  0  0  0
   -0.4517    6.2575    0.6077 H   0  0  0  0  0  0
   -2.3711    6.7502   -0.6005 H   0  0  0  0  0  0
   -1.7743    5.5690   -1.7909 H   0  0  0  0  0  0
   -2.7750    5.0258   -0.4227 H   0  0  0  0  0  0
   -5.8102   -3.1464    1.3797 H   0  0  0  0  0  0
   -4.1747   -3.1838    1.7623 H   0  0  0  0  0  0
  1  2  1  0  0  0
  1  6  2  0  0  0
  1 24  1  0  0  0
  2  3  2  0  0  0
  2 28  1  0  0  0
  3  4  1  0  0  0
  3 29  1  0  0  0
  4  5  2  0  0  0
  4  7  1  0  0  0
  5  6  1  0  0  0
  5 30  1  0  0  0
  6 31  1  0  0  0
  7  8  1  0  0  0
  7 11  1  0  0  0
  8  9  2  0  0  0
  8 16  1  0  0  0
  9 10  1  0  0  0
  9 32  1  0  0  0
 10 11  2  0  0  0
 10 12  1  0  0  0
 12 13  1  0  0  0
 12 14  1  0  0  0
 12 15  1  0  0  0
 16 17  1  0  0  0
 16 21  2  0  0  0
 17 18  2  0  0  0
 17 33  1  0  0  0
 18 19  1  0  0  0
 18 34  1  0  0  0
 19 20  2  0  0  0
 19 22  1  0  0  0
 20 21  1  0  0  0
 20 35  1  0  0  0
 21 36  1  0  0  0
 22 23  1  0  0  0
 22 37  1  0  0  0
 23 38  1  0  0  0
 23 39  1  0  0  0
 23 40  1  0  0  0
 24 25  2  0  0  0
 24 26  2  0  0  0
 24 27  1  0  0  0
 27 41  1  0  0  0
 27 42  1  0  0  0
M  END
>  <Activity>
7.79588

>  <set>
1

>  <Min_dist>
999.9

>  <Avg_dist>
999.9

$$$$
8-1U
  Cerius2 12110214513D 1   1.00000                          
 
 45 47  0  0  0  0  0  0  0  0999 V2000
   -2.8226   -1.7193    0.0288 C   0  0  0  0  0  0
   -1.9674   -2.5020   -0.7250 C   0  0  0  0  0  0
   -0.6129   -2.2323   -0.7379 C   0  0  0  0  0  0
   -0.1102   -1.1737    0.0072 C   0  0  0  0  0  0
   -0.9716   -0.3896    0.7631 C   0  0  0  0  0  0
   -2.3251   -0.6646    0.7718 C   0  0  0  0  0  0
    1.2631   -0.8978   -0.0033 N   0  0  0  0  0  0
    1.8358    0.3418   -0.0297 C   0  0  0  0  0  0
    3.1909    0.1631   -0.0313 C   0  0  0  0  0  0
    3.4415   -1.2092   -0.0054 C   0  0  0  0  0  0
    2.2963   -1.8435    0.0174 N   0  0  0  0  0  0
    4.8036   -1.8539    0.0016 C   0  0  0  0  0  0
    4.6608   -3.2453    0.0295 F   0  0  0  0  0  0
    5.5026   -1.4798   -1.1511 F   0  0  0  0  0  0
    5.5120   -1.4350    1.1330 F   0  0  0  0  0  0
    1.1222    1.6369   -0.0531 C   0  0  0  0  0  0
    1.6010    2.7128    0.6963 C   0  0  0  0  0  0
    0.9339    3.9185    0.6726 C   0  0  0  0  0  0
   -0.2151    4.0638   -0.0968 C   0  0  0  0  0  0
   -0.6944    2.9939   -0.8443 C   0  0  0  0  0  0
   -0.0283    1.7875   -0.8291 C   0  0  0  0  0  0
   -0.8888    5.2859   -0.1185 N   0  0  0  0  0  0
   -2.0272    5.4789   -1.0202 C   0  0  0  0  0  0
   -0.4577    6.3757    0.7605 C   0  0  0  0  0  0
   -4.5509   -2.0623    0.0367 S   0  0  0  0  0  0
   -5.1835   -0.8488    0.4196 O   0  0  0  0  0  0
   -4.8074   -2.7809   -1.1620 O   0  0  0  0  0  0
   -4.8384   -3.1285    1.2708 N   0  0  0  0  0  0
   -2.3589   -3.3254   -1.3040 H   0  0  0  0  0  0
    0.0546   -2.8441   -1.3265 H   0  0  0  0  0  0
   -0.5836    0.4341    1.3439 H   0  0  0  0  0  0
   -2.9956   -0.0549    1.3592 H   0  0  0  0  0  0
    3.9354    0.9453   -0.0494 H   0  0  0  0  0  0
    2.4932    2.6004    1.2944 H   0  0  0  0  0  0
    1.3037    4.7511    1.2525 H   0  0  0  0  0  0
   -1.5871    3.1097   -1.4411 H   0  0  0  0  0  0
   -0.4011    0.9568   -1.4099 H   0  0  0  0  0  0
   -2.4213    6.4876   -0.8971 H   0  0  0  0  0  0
   -1.7018    5.3392   -2.0511 H   0  0  0  0  0  0
   -2.8054    4.7533   -0.7834 H   0  0  0  0  0  0
    0.4502    6.0806    1.2867 H   0  0  0  0  0  0
   -0.2589    7.2663    0.1644 H   0  0  0  0  0  0
   -1.2435    6.5910    1.4845 H   0  0  0  0  0  0
   -5.7404   -3.4426    1.4400 H   0  0  0  0  0  0
   -4.1049   -3.4388    1.8243 H   0  0  0  0  0  0
  1  2  1  0  0  0
  1  6  2  0  0  0
  1 25  1  0  0  0
  2  3  2  0  0  0
  2 29  1  0  0  0
  3  4  1  0  0  0
  3 30  1  0  0  0
  4  5  2  0  0  0
  4  7  1  0  0  0
  5  6  1  0  0  0
  5 31  1  0  0  0
  6 32  1  0  0  0
  7  8  1  0  0  0
  7 11  1  0  0  0
  8  9  2  0  0  0
  8 16  1  0  0  0
  9 10  1  0  0  0
  9 33  1  0  0  0
 10 11  2  0  0  0
 10 12  1  0  0  0
 12 13  1  0  0  0
 12 14  1  0  0  0
 12 15  1  0  0  0
 16 17  1  0  0  0
 16 21  2  0  0  0
 17 18  2  0  0  0
 17 34  1  0  0  0
 18 19  1  0  0  0
 18 35  1  0  0  0
 19 20  2  0  0  0
 19 22  1  0  0  0
 20 21  1  0  0  0
 20 36  1  0  0  0
 21 37  1  0  0  0
 22 23  1  0  0  0
 22 24  1  0  0  0
 23 38  1  0  0  0
 23 39  1  0  0  0
 23 40  1  0  0  0
 24 41  1  0  0  0
 24 42  1  0  0  0
 24 43  1  0  0  0
 25 26  2  0  0  0
 25 27  2  0  0  0
 25 28  1  0  0  0
 28 44  1  0  0  0
 28 45  1  0  0  0
M  END
>  <Activity>
8.3279

>  <set>
1

>  <Min_dist>
999.9

>  <Avg_dist>
999.9

$$$$
8-1W
  Cerius2 12110214513D 1   1.00000                          
 
 39 41  0  0  0  0  0  0  0  0999 V2000
   -2.8254   -1.7148    0.0218 C   0  0  0  0  0  0
   -1.9691   -2.4961   -0.7323 C   0  0  0  0  0  0
   -0.6146   -2.2263   -0.7427 C   0  0  0  0  0  0
   -0.1130   -1.1688    0.0047 C   0  0  0  0  0  0
   -0.9756   -0.3858    0.7606 C   0  0  0  0  0  0
   -2.3290   -0.6611    0.7672 C   0  0  0  0  0  0
    1.2601   -0.8928   -0.0034 N   0  0  0  0  0  0
    1.8328    0.3480   -0.0271 C   0  0  0  0  0  0
    3.1984    0.1639   -0.0263 C   0  0  0  0  0  0
    3.4408   -1.2092   -0.0019 C   0  0  0  0  0  0
    2.2927   -1.8387    0.0174 N   0  0  0  0  0  0
    4.7996   -1.8608    0.0074 C   0  0  0  0  0  0
    4.6497   -3.2515    0.0329 F   0  0  0  0  0  0
    5.5031   -1.4886   -1.1432 F   0  0  0  0  0  0
    5.5074   -1.4471    1.1410 F   0  0  0  0  0  0
    1.1217    1.6425   -0.0496 C   0  0  0  0  0  0
    1.6029    2.7169    0.7038 C   0  0  0  0  0  0
    0.9461    3.9141    0.6835 C   0  0  0  0  0  0
   -0.2089    4.0650   -0.0919 C   0  0  0  0  0  0
   -0.6899    2.9887   -0.8459 C   0  0  0  0  0  0
   -0.0286    1.7940   -0.8289 C   0  0  0  0  0  0
   -0.9182    5.3557   -0.1140 C   0  0  0  0  0  0
   -1.9280    5.4872   -0.7921 O   0  0  0  0  0  0
   -0.4976    6.2962    0.5456 O   0  5  0  0  0  0
   -4.5536   -2.0582    0.0271 S   0  0  0  0  0  0
   -5.1870   -0.8455    0.4113 O   0  0  0  0  0  0
   -4.8086   -2.7749   -1.1731 O   0  0  0  0  0  0
   -4.8424   -3.1265    1.2591 N   0  0  0  0  0  0
   -2.3598   -3.3183   -1.3133 H   0  0  0  0  0  0
    0.0537   -2.8372   -1.3313 H   0  0  0  0  0  0
   -0.5886    0.4372    1.3429 H   0  0  0  0  0  0
   -3.0005   -0.0524    1.3545 H   0  0  0  0  0  0
    3.9463    0.9428   -0.0419 H   0  0  0  0  0  0
    2.4942    2.6002    1.3025 H   0  0  0  0  0  0
    1.3179    4.7441    1.2661 H   0  0  0  0  0  0
   -1.5813    3.1043   -1.4447 H   0  0  0  0  0  0
   -0.3997    0.9632   -1.4108 H   0  0  0  0  0  0
   -5.7445   -3.4411    1.4268 H   0  0  0  0  0  0
   -4.1094   -3.4376    1.8130 H   0  0  0  0  0  0
  1  2  1  0  0  0
  1  6  2  0  0  0
  1 25  1  0  0  0
  2  3  2  0  0  0
  2 29  1  0  0  0
  3  4  1  0  0  0
  3 30  1  0  0  0
  4  5  2  0  0  0
  4  7  1  0  0  0
  5  6  1  0  0  0
  5 31  1  0  0  0
  6 32  1  0  0  0
  7  8  1  0  0  0
  7 11  1  0  0  0
  8  9  2  0  0  0
  8 16  1  0  0  0
  9 10  1  0  0  0
  9 33  1  0  0  0
 10 11  2  0  0  0
 10 12  1  0  0  0
 12 13  1  0  0  0
 12 14  1  0  0  0
 12 15  1  0  0  0
 16 17  1  0  0  0
 16 21  2  0  0  0
 17 18  2  0  0  0
 17 34  1  0  0  0
 18 19  1  0  0  0
 18 35  1  0  0  0
 19 20  2  0  0  0
 19 22  1  0  0  0
 20 21  1  0  0  0
 20 36  1  0  0  0
 21 37  1  0  0  0
 22 23  2  0  0  0
 22 24  1  0  0  0
 25 26  2  0  0  0
 25 27  2  0  0  0
 25 28  1  0  0  0
 28 38  1  0  0  0
 28 39  1  0  0  0
M  CHG  1  24  -1
M  END
>  <Activity>
4.95078

>  <set>
1

>  <Min_dist>
999.9

>  <Avg_dist>
999.9

$$$$
8-1X
  Cerius2 12110214513D 1   1.00000                          
 
 44 46  0  0  0  0  0  0  0  0999 V2000
   -3.0381   -1.3745    0.0518 C   0  0  0  0  0  0
   -2.2717   -2.2487   -0.6969 C   0  0  0  0  0  0
   -0.8973   -2.1151   -0.7241 C   0  0  0  0  0  0
   -0.2852   -1.1014    0.0012 C   0  0  0  0  0  0
   -1.0576   -0.2249    0.7518 C   0  0  0  0  0  0
   -2.4315   -0.3640    0.7752 C   0  0  0  0  0  0
    1.1086   -0.9636   -0.0239 N   0  0  0  0  0  0
    1.8012    0.2124   -0.0732 C   0  0  0  0  0  0
    3.1317   -0.1001   -0.0824 C   0  0  0  0  0  0
    3.2451   -1.4900   -0.0379 C   0  0  0  0  0  0
    2.0428   -2.0070    0.0032 N   0  0  0  0  0  0
    4.5365   -2.2667   -0.0311 C   0  0  0  0  0  0
    4.2566   -3.6365    0.0186 F   0  0  0  0  0  0
    5.2591   -1.9803   -1.1943 F   0  0  0  0  0  0
    5.2928   -1.9044    1.0888 F   0  0  0  0  0  0
    1.2195    1.5717   -0.1106 C   0  0  0  0  0  0
    1.8092    2.6054    0.6188 C   0  0  0  0  0  0
    1.2641    3.8709    0.5815 C   0  0  0  0  0  0
    0.1294    4.1180   -0.1801 C   0  0  0  0  0  0
   -0.4600    3.0925   -0.9069 C   0  0  0  0  0  0
    0.0831    1.8253   -0.8796 C   0  0  0  0  0  0
   -0.4055    5.3666   -0.2137 O   0  0  0  0  0  0
   -1.5478    5.3036   -1.0700 C   0  0  0  0  0  0
    1.9000    4.9877    1.3686 C   0  0  0  0  0  0
   -4.7917   -1.5441    0.0785 S   0  0  0  0  0  0
   -5.2973   -0.2686    0.4483 O   0  0  0  0  0  0
   -5.1293   -2.2504   -1.1074 O   0  0  0  0  0  0
   -5.1720   -2.5591    1.3304 N   0  0  0  0  0  0
   -2.7483   -3.0369   -1.2608 H   0  0  0  0  0  0
   -0.2992   -2.7986   -1.3085 H   0  0  0  0  0  0
   -0.5845    0.5643    1.3172 H   0  0  0  0  0  0
   -3.0329    0.3176    1.3585 H   0  0  0  0  0  0
    3.9500    0.6038   -0.1184 H   0  0  0  0  0  0
    2.6912    2.4139    1.2119 H   0  0  0  0  0  0
   -1.3425    3.2883   -1.4978 H   0  0  0  0  0  0
   -0.3760    1.0280   -1.4453 H   0  0  0  0  0  0
   -2.0128    6.2877   -1.1284 H   0  0  0  0  0  0
   -1.2379    4.9886   -2.0664 H   0  0  0  0  0  0
   -2.2638    4.5866   -0.6685 H   0  0  0  0  0  0
    2.6459    5.4884    0.7513 H   0  0  0  0  0  0
    1.1344    5.7042    1.6662 H   0  0  0  0  0  0
    2.3797    4.5783    2.2577 H   0  0  0  0  0  0
   -6.0990   -2.7798    1.5115 H   0  0  0  0  0  0
   -4.4677   -2.9330    1.8828 H   0  0  0  0  0  0
  1  2  1  0  0  0
  1  6  2  0  0  0
  1 25  1  0  0  0
  2  3  2  0  0  0
  2 29  1  0  0  0
  3  4  1  0  0  0
  3 30  1  0  0  0
  4  5  2  0  0  0
  4  7  1  0  0  0
  5  6  1  0  0  0
  5 31  1  0  0  0
  6 32  1  0  0  0
  7  8  1  0  0  0
  7 11  1  0  0  0
  8  9  2  0  0  0
  8 16  1  0  0  0
  9 10  1  0  0  0
  9 33  1  0  0  0
 10 11  2  0  0  0
 10 12  1  0  0  0
 12 13  1  0  0  0
 12 14  1  0  0  0
 12 15  1  0  0  0
 16 17  1  0  0  0
 16 21  2  0  0  0
 17 18  2  0  0  0
 17 34  1  0  0  0
 18 19  1  0  0  0
 18 24  1  0  0  0
 19 20  2  0  0  0
 19 22  1  0  0  0
 20 21  1  0  0  0
 20 35  1  0  0  0
 21 36  1  0  0  0
 22 23  1  0  0  0
 23 37  1  0  0  0
 23 38  1  0  0  0
 23 39  1  0  0  0
 24 40  1  0  0  0
 24 41  1  0  0  0
 24 42  1  0  0  0
 25 26  2  0  0  0
 25 27  2  0  0  0
 25 28  1  0  0  0
 28 43  1  0  0  0
 28 44  1  0  0  0
M  END
>  <Activity>
8.03152

>  <set>
1

>  <Min_dist>
999.9

>  <Avg_dist>
999.9

$$$$
8-1Y
  Cerius2 12110214513D 1   1.00000                          
 
 47 49  0  0  0  0  0  0  0  0999 V2000
   -3.3621   -0.9920    0.0655 C   0  0  0  0  0  0
   -2.7640   -1.9939   -0.6766 C   0  0  0  0  0  0
   -1.3875   -2.1024   -0.7102 C   0  0  0  0  0  0
   -0.6041   -1.2039    0.0019 C   0  0  0  0  0  0
   -1.2077   -0.1986    0.7459 C   0  0  0  0  0  0
   -2.5847   -0.0957    0.7758 C   0  0  0  0  0  0
    0.7922   -1.3115   -0.0297 N   0  0  0  0  0  0
    1.6790   -0.2749   -0.0941 C   0  0  0  0  0  0
    2.9346   -0.8148   -0.1048 C   0  0  0  0  0  0
    2.8041   -2.2027   -0.0458 C   0  0  0  0  0  0
    1.5303   -2.5016    0.0052 N   0  0  0  0  0  0
    3.9403   -3.1927   -0.0353 C   0  0  0  0  0  0
    3.4260   -4.4921    0.0300 F   0  0  0  0  0  0
    4.6953   -3.0483   -1.2042 F   0  0  0  0  0  0
    4.7542   -2.9567    1.0778 F   0  0  0  0  0  0
    1.3431    1.1646   -0.1440 C   0  0  0  0  0  0
    2.1080    2.0867    0.5721 C   0  0  0  0  0  0
    1.7918    3.4275    0.5233 C   0  0  0  0  0  0
    0.7134    3.8612   -0.2369 C   0  0  0  0  0  0
   -0.0497    2.9470   -0.9505 C   0  0  0  0  0  0
    0.2641    1.6049   -0.9115 C   0  0  0  0  0  0
    0.4043    5.1835   -0.2819 O   0  0  0  0  0  0
   -0.7361    5.3123   -1.1334 C   0  0  0  0  0  0
    2.6170    4.4240    1.2960 C   0  0  0  0  0  0
    3.7657    4.9247    0.4182 C   0  0  0  0  0  0
   -5.1182   -0.8528    0.1003 S   0  0  0  0  0  0
   -5.3917    0.4950    0.4583 O   0  0  0  0  0  0
   -5.5804   -1.5011   -1.0767 O   0  0  0  0  0  0
   -5.6629   -1.7734    1.3645 N   0  0  0  0  0  0
   -3.3739   -2.6924   -1.2303 H   0  0  0  0  0  0
   -0.9210   -2.8855   -1.2894 H   0  0  0  0  0  0
   -0.6011    0.5015    1.3011 H   0  0  0  0  0  0
   -3.0548    0.6861    1.3539 H   0  0  0  0  0  0
    3.8629   -0.2648   -0.1513 H   0  0  0  0  0  0
    2.9463    1.7502    1.1641 H   0  0  0  0  0  0
   -0.8878    3.2880   -1.5402 H   0  0  0  0  0  0
   -0.3300    0.8943   -1.4669 H   0  0  0  0  0  0
   -1.0227    6.3618   -1.2005 H   0  0  0  0  0  0
   -0.4914    4.9381   -2.1274 H   0  0  0  0  0  0
   -1.5640    4.7352   -0.7215 H   0  0  0  0  0  0
    1.9897    5.2660    1.5887 H   0  0  0  0  0  0
    3.0227    3.9460    2.1876 H   0  0  0  0  0  0
    4.3626    5.6455    0.9771 H   0  0  0  0  0  0
    4.3930    4.0827    0.1255 H   0  0  0  0  0  0
    3.3600    5.4027   -0.4734 H   0  0  0  0  0  0
   -6.6132   -1.8272    1.5512 H   0  0  0  0  0  0
   -5.0316   -2.2589    1.9183 H   0  0  0  0  0  0
  1  2  1  0  0  0
  1  6  2  0  0  0
  1 26  1  0  0  0
  2  3  2  0  0  0
  2 30  1  0  0  0
  3  4  1  0  0  0
  3 31  1  0  0  0
  4  5  2  0  0  0
  4  7  1  0  0  0
  5  6  1  0  0  0
  5 32  1  0  0  0
  6 33  1  0  0  0
  7  8  1  0  0  0
  7 11  1  0  0  0
  8  9  2  0  0  0
  8 16  1  0  0  0
  9 10  1  0  0  0
  9 34  1  0  0  0
 10 11  2  0  0  0
 10 12  1  0  0  0
 12 13  1  0  0  0
 12 14  1  0  0  0
 12 15  1  0  0  0
 16 17  1  0  0  0
 16 21  2  0  0  0
 17 18  2  0  0  0
 17 35  1  0  0  0
 18 19  1  0  0  0
 18 24  1  0  0  0
 19 20  2  0  0  0
 19 22  1  0  0  0
 20 21  1  0  0  0
 20 36  1  0  0  0
 21 37  1  0  0  0
 22 23  1  0  0  0
 23 38  1  0  0  0
 23 39  1  0  0  0
 23 40  1  0  0  0
 24 25  1  0  0  0
 24 41  1  0  0  0
 24 42  1  0  0  0
 25 43  1  0  0  0
 25 44  1  0  0  0
 25 45  1  0  0  0
 26 27  2  0  0  0
 26 28  2  0  0  0
 26 29  1  0  0  0
 29 46  1  0  0  0
 29 47  1  0  0  0
M  END
>  <Activity>
6.36653

>  <set>
1

>  <Min_dist>
999.9

>  <Avg_dist>
999.9

$$$$
8-1Z
  Cerius2 12110214513D 1   1.00000                          
 
 45 47  0  0  0  0  0  0  0  0999 V2000
   -3.3099   -1.1260    0.0989 C   0  0  0  0  0  0
   -2.6750   -2.1156   -0.6290 C   0  0  0  0  0  0
   -1.2956   -2.1559   -0.6858 C   0  0  0  0  0  0
   -0.5462   -1.2010   -0.0114 C   0  0  0  0  0  0
   -1.1867   -0.2082    0.7184 C   0  0  0  0  0  0
   -2.5664   -0.1737    0.7716 C   0  0  0  0  0  0
    0.8530   -1.2393   -0.0667 N   0  0  0  0  0  0
    1.6850   -0.1616   -0.1738 C   0  0  0  0  0  0
    2.9659   -0.6379   -0.1939 C   0  0  0  0  0  0
    2.9068   -2.0285   -0.0971 C   0  0  0  0  0  0
    1.6508   -2.3895   -0.0160 N   0  0  0  0  0  0
    4.0917   -2.9596   -0.0823 C   0  0  0  0  0  0
    3.6450   -4.2810    0.0256 F   0  0  0  0  0  0
    4.8184   -2.8084   -1.2681 F   0  0  0  0  0  0
    4.9115   -2.6539    1.0093 F   0  0  0  0  0  0
    1.2758    1.2575   -0.2538 C   0  0  0  0  0  0
    2.0056    2.2351    0.4245 C   0  0  0  0  0  0
    1.6196    3.5603    0.3463 C   0  0  0  0  0  0
    0.5043    3.9174   -0.4083 C   0  0  0  0  0  0
   -0.2204    2.9462   -1.0819 C   0  0  0  0  0  0
    0.1631    1.6224   -1.0120 C   0  0  0  0  0  0
    0.1255    5.2210   -0.4839 O   0  0  0  0  0  0
   -1.0339    5.2665   -1.3180 C   0  0  0  0  0  0
    2.3283    4.5150    1.0063 O   0  0  0  0  0  0
    3.3963    3.8454    1.6794 C   0  0  0  0  0  0
   -5.0699   -1.0742    0.1635 S   0  0  0  0  0  0
   -5.4048    0.2670    0.4926 O   0  0  0  0  0  0
   -5.5193   -1.7753   -0.9879 O   0  0  0  0  0  0
   -5.5449   -1.9877    1.4605 N   0  0  0  0  0  0
   -3.2584   -2.8580   -1.1533 H   0  0  0  0  0  0
   -0.8004   -2.9294   -1.2540 H   0  0  0  0  0  0
   -0.6066    0.5356    1.2442 H   0  0  0  0  0  0
   -3.0652    0.5984    1.3387 H   0  0  0  0  0  0
    3.8642   -0.0434   -0.2712 H   0  0  0  0  0  0
    2.8698    1.9567    1.0093 H   0  0  0  0  0  0
   -1.0847    3.2267   -1.6656 H   0  0  0  0  0  0
   -0.4030    0.8678   -1.5379 H   0  0  0  0  0  0
   -1.3760    6.2975   -1.4087 H   0  0  0  0  0  0
   -0.7863    4.8777   -2.3058 H   0  0  0  0  0  0
   -1.8236    4.6592   -0.8759 H   0  0  0  0  0  0
    3.9953    4.5741    2.2254 H   0  0  0  0  0  0
    2.9852    3.1166    2.3780 H   0  0  0  0  0  0
    4.0229    3.3345    0.9484 H   0  0  0  0  0  0
   -6.4878   -2.0842    1.6664 H   0  0  0  0  0  0
   -4.8801   -2.4264    2.0142 H   0  0  0  0  0  0
  1  2  1  0  0  0
  1  6  2  0  0  0
  1 26  1  0  0  0
  2  3  2  0  0  0
  2 30  1  0  0  0
  3  4  1  0  0  0
  3 31  1  0  0  0
  4  5  2  0  0  0
  4  7  1  0  0  0
  5  6  1  0  0  0
  5 32  1  0  0  0
  6 33  1  0  0  0
  7  8  1  0  0  0
  7 11  1  0  0  0
  8  9  2  0  0  0
  8 16  1  0  0  0
  9 10  1  0  0  0
  9 34  1  0  0  0
 10 11  2  0  0  0
 10 12  1  0  0  0
 12 13  1  0  0  0
 12 14  1  0  0  0
 12 15  1  0  0  0
 16 17  1  0  0  0
 16 21  2  0  0  0
 17 18  2  0  0  0
 17 35  1  0  0  0
 18 19  1  0  0  0
 18 24  1  0  0  0
 19 20  2  0  0  0
 19 22  1  0  0  0
 20 21  1  0  0  0
 20 36  1  0  0  0
 21 37  1  0  0  0
 22 23  1  0  0  0
 23 38  1  0  0  0
 23 39  1  0  0  0
 23 40  1  0  0  0
 24 25  1  0  0  0
 25 41  1  0  0  0
 25 42  1  0  0  0
 25 43  1  0  0  0
 26 27  2  0  0  0
 26 28  2  0  0  0
 26 29  1  0  0  0
 29 44  1  0  0  0
 29 45  1  0  0  0
M  END
>  <Activity>
6.22185

>  <set>
1

>  <Min_dist>
999.9

>  <Avg_dist>
999.9

$$$$
8-1AA
  Cerius2 12110214513D 1   1.00000                          
 
 44 46  0  0  0  0  0  0  0  0999 V2000
   -2.8268   -1.8912    0.0592 C   0  0  0  0  0  0
   -1.9834   -2.6777   -0.7038 C   0  0  0  0  0  0
   -0.6284   -2.4117   -0.7343 C   0  0  0  0  0  0
   -0.1135   -1.3530    0.0021 C   0  0  0  0  0  0
   -0.9632   -0.5648    0.7670 C   0  0  0  0  0  0
   -2.3171   -0.8362    0.7936 C   0  0  0  0  0  0
    1.2603   -1.0809   -0.0263 N   0  0  0  0  0  0
    1.8361    0.1572   -0.0626 C   0  0  0  0  0  0
    3.1907   -0.0254   -0.0808 C   0  0  0  0  0  0
    3.4377   -1.3984   -0.0551 C   0  0  0  0  0  0
    2.2911   -2.0294   -0.0165 N   0  0  0  0  0  0
    4.7980   -2.0469   -0.0640 C   0  0  0  0  0  0
    4.6516   -3.4379   -0.0312 F   0  0  0  0  0  0
    5.4831   -1.6774   -1.2264 F   0  0  0  0  0  0
    5.5219   -1.6276    1.0572 F   0  0  0  0  0  0
    1.1260    1.4541   -0.0792 C   0  0  0  0  0  0
    1.6179    2.5303    0.6621 C   0  0  0  0  0  0
    0.9543    3.7374    0.6449 C   0  0  0  0  0  0
   -0.2052    3.8846   -0.1098 C   0  0  0  0  0  0
   -0.6974    2.8142   -0.8491 C   0  0  0  0  0  0
   -0.0342    1.6063   -0.8404 C   0  0  0  0  0  0
   -1.0521    5.4297   -0.1285 S   0  0  0  0  0  0
   -2.4271    5.0218   -1.2391 C   0  0  0  0  0  0
    1.4846    4.8994    1.4447 C   0  0  0  0  0  0
   -4.5558   -2.2297    0.0901 S   0  0  0  0  0  0
   -5.1803   -1.0138    0.4786 O   0  0  0  0  0  0
   -4.8295   -2.9501   -1.1037 O   0  0  0  0  0  0
   -4.8301   -3.2926    1.3300 N   0  0  0  0  0  0
   -2.3845   -3.5009   -1.2763 H   0  0  0  0  0  0
    0.0299   -3.0267   -1.3299 H   0  0  0  0  0  0
   -0.5656    0.2591    1.3410 H   0  0  0  0  0  0
   -2.9785   -0.2233    1.3880 H   0  0  0  0  0  0
    3.9371    0.7545   -0.1106 H   0  0  0  0  0  0
    2.5175    2.4163    1.2486 H   0  0  0  0  0  0
   -1.5978    2.9311   -1.4340 H   0  0  0  0  0  0
   -0.4166    0.7756   -1.4148 H   0  0  0  0  0  0
   -3.0667    5.8958   -1.3617 H   0  0  0  0  0  0
   -2.0331    4.7208   -2.2098 H   0  0  0  0  0  0
   -3.0078    4.2035   -0.8131 H   0  0  0  0  0  0
    2.1755    5.4776    0.8311 H   0  0  0  0  0  0
    0.6555    5.5350    1.7555 H   0  0  0  0  0  0
    2.0064    4.5260    2.3258 H   0  0  0  0  0  0
   -5.7306   -3.6041    1.5115 H   0  0  0  0  0  0
   -4.0902   -3.6037    1.8748 H   0  0  0  0  0  0
  1  2  1  0  0  0
  1  6  2  0  0  0
  1 25  1  0  0  0
  2  3  2  0  0  0
  2 29  1  0  0  0
  3  4  1  0  0  0
  3 30  1  0  0  0
  4  5  2  0  0  0
  4  7  1  0  0  0
  5  6  1  0  0  0
  5 31  1  0  0  0
  6 32  1  0  0  0
  7  8  1  0  0  0
  7 11  1  0  0  0
  8  9  2  0  0  0
  8 16  1  0  0  0
  9 10  1  0  0  0
  9 33  1  0  0  0
 10 11  2  0  0  0
 10 12  1  0  0  0
 12 13  1  0  0  0
 12 14  1  0  0  0
 12 15  1  0  0  0
 16 17  1  0  0  0
 16 21  2  0  0  0
 17 18  2  0  0  0
 17 34  1  0  0  0
 18 19  1  0  0  0
 18 24  1  0  0  0
 19 20  2  0  0  0
 19 22  1  0  0  0
 20 21  1  0  0  0
 20 35  1  0  0  0
 21 36  1  0  0  0
 22 23  1  0  0  0
 23 37  1  0  0  0
 23 38  1  0  0  0
 23 39  1  0  0  0
 24 40  1  0  0  0
 24 41  1  0  0  0
 24 42  1  0  0  0
 25 26  2  0  0  0
 25 27  2  0  0  0
 25 28  1  0  0  0
 28 43  1  0  0  0
 28 44  1  0  0  0
M  END
>  <Activity>
8.4318

>  <set>
1

>  <Min_dist>
999.9

>  <Avg_dist>
999.9

$$$$
8-1AB
  Cerius2 12110214513D 1   1.00000                          
 
 45 47  0  0  0  0  0  0  0  0999 V2000
   -2.9861   -1.6733    0.0304 C   0  0  0  0  0  0
   -2.1944   -2.5198   -0.7237 C   0  0  0  0  0  0
   -0.8239   -2.3500   -0.7443 C   0  0  0  0  0  0
   -0.2412   -1.3279   -0.0067 C   0  0  0  0  0  0
   -1.0390   -0.4795    0.7496 C   0  0  0  0  0  0
   -2.4089   -0.6545    0.7661 C   0  0  0  0  0  0
    1.1486   -1.1534   -0.0251 N   0  0  0  0  0  0
    1.8103    0.0409   -0.0601 C   0  0  0  0  0  0
    3.1487   -0.2366   -0.0673 C   0  0  0  0  0  0
    3.2983   -1.6235   -0.0361 C   0  0  0  0  0  0
    2.1098   -2.1721   -0.0048 N   0  0  0  0  0  0
    4.6095   -2.3662   -0.0321 C   0  0  0  0  0  0
    4.3654   -3.7433    0.0029 F   0  0  0  0  0  0
    5.3285   -2.0493   -1.1896 F   0  0  0  0  0  0
    5.3520   -1.9955    1.0942 F   0  0  0  0  0  0
    1.1934    1.3846   -0.0861 C   0  0  0  0  0  0
    1.7539    2.4261    0.6561 C   0  0  0  0  0  0
    1.1761    3.6784    0.6292 C   0  0  0  0  0  0
    0.0355    3.9033   -0.1374 C   0  0  0  0  0  0
   -0.5233    2.8679   -0.8760 C   0  0  0  0  0  0
    0.0535    1.6155   -0.8571 C   0  0  0  0  0  0
   -0.5482    5.1725   -0.1634 N   0  0  0  0  0  0
   -0.5213    5.6210   -1.5620 C   0  0  0  0  0  0
   -1.9614    4.9947    0.1958 C   0  0  0  0  0  0
    1.7169    4.6871    1.3471 F   0  0  0  0  0  0
   -4.7348   -1.8886    0.0482 S   0  0  0  0  0  0
   -5.2749   -0.6305    0.4284 O   0  0  0  0  0  0
   -5.0494   -2.5918   -1.1459 O   0  0  0  0  0  0
   -5.0934   -2.9255    1.2886 N   0  0  0  0  0  0
   -2.6481   -3.3148   -1.2970 H   0  0  0  0  0  0
   -0.2060   -3.0117   -1.3332 H   0  0  0  0  0  0
   -0.5888    0.3161    1.3246 H   0  0  0  0  0  0
   -3.0300    0.0050    1.3541 H   0  0  0  0  0  0
    3.9484    0.4888   -0.0929 H   0  0  0  0  0  0
    2.6383    2.2513    1.2508 H   0  0  0  0  0  0
   -1.4084    3.0451   -1.4690 H   0  0  0  0  0  0
   -0.3820    0.8114   -1.4318 H   0  0  0  0  0  0
   -0.9685    6.6124   -1.6343 H   0  0  0  0  0  0
    0.5106    5.6615   -1.9108 H   0  0  0  0  0  0
   -1.0861    4.9218   -2.1786 H   0  0  0  0  0  0
   -2.4626    5.9626    0.1893 H   0  0  0  0  0  0
   -2.4395    4.3332   -0.5266 H   0  0  0  0  0  0
   -2.0309    4.5563    1.1914 H   0  0  0  0  0  0
   -6.0150   -3.1720    1.4637 H   0  0  0  0  0  0
   -4.3817   -3.2864    1.8402 H   0  0  0  0  0  0
  1  2  1  0  0  0
  1  6  2  0  0  0
  1 26  1  0  0  0
  2  3  2  0  0  0
  2 30  1  0  0  0
  3  4  1  0  0  0
  3 31  1  0  0  0
  4  5  2  0  0  0
  4  7  1  0  0  0
  5  6  1  0  0  0
  5 32  1  0  0  0
  6 33  1  0  0  0
  7  8  1  0  0  0
  7 11  1  0  0  0
  8  9  2  0  0  0
  8 16  1  0  0  0
  9 10  1  0  0  0
  9 34  1  0  0  0
 10 11  2  0  0  0
 10 12  1  0  0  0
 12 13  1  0  0  0
 12 14  1  0  0  0
 12 15  1  0  0  0
 16 17  1  0  0  0
 16 21  2  0  0  0
 17 18  2  0  0  0
 17 35  1  0  0  0
 18 19  1  0  0  0
 18 25  1  0  0  0
 19 20  2  0  0  0
 19 22  1  0  0  0
 20 21  1  0  0  0
 20 36  1  0  0  0
 21 37  1  0  0  0
 22 23  1  0  0  0
 22 24  1  0  0  0
 23 38  1  0  0  0
 23 39  1  0  0  0
 23 40  1  0  0  0
 24 41  1  0  0  0
 24 42  1  0  0  0
 24 43  1  0  0  0
 26 27  2  0  0  0
 26 28  2  0  0  0
 26 29  1  0  0  0
 29 44  1  0  0  0
 29 45  1  0  0  0
M  END
>  <Activity>
8.24413

>  <set>
1

>  <Min_dist>
999.9

>  <Avg_dist>
999.9

$$$$
8-1AD
  Cerius2 12110214513D 1   1.00000                          
 
 44 46  0  0  0  0  0  0  0  0999 V2000
   -3.5072   -0.7994    0.0938 C   0  0  0  0  0  0
   -3.0101   -1.7692   -0.7575 C   0  0  0  0  0  0
   -1.6535   -2.0249   -0.7980 C   0  0  0  0  0  0
   -0.7884   -1.3067    0.0169 C   0  0  0  0  0  0
   -1.2906   -0.3333    0.8704 C   0  0  0  0  0  0
   -2.6483   -0.0825    0.9066 C   0  0  0  0  0  0
    0.5881   -1.5641   -0.0215 N   0  0  0  0  0  0
    1.5818   -0.6283   -0.0655 C   0  0  0  0  0  0
    2.7716   -1.3004   -0.0917 C   0  0  0  0  0  0
    2.4917   -2.6670   -0.0631 C   0  0  0  0  0  0
    1.1931   -2.8274   -0.0156 N   0  0  0  0  0  0
    3.5141   -3.7741   -0.0777 C   0  0  0  0  0  0
    2.8623   -5.0114   -0.0397 F   0  0  0  0  0  0
    4.2800   -3.6861   -1.2452 F   0  0  0  0  0  0
    4.3493   -3.6524    1.0381 F   0  0  0  0  0  0
    1.4036    0.8399   -0.0825 C   0  0  0  0  0  0
    2.4118    1.6727    0.4055 C   0  0  0  0  0  0
    2.2419    3.0414    0.3874 C   0  0  0  0  0  0
    1.0687    3.5908   -0.1159 C   0  0  0  0  0  0
    0.0643    2.7651   -0.6014 C   0  0  0  0  0  0
    0.2295    1.3959   -0.5918 C   0  0  0  0  0  0
   -1.2063    3.3658   -1.1452 C   0  0  0  0  0  0
    0.9044    4.9397   -0.1323 O   0  0  0  0  0  0
    1.4143    5.4027   -1.3843 C   0  0  0  0  0  0
    3.4945    4.0788    0.9945 Cl  0  0  0  0  0  0
   -5.2379   -0.4715    0.1377 S   0  0  0  0  0  0
   -5.3680    0.8480    0.6489 O   0  0  0  0  0  0
   -5.7484   -0.9248   -1.1085 O   0  0  0  0  0  0
   -5.9012   -1.4656    1.2841 N   0  0  0  0  0  0
   -3.6835   -2.3274   -1.3910 H   0  0  0  0  0  0
   -1.2659   -2.7829   -1.4626 H   0  0  0  0  0  0
   -0.6203    0.2267    1.5056 H   0  0  0  0  0  0
   -3.0395    0.6747    1.5699 H   0  0  0  0  0  0
    3.7539   -0.8531   -0.1282 H   0  0  0  0  0  0
    3.3234    1.2461    0.7970 H   0  0  0  0  0  0
   -0.5527    0.7544   -0.9699 H   0  0  0  0  0  0
   -1.0927    3.5508   -2.2133 H   0  0  0  0  0  0
   -2.0336    2.6751   -0.9820 H   0  0  0  0  0  0
   -1.4117    4.3061   -0.6335 H   0  0  0  0  0  0
    1.3034    6.4854   -1.4438 H   0  0  0  0  0  0
    2.4691    5.1404   -1.4664 H   0  0  0  0  0  0
    0.8593    4.9354   -2.1978 H   0  0  0  0  0  0
   -6.8547   -1.4349    1.4596 H   0  0  0  0  0  0
   -5.3362   -2.0786    1.7801 H   0  0  0  0  0  0
  1  2  1  0  0  0
  1  6  2  0  0  0
  1 26  1  0  0  0
  2  3  2  0  0  0
  2 30  1  0  0  0
  3  4  1  0  0  0
  3 31  1  0  0  0
  4  5  2  0  0  0
  4  7  1  0  0  0
  5  6  1  0  0  0
  5 32  1  0  0  0
  6 33  1  0  0  0
  7  8  1  0  0  0
  7 11  1  0  0  0
  8  9  2  0  0  0
  8 16  1  0  0  0
  9 10  1  0  0  0
  9 34  1  0  0  0
 10 11  2  0  0  0
 10 12  1  0  0  0
 12 13  1  0  0  0
 12 14  1  0  0  0
 12 15  1  0  0  0
 16 17  1  0  0  0
 16 21  2  0  0  0
 17 18  2  0  0  0
 17 35  1  0  0  0
 18 19  1  0  0  0
 18 25  1  0  0  0
 19 20  2  0  0  0
 19 23  1  0  0  0
 20 21  1  0  0  0
 20 22  1  0  0  0
 21 36  1  0  0  0
 22 37  1  0  0  0
 22 38  1  0  0  0
 22 39  1  0  0  0
 23 24  1  0  0  0
 24 40  1  0  0  0
 24 41  1  0  0  0
 24 42  1  0  0  0
 26 27  2  0  0  0
 26 28  2  0  0  0
 26 29  1  0  0  0
 29 43  1  0  0  0
 29 44  1  0  0  0
M  END
>  <Activity>
7.18046

>  <set>
1

>  <Min_dist>
999.9

>  <Avg_dist>
999.9

$$$$
8-1AE
  Cerius2 12110214513D 1   1.00000                          
 
 37 39  0  0  0  0  0  0  0  0999 V2000
   -3.4961   -0.8106    0.0699 C   0  0  0  0  0  0
   -3.0025   -1.8973   -0.6284 C   0  0  0  0  0  0
   -1.6423   -2.1331   -0.6703 C   0  0  0  0  0  0
   -0.7701   -1.2773   -0.0106 C   0  0  0  0  0  0
   -1.2689   -0.1867    0.6894 C   0  0  0  0  0  0
   -2.6301    0.0435    0.7278 C   0  0  0  0  0  0
    0.6100   -1.5140   -0.0508 N   0  0  0  0  0  0
    1.5866   -0.5674   -0.1745 C   0  0  0  0  0  0
    2.7873   -1.2199   -0.1705 C   0  0  0  0  0  0
    2.5319   -2.5855   -0.0421 C   0  0  0  0  0  0
    1.2370   -2.7637    0.0347 N   0  0  0  0  0  0
    3.5733   -3.6738    0.0063 C   0  0  0  0  0  0
    2.9438   -4.9160    0.1403 F   0  0  0  0  0  0
    4.3221   -3.6555   -1.1753 F   0  0  0  0  0  0
    4.4206   -3.4601    1.0988 F   0  0  0  0  0  0
    1.3825    0.8930   -0.2911 C   0  0  0  0  0  0
    2.2378    1.7746    0.3710 C   0  0  0  0  0  0
    2.0424    3.1365    0.2585 C   0  0  0  0  0  0
    0.9991    3.6278   -0.5104 C   0  0  0  0  0  0
    0.1479    2.7571   -1.1687 C   0  0  0  0  0  0
    0.3378    1.3941   -1.0682 C   0  0  0  0  0  0
    0.7587    5.3416   -0.6480 Cl  0  0  0  0  0  0
    3.1046    4.2354    1.0817 Cl  0  0  0  0  0  0
   -5.2316   -0.5093    0.1154 S   0  0  0  0  0  0
   -5.3759    0.8733    0.4099 O   0  0  0  0  0  0
   -5.7677   -1.1679   -1.0239 O   0  0  0  0  0  0
   -5.8396   -1.3148    1.4283 N   0  0  0  0  0  0
   -3.6814   -2.5625   -1.1412 H   0  0  0  0  0  0
   -1.2575   -2.9824   -1.2153 H   0  0  0  0  0  0
   -0.5931    0.4805    1.2037 H   0  0  0  0  0  0
   -3.0186    0.8918    1.2718 H   0  0  0  0  0  0
    3.7611   -0.7601   -0.2525 H   0  0  0  0  0  0
    3.0506    1.3923    0.9706 H   0  0  0  0  0  0
   -0.6636    3.1455   -1.7662 H   0  0  0  0  0  0
   -0.3272    0.7160   -1.5824 H   0  0  0  0  0  0
   -6.7881   -1.2722    1.6269 H   0  0  0  0  0  0
   -5.2473   -1.8293    1.9988 H   0  0  0  0  0  0
  1  2  1  0  0  0
  1  6  2  0  0  0
  1 24  1  0  0  0
  2  3  2  0  0  0
  2 28  1  0  0  0
  3  4  1  0  0  0
  3 29  1  0  0  0
  4  5  2  0  0  0
  4  7  1  0  0  0
  5  6  1  0  0  0
  5 30  1  0  0  0
  6 31  1  0  0  0
  7  8  1  0  0  0
  7 11  1  0  0  0
  8  9  2  0  0  0
  8 16  1  0  0  0
  9 10  1  0  0  0
  9 32  1  0  0  0
 10 11  2  0  0  0
 10 12  1  0  0  0
 12 13  1  0  0  0
 12 14  1  0  0  0
 12 15  1  0  0  0
 16 17  1  0  0  0
 16 21  2  0  0  0
 17 18  2  0  0  0
 17 33  1  0  0  0
 18 19  1  0  0  0
 18 23  1  0  0  0
 19 20  2  0  0  0
 19 22  1  0  0  0
 20 21  1  0  0  0
 20 34  1  0  0  0
 21 35  1  0  0  0
 24 25  2  0  0  0
 24 26  2  0  0  0
 24 27  1  0  0  0
 27 36  1  0  0  0
 27 37  1  0  0  0
M  END
>  <Activity>
7.82391

>  <set>
1

>  <Min_dist>
999.9

>  <Avg_dist>
999.9

$$$$
8-1AF
  Cerius2 12110214513D 1   1.00000                          
 
 37 39  0  0  0  0  0  0  0  0999 V2000
   -3.3765   -1.1785    0.0580 C   0  0  0  0  0  0
   -2.7103   -2.1373   -0.6830 C   0  0  0  0  0  0
   -1.3305   -2.1293   -0.7443 C   0  0  0  0  0  0
   -0.6123   -1.1568   -0.0612 C   0  0  0  0  0  0
   -1.2842   -0.1950    0.6816 C   0  0  0  0  0  0
   -2.6641   -0.2087    0.7393 C   0  0  0  0  0  0
    0.7872   -1.1462   -0.1210 N   0  0  0  0  0  0
    1.5812   -0.0393   -0.2183 C   0  0  0  0  0  0
    2.8776   -0.4708   -0.2475 C   0  0  0  0  0  0
    2.8670   -1.8636   -0.1663 C   0  0  0  0  0  0
    1.6244   -2.2687   -0.0856 N   0  0  0  0  0  0
    4.0832   -2.7534   -0.1663 C   0  0  0  0  0  0
    3.6829   -4.0906   -0.0719 F   0  0  0  0  0  0
    4.7997   -2.5639   -1.3529 F   0  0  0  0  0  0
    4.8963   -2.4318    0.9258 F   0  0  0  0  0  0
    1.1231    1.3657   -0.2810 C   0  0  0  0  0  0
    1.8203    2.3618    0.4061 C   0  0  0  0  0  0
    1.3874    3.6712    0.3434 C   0  0  0  0  0  0
    0.2648    3.9970   -0.3986 C   0  0  0  0  0  0
   -0.4300    3.0133   -1.0816 C   0  0  0  0  0  0
   -0.0039    1.7020   -1.0314 C   0  0  0  0  0  0
   -0.2742    5.6456   -0.4724 Cl  0  0  0  0  0  0
    3.2277    1.9543    1.3371 Cl  0  0  0  0  0  0
   -5.1370   -1.1881    0.1282 S   0  0  0  0  0  0
   -5.5169    0.1370    0.4735 O   0  0  0  0  0  0
   -5.5658   -1.8913   -1.0298 O   0  0  0  0  0  0
   -5.5760   -2.1320    1.4160 N   0  0  0  0  0  0
   -3.2694   -2.8935   -1.2140 H   0  0  0  0  0  0
   -0.8108   -2.8789   -1.3226 H   0  0  0  0  0  0
   -0.7284    0.5625    1.2142 H   0  0  0  0  0  0
   -3.1873    0.5393    1.3166 H   0  0  0  0  0  0
    3.7547    0.1552   -0.3204 H   0  0  0  0  0  0
    1.9252    4.4428    0.8744 H   0  0  0  0  0  0
   -1.3052    3.2736   -1.6584 H   0  0  0  0  0  0
   -0.5468    0.9359   -1.5650 H   0  0  0  0  0  0
   -6.5144   -2.2633    1.6236 H   0  0  0  0  0  0
   -4.8948   -2.5537    1.9628 H   0  0  0  0  0  0
  1  2  1  0  0  0
  1  6  2  0  0  0
  1 24  1  0  0  0
  2  3  2  0  0  0
  2 28  1  0  0  0
  3  4  1  0  0  0
  3 29  1  0  0  0
  4  5  2  0  0  0
  4  7  1  0  0  0
  5  6  1  0  0  0
  5 30  1  0  0  0
  6 31  1  0  0  0
  7  8  1  0  0  0
  7 11  1  0  0  0
  8  9  2  0  0  0
  8 16  1  0  0  0
  9 10  1  0  0  0
  9 32  1  0  0  0
 10 11  2  0  0  0
 10 12  1  0  0  0
 12 13  1  0  0  0
 12 14  1  0  0  0
 12 15  1  0  0  0
 16 17  1  0  0  0
 16 21  2  0  0  0
 17 18  2  0  0  0
 17 23  1  0  0  0
 18 19  1  0  0  0
 18 33  1  0  0  0
 19 20  2  0  0  0
 19 22  1  0  0  0
 20 21  1  0  0  0
 20 34  1  0  0  0
 21 35  1  0  0  0
 24 25  2  0  0  0
 24 26  2  0  0  0
 24 27  1  0  0  0
 27 36  1  0  0  0
 27 37  1  0  0  0
M  END
>  <Activity>
7.25181

>  <set>
1

>  <Min_dist>
999.9

>  <Avg_dist>
999.9

$$$$
8-2A
  Cerius2 12110214513D 1   1.00000                          
 
 37 39  0  0  0  0  0  0  0  0999 V2000
   -2.8989   -1.1015    0.0121 C   0  0  0  0  0  0
   -2.1944   -2.0624   -0.6898 C   0  0  0  0  0  0
   -0.8139   -2.0742   -0.6513 C   0  0  0  0  0  0
   -0.1333   -1.1196    0.0929 C   0  0  0  0  0  0
   -0.8436   -0.1558    0.7963 C   0  0  0  0  0  0
   -2.2241   -0.1495    0.7541 C   0  0  0  0  0  0
    1.2668   -1.1292    0.1344 N   0  0  0  0  0  0
    2.0813   -0.0333    0.1074 C   0  0  0  0  0  0
    3.3702   -0.4836    0.1669 C   0  0  0  0  0  0
    3.3341   -1.8769    0.2311 C   0  0  0  0  0  0
    2.0834   -2.2643    0.2173 N   0  0  0  0  0  0
    4.5346   -2.7845    0.3095 C   0  0  0  0  0  0
    4.2361   -4.0065   -0.3027 F   0  0  0  0  0  0
    5.6154   -2.1859   -0.3468 F   0  0  0  0  0  0
    1.6486    1.3790    0.0283 C   0  0  0  0  0  0
    2.3080    2.3563    0.7747 C   0  0  0  0  0  0
    1.9005    3.6719    0.6966 C   0  0  0  0  0  0
    0.8392    4.0234   -0.1204 C   0  0  0  0  0  0
    0.1811    3.0579   -0.8633 C   0  0  0  0  0  0
    0.5833    1.7400   -0.7973 C   0  0  0  0  0  0
    0.3315    5.6809   -0.2132 Cl  0  0  0  0  0  0
   -4.6599   -1.0857   -0.0450 S   0  0  0  0  0  0
   -5.0451    0.2411    0.2871 O   0  0  0  0  0  0
   -5.0136   -1.7704   -1.2389 O   0  0  0  0  0  0
   -5.2041   -2.0364    1.1969 N   0  0  0  0  0  0
   -2.7243   -2.8045   -1.2685 H   0  0  0  0  0  0
   -0.2642   -2.8254   -1.1991 H   0  0  0  0  0  0
   -0.3172    0.5877    1.3763 H   0  0  0  0  0  0
   -2.7771    0.6000    1.3006 H   0  0  0  0  0  0
    4.2589    0.1300    0.1642 H   0  0  0  0  0  0
    4.7934   -2.9553    1.3544 H   0  0  0  0  0  0
    3.1357    2.0833    1.4125 H   0  0  0  0  0  0
    2.4099    4.4291    1.2741 H   0  0  0  0  0  0
   -0.6460    3.3378   -1.4989 H   0  0  0  0  0  0
    0.0692    0.9877   -1.3772 H   0  0  0  0  0  0
   -6.1568   -2.1559    1.3347 H   0  0  0  0  0  0
   -4.5701   -2.4738    1.7865 H   0  0  0  0  0  0
  1  2  1  0  0  0
  1  6  2  0  0  0
  1 22  1  0  0  0
  2  3  2  0  0  0
  2 26  1  0  0  0
  3  4  1  0  0  0
  3 27  1  0  0  0
  4  5  2  0  0  0
  4  7  1  0  0  0
  5  6  1  0  0  0
  5 28  1  0  0  0
  6 29  1  0  0  0
  7  8  1  0  0  0
  7 11  1  0  0  0
  8  9  2  0  0  0
  8 15  1  0  0  0
  9 10  1  0  0  0
  9 30  1  0  0  0
 10 11  2  0  0  0
 10 12  1  0  0  0
 12 13  1  0  0  0
 12 14  1  0  0  0
 12 31  1  0  0  0
 15 16  1  0  0  0
 15 20  2  0  0  0
 16 17  2  0  0  0
 16 32  1  0  0  0
 17 18  1  0  0  0
 17 33  1  0  0  0
 18 19  2  0  0  0
 18 21  1  0  0  0
 19 20  1  0  0  0
 19 34  1  0  0  0
 20 35  1  0  0  0
 22 23  2  0  0  0
 22 24  2  0  0  0
 22 25  1  0  0  0
 25 36  1  0  0  0
 25 37  1  0  0  0
M  END
>  <Activity>
8

>  <set>
1

>  <Min_dist>
999.9

>  <Avg_dist>
999.9

$$$$
8-2G
  Cerius2 12110214513D 1   1.00000                          
 
 41 43  0  0  0  0  0  0  0  0999 V2000
   -2.7955   -1.1706    0.0240 C   0  0  0  0  0  0
   -2.0400   -2.0692   -0.7068 C   0  0  0  0  0  0
   -0.6609   -2.0030   -0.6719 C   0  0  0  0  0  0
   -0.0331   -1.0326    0.0977 C   0  0  0  0  0  0
   -0.7945   -0.1314    0.8301 C   0  0  0  0  0  0
   -2.1733   -0.2031    0.7915 C   0  0  0  0  0  0
    1.3655   -0.9631    0.1355 N   0  0  0  0  0  0
    2.1158    0.1781    0.1379 C   0  0  0  0  0  0
    3.4287   -0.1993    0.1806 C   0  0  0  0  0  0
    3.4726   -1.5937    0.2044 C   0  0  0  0  0  0
    2.2460   -2.0515    0.1838 N   0  0  0  0  0  0
    4.7232   -2.4330    0.2529 C   0  0  0  0  0  0
    4.4922   -3.6520   -0.3936 F   0  0  0  0  0  0
    5.7651   -1.7549   -0.3890 F   0  0  0  0  0  0
    1.6028    1.5648    0.1004 C   0  0  0  0  0  0
    2.2090    2.5561    0.8734 C   0  0  0  0  0  0
    1.7280    3.8475    0.8358 C   0  0  0  0  0  0
    0.6415    4.1624    0.0305 C   0  0  0  0  0  0
    0.0357    3.1789   -0.7400 C   0  0  0  0  0  0
    0.5149    1.8865   -0.7125 C   0  0  0  0  0  0
    0.1697    5.4362   -0.0032 O   0  0  0  0  0  0
   -0.9353    5.4434   -0.9092 C   0  0  0  0  0  0
   -4.5547   -1.2541   -0.0284 S   0  0  0  0  0  0
   -5.0138    0.0385    0.3426 O   0  0  0  0  0  0
   -4.8735   -1.9236   -1.2406 O   0  0  0  0  0  0
   -5.0387   -2.2694    1.1870 N   0  0  0  0  0  0
   -2.5289   -2.8237   -1.3052 H   0  0  0  0  0  0
   -0.0714   -2.7055   -1.2424 H   0  0  0  0  0  0
   -0.3091    0.6243    1.4299 H   0  0  0  0  0  0
   -2.7660    0.4977    1.3606 H   0  0  0  0  0  0
    4.2809    0.4640    0.1930 H   0  0  0  0  0  0
    4.9962   -2.6187    1.2917 H   0  0  0  0  0  0
    3.0537    2.3117    1.5005 H   0  0  0  0  0  0
    2.1966    4.6152    1.4337 H   0  0  0  0  0  0
   -0.8091    3.4276   -1.3651 H   0  0  0  0  0  0
    0.0434    1.1221   -1.3123 H   0  0  0  0  0  0
   -1.3491    6.4500   -0.9695 H   0  0  0  0  0  0
   -0.5974    5.1297   -1.8969 H   0  0  0  0  0  0
   -1.7023    4.7561   -0.5523 H   0  0  0  0  0  0
   -5.9824   -2.4471    1.3236 H   0  0  0  0  0  0
   -4.3784   -2.6864    1.7624 H   0  0  0  0  0  0
  1  2  1  0  0  0
  1  6  2  0  0  0
  1 23  1  0  0  0
  2  3  2  0  0  0
  2 27  1  0  0  0
  3  4  1  0  0  0
  3 28  1  0  0  0
  4  5  2  0  0  0
  4  7  1  0  0  0
  5  6  1  0  0  0
  5 29  1  0  0  0
  6 30  1  0  0  0
  7  8  1  0  0  0
  7 11  1  0  0  0
  8  9  2  0  0  0
  8 15  1  0  0  0
  9 10  1  0  0  0
  9 31  1  0  0  0
 10 11  2  0  0  0
 10 12  1  0  0  0
 12 13  1  0  0  0
 12 14  1  0  0  0
 12 32  1  0  0  0
 15 16  1  0  0  0
 15 20  2  0  0  0
 16 17  2  0  0  0
 16 33  1  0  0  0
 17 18  1  0  0  0
 17 34  1  0  0  0
 18 19  2  0  0  0
 18 21  1  0  0  0
 19 20  1  0  0  0
 19 35  1  0  0  0
 20 36  1  0  0  0
 21 22  1  0  0  0
 22 37  1  0  0  0
 22 38  1  0  0  0
 22 39  1  0  0  0
 23 24  2  0  0  0
 23 25  2  0  0  0
 23 26  1  0  0  0
 26 40  1  0  0  0
 26 41  1  0  0  0
M  END
>  <Activity>
7.82391

>  <set>
1

>  <Min_dist>
999.9

>  <Avg_dist>
999.9

$$$$
8-2H
  Cerius2 12110214513D 1   1.00000                          
 
 41 43  0  0  0  0  0  0  0  0999 V2000
   -3.0757   -0.9375    0.0591 C   0  0  0  0  0  0
   -2.4787   -1.9715   -0.6384 C   0  0  0  0  0  0
   -1.1048   -2.1121   -0.6260 C   0  0  0  0  0  0
   -0.3228   -1.2134    0.0876 C   0  0  0  0  0  0
   -0.9253   -0.1758    0.7867 C   0  0  0  0  0  0
   -2.2997   -0.0409    0.7707 C   0  0  0  0  0  0
    1.0709   -1.3535    0.1026 N   0  0  0  0  0  0
    1.9834   -0.3393    0.0400 C   0  0  0  0  0  0
    3.2256   -0.9076    0.0832 C   0  0  0  0  0  0
    3.0608   -2.2902    0.1734 C   0  0  0  0  0  0
    1.7794   -2.5587    0.1905 N   0  0  0  0  0  0
    4.1726   -3.3050    0.2447 C   0  0  0  0  0  0
    3.7481   -4.5034   -0.3392 F   0  0  0  0  0  0
    5.2904   -2.8213   -0.4436 F   0  0  0  0  0  0
    1.6831    1.1056   -0.0570 C   0  0  0  0  0  0
    2.4469    2.0286    0.6595 C   0  0  0  0  0  0
    2.1633    3.3760    0.5663 C   0  0  0  0  0  0
    1.1178    3.8133   -0.2399 C   0  0  0  0  0  0
    0.3571    2.8976   -0.9525 C   0  0  0  0  0  0
    0.6393    1.5499   -0.8692 C   0  0  0  0  0  0
    0.8403    5.1409   -0.3297 O   0  0  0  0  0  0
   -0.2698    5.2716   -1.2200 C   0  0  0  0  0  0
    2.9014    4.2708    1.2589 F   0  0  0  0  0  0
   -4.8283   -0.7576    0.0353 S   0  0  0  0  0  0
   -5.0810    0.6048    0.3505 O   0  0  0  0  0  0
   -5.2691   -1.4256   -1.1389 O   0  0  0  0  0  0
   -5.4331   -1.6327    1.3045 N   0  0  0  0  0  0
   -3.0874   -2.6701   -1.1932 H   0  0  0  0  0  0
   -0.6392   -2.9203   -1.1704 H   0  0  0  0  0  0
   -0.3198    0.5245    1.3429 H   0  0  0  0  0  0
   -2.7689    0.7660    1.3139 H   0  0  0  0  0  0
    4.1676   -0.3802    0.0525 H   0  0  0  0  0  0
    4.4365   -3.4823    1.2873 H   0  0  0  0  0  0
    3.2583    1.6887    1.2861 H   0  0  0  0  0  0
   -0.4542    3.2409   -1.5773 H   0  0  0  0  0  0
    0.0465    0.8383   -1.4247 H   0  0  0  0  0  0
   -0.5301    6.3249   -1.3239 H   0  0  0  0  0  0
   -0.0029    4.8653   -2.1956 H   0  0  0  0  0  0
   -1.1231    4.7242   -0.8195 H   0  0  0  0  0  0
   -6.3897   -1.6600    1.4626 H   0  0  0  0  0  0
   -4.8307   -2.1179    1.8899 H   0  0  0  0  0  0
  1  2  1  0  0  0
  1  6  2  0  0  0
  1 24  1  0  0  0
  2  3  2  0  0  0
  2 28  1  0  0  0
  3  4  1  0  0  0
  3 29  1  0  0  0
  4  5  2  0  0  0
  4  7  1  0  0  0
  5  6  1  0  0  0
  5 30  1  0  0  0
  6 31  1  0  0  0
  7  8  1  0  0  0
  7 11  1  0  0  0
  8  9  2  0  0  0
  8 15  1  0  0  0
  9 10  1  0  0  0
  9 32  1  0  0  0
 10 11  2  0  0  0
 10 12  1  0  0  0
 12 13  1  0  0  0
 12 14  1  0  0  0
 12 33  1  0  0  0
 15 16  1  0  0  0
 15 20  2  0  0  0
 16 17  2  0  0  0
 16 34  1  0  0  0
 17 18  1  0  0  0
 17 23  1  0  0  0
 18 19  2  0  0  0
 18 21  1  0  0  0
 19 20  1  0  0  0
 19 35  1  0  0  0
 20 36  1  0  0  0
 21 22  1  0  0  0
 22 37  1  0  0  0
 22 38  1  0  0  0
 22 39  1  0  0  0
 24 25  2  0  0  0
 24 26  2  0  0  0
 24 27  1  0  0  0
 27 40  1  0  0  0
 27 41  1  0  0  0
M  END
>  <Activity>
7.30103

>  <set>
1

>  <Min_dist>
999.9

>  <Avg_dist>
999.9

$$$$
8-2O
  Cerius2 12110214513D 1   1.00000                          
 
 37 39  0  0  0  0  0  0  0  0999 V2000
   -2.8504   -0.6199    0.0133 C   0  0  0  0  0  0
   -2.1193   -1.5845   -0.6556 C   0  0  0  0  0  0
   -0.7390   -1.5562   -0.6183 C   0  0  0  0  0  0
   -0.0854   -0.5578    0.0918 C   0  0  0  0  0  0
   -0.8223    0.4094    0.7623 C   0  0  0  0  0  0
   -2.2024    0.3757    0.7213 C   0  0  0  0  0  0
    1.3145   -0.5266    0.1319 N   0  0  0  0  0  0
    2.0978    0.5902    0.0661 C   0  0  0  0  0  0
    3.3989    0.1785    0.1387 C   0  0  0  0  0  0
    3.4021   -1.2123    0.2505 C   0  0  0  0  0  0
    2.1627   -1.6348    0.2528 N   0  0  0  0  0  0
    4.6277   -2.0826    0.3573 C   0  0  0  0  0  0
    4.3629   -3.3327   -0.2122 F   0  0  0  0  0  0
    5.6905   -1.4767   -0.3213 F   0  0  0  0  0  0
    1.6256    1.9863   -0.0609 C   0  0  0  0  0  0
    2.2574    3.0069    0.6504 C   0  0  0  0  0  0
    1.8124    4.3071    0.5273 C   0  0  0  0  0  0
    0.7420    4.5998   -0.2988 C   0  0  0  0  0  0
    0.1112    3.5923   -1.0067 C   0  0  0  0  0  0
    0.5502    2.2889   -0.8968 C   0  0  0  0  0  0
   -4.6111   -0.6552   -0.0428 S   0  0  0  0  0  0
   -5.0332    0.6711    0.2435 O   0  0  0  0  0  0
   -4.9455   -1.3904   -1.2119 O   0  0  0  0  0  0
   -5.1287   -1.5771    1.2318 N   0  0  0  0  0  0
   -2.6283   -2.3610   -1.2073 H   0  0  0  0  0  0
   -0.1686   -2.3101   -1.1405 H   0  0  0  0  0  0
   -0.3169    1.1870    1.3157 H   0  0  0  0  0  0
   -2.7762    1.1276    1.2426 H   0  0  0  0  0  0
    4.2700    0.8164    0.1137 H   0  0  0  0  0  0
    4.8924   -2.2103    1.4069 H   0  0  0  0  0  0
    3.0927    2.7797    1.2962 H   0  0  0  0  0  0
    2.3006    5.0981    1.0773 H   0  0  0  0  0  0
    0.3970    5.6190   -0.3912 H   0  0  0  0  0  0
   -0.7239    3.8271   -1.6500 H   0  0  0  0  0  0
    0.0573    1.5033   -1.4502 H   0  0  0  0  0  0
   -6.0777   -1.7182    1.3745 H   0  0  0  0  0  0
   -4.4828   -1.9759    1.8357 H   0  0  0  0  0  0
  1  2  1  0  0  0
  1  6  2  0  0  0
  1 21  1  0  0  0
  2  3  2  0  0  0
  2 25  1  0  0  0
  3  4  1  0  0  0
  3 26  1  0  0  0
  4  5  2  0  0  0
  4  7  1  0  0  0
  5  6  1  0  0  0
  5 27  1  0  0  0
  6 28  1  0  0  0
  7  8  1  0  0  0
  7 11  1  0  0  0
  8  9  2  0  0  0
  8 15  1  0  0  0
  9 10  1  0  0  0
  9 29  1  0  0  0
 10 11  2  0  0  0
 10 12  1  0  0  0
 12 13  1  0  0  0
 12 14  1  0  0  0
 12 30  1  0  0  0
 15 16  1  0  0  0
 15 20  2  0  0  0
 16 17  2  0  0  0
 16 31  1  0  0  0
 17 18  1  0  0  0
 17 32  1  0  0  0
 18 19  2  0  0  0
 18 33  1  0  0  0
 19 20  1  0  0  0
 19 34  1  0  0  0
 20 35  1  0  0  0
 21 22  2  0  0  0
 21 23  2  0  0  0
 21 24  1  0  0  0
 24 36  1  0  0  0
 24 37  1  0  0  0
M  END
>  <Activity>
6.88606

>  <set>
1

>  <Min_dist>
999.9

>  <Avg_dist>
999.9

$$$$
8-16A
  Cerius2 12110214513D 1   1.00000                          
 
 37 39  0  0  0  0  0  0  0  0999 V2000
   -2.6384   -0.5028    0.0003 C   0  0  0  0  0  0
   -2.0487   -1.4581   -0.8072 C   0  0  0  0  0  0
   -0.6727   -1.5616   -0.8650 C   0  0  0  0  0  0
    0.1188   -0.7052   -0.1111 C   0  0  0  0  0  0
   -0.4763    0.2530    0.6988 C   0  0  0  0  0  0
   -1.8529    0.3514    0.7523 C   0  0  0  0  0  0
    1.5147   -0.8079   -0.1672 N   0  0  0  0  0  0
    2.3993    0.2325   -0.1816 C   0  0  0  0  0  0
    3.6552   -0.3031   -0.2406 C   0  0  0  0  0  0
    3.5274   -1.6922   -0.2622 C   0  0  0  0  0  0
    2.2548   -1.9963   -0.2125 N   0  0  0  0  0  0
    4.6650   -2.6786   -0.3256 C   0  0  0  0  0  0
    5.0686   -3.0091    0.9725 F   0  0  0  0  0  0
    2.0608    1.6720   -0.1414 C   0  0  0  0  0  0
    2.8329    2.5523    0.6173 C   0  0  0  0  0  0
    2.5122    3.8938    0.6503 C   0  0  0  0  0  0
    1.4275    4.3666   -0.0665 C   0  0  0  0  0  0
    0.6579    3.4989   -0.8208 C   0  0  0  0  0  0
    0.9716    2.1561   -0.8667 C   0  0  0  0  0  0
   -4.3941   -0.3692    0.0657 S   0  0  0  0  0  0
   -4.6644    0.9546    0.5060 O   0  0  0  0  0  0
   -4.8705   -0.9478   -1.1416 O   0  0  0  0  0  0
   -4.9214   -1.3638    1.2801 N   0  0  0  0  0  0
   -2.6649   -2.1241   -1.3931 H   0  0  0  0  0  0
   -0.2128   -2.3080   -1.4956 H   0  0  0  0  0  0
    0.1366    0.9203    1.2866 H   0  0  0  0  0  0
   -2.3164    1.0964    1.3820 H   0  0  0  0  0  0
    4.5820    0.2507   -0.2662 H   0  0  0  0  0  0
    4.3365   -3.5792   -0.8443 H   0  0  0  0  0  0
    5.5019   -2.2339   -0.8641 H   0  0  0  0  0  0
    3.6795    2.1843    1.1779 H   0  0  0  0  0  0
    3.1091    4.5763    1.2372 H   0  0  0  0  0  0
    1.1802    5.4175   -0.0369 H   0  0  0  0  0  0
   -0.1876    3.8741   -1.3782 H   0  0  0  0  0  0
    0.3703    1.4797   -1.4561 H   0  0  0  0  0  0
   -5.8693   -1.4303    1.4755 H   0  0  0  0  0  0
   -4.2826   -1.8800    1.7962 H   0  0  0  0  0  0
  1  2  1  0  0  0
  1  6  2  0  0  0
  1 20  1  0  0  0
  2  3  2  0  0  0
  2 24  1  0  0  0
  3  4  1  0  0  0
  3 25  1  0  0  0
  4  5  2  0  0  0
  4  7  1  0  0  0
  5  6  1  0  0  0
  5 26  1  0  0  0
  6 27  1  0  0  0
  7  8  1  0  0  0
  7 11  1  0  0  0
  8  9  2  0  0  0
  8 14  1  0  0  0
  9 10  1  0  0  0
  9 28  1  0  0  0
 10 11  2  0  0  0
 10 12  1  0  0  0
 12 13  1  0  0  0
 12 29  1  0  0  0
 12 30  1  0  0  0
 14 15  1  0  0  0
 14 19  2  0  0  0
 15 16  2  0  0  0
 15 31  1  0  0  0
 16 17  1  0  0  0
 16 32  1  0  0  0
 17 18  2  0  0  0
 17 33  1  0  0  0
 18 19  1  0  0  0
 18 34  1  0  0  0
 19 35  1  0  0  0
 20 21  2  0  0  0
 20 22  2  0  0  0
 20 23  1  0  0  0
 23 36  1  0  0  0
 23 37  1  0  0  0
M  END
>  <Activity>
6.69897

>  <set>
1

>  <Min_dist>
999.9

>  <Avg_dist>
999.9

$$$$
8-20B
  Cerius2 12110214513D 1   1.00000                          
 
 37 39  0  0  0  0  0  0  0  0999 V2000
   -2.9553   -0.3544    0.0051 C   0  0  0  0  0  0
   -2.4619   -1.4297   -0.7109 C   0  0  0  0  0  0
   -1.1082   -1.7034   -0.7034 C   0  0  0  0  0  0
   -0.2423   -0.8975    0.0240 C   0  0  0  0  0  0
   -0.7409    0.1815    0.7419 C   0  0  0  0  0  0
   -2.0956    0.4500    0.7305 C   0  0  0  0  0  0
    1.1311   -1.1727    0.0339 N   0  0  0  0  0  0
    2.1386   -0.2505   -0.0129 C   0  0  0  0  0  0
    3.3200   -0.9381    0.0178 C   0  0  0  0  0  0
    3.0207   -2.2999    0.0845 C   0  0  0  0  0  0
    1.7191   -2.4424    0.0998 N   0  0  0  0  0  0
    4.0280   -3.4196    0.1365 C   0  0  0  0  0  0
    4.9096   -0.2413   -0.0194 Cl  0  0  0  0  0  0
    1.9804    1.2183   -0.0838 C   0  0  0  0  0  0
    2.5076    2.0292    0.9221 C   0  0  0  0  0  0
    2.3571    3.3987    0.8498 C   0  0  0  0  0  0
    1.6847    3.9684   -0.2167 C   0  0  0  0  0  0
    1.1592    3.1700   -1.2170 C   0  0  0  0  0  0
    1.3084    1.7996   -1.1597 C   0  0  0  0  0  0
   -4.6820   -0.0042   -0.0128 S   0  0  0  0  0  0
   -4.8007    1.3707    0.3258 O   0  0  0  0  0  0
   -5.1857   -0.6059   -1.1975 O   0  0  0  0  0  0
   -5.3692   -0.8376    1.2424 N   0  0  0  0  0  0
   -3.1358   -2.0563   -1.2761 H   0  0  0  0  0  0
   -0.7234   -2.5435   -1.2625 H   0  0  0  0  0  0
   -0.0701    0.8099    1.3089 H   0  0  0  0  0  0
   -2.4840    1.2891    1.2886 H   0  0  0  0  0  0
    4.2731   -3.6398    1.1755 H   0  0  0  0  0  0
    3.6078   -4.3086   -0.3339 H   0  0  0  0  0  0
    4.9317   -3.1203   -0.3944 H   0  0  0  0  0  0
    3.0321    1.5856    1.7555 H   0  0  0  0  0  0
    2.7646    4.0274    1.6277 H   0  0  0  0  0  0
    1.5692    5.0409   -0.2684 H   0  0  0  0  0  0
    0.6348    3.6208   -2.0465 H   0  0  0  0  0  0
    0.8977    1.1774   -1.9411 H   0  0  0  0  0  0
   -6.3240   -0.7743    1.4016 H   0  0  0  0  0  0
   -4.8170   -1.3891    1.8184 H   0  0  0  0  0  0
  1  2  1  0  0  0
  1  6  2  0  0  0
  1 20  1  0  0  0
  2  3  2  0  0  0
  2 24  1  0  0  0
  3  4  1  0  0  0
  3 25  1  0  0  0
  4  5  2  0  0  0
  4  7  1  0  0  0
  5  6  1  0  0  0
  5 26  1  0  0  0
  6 27  1  0  0  0
  7  8  1  0  0  0
  7 11  1  0  0  0
  8  9  2  0  0  0
  8 14  1  0  0  0
  9 10  1  0  0  0
  9 13  1  0  0  0
 10 11  2  0  0  0
 10 12  1  0  0  0
 12 28  1  0  0  0
 12 29  1  0  0  0
 12 30  1  0  0  0
 14 15  1  0  0  0
 14 19  2  0  0  0
 15 16  2  0  0  0
 15 31  1  0  0  0
 16 17  1  0  0  0
 16 32  1  0  0  0
 17 18  2  0  0  0
 17 33  1  0  0  0
 18 19  1  0  0  0
 18 34  1  0  0  0
 19 35  1  0  0  0
 20 21  2  0  0  0
 20 22  2  0  0  0
 20 23  1  0  0  0
 23 36  1  0  0  0
 23 37  1  0  0  0
M  END
>  <Activity>
7.55284

>  <set>
1

>  <Min_dist>
999.9

>  <Avg_dist>
999.9

$$$$
8-20C
  Cerius2 12110214513D 1   1.00000                          
 
 38 40  0  0  0  0  0  0  0  0999 V2000
   -3.2555   -0.7243   -0.0105 C   0  0  0  0  0  0
   -2.7689   -1.7425   -0.8097 C   0  0  0  0  0  0
   -1.4132   -2.0033   -0.8493 C   0  0  0  0  0  0
   -0.5385   -1.2418   -0.0854 C   0  0  0  0  0  0
   -1.0304   -0.2201    0.7161 C   0  0  0  0  0  0
   -2.3871    0.0357    0.7514 C   0  0  0  0  0  0
    0.8370   -1.5041   -0.1230 N   0  0  0  0  0  0
    1.8359   -0.5714   -0.1262 C   0  0  0  0  0  0
    3.0230   -1.2483   -0.1674 C   0  0  0  0  0  0
    2.7361   -2.6143   -0.1895 C   0  0  0  0  0  0
    1.4362   -2.7697   -0.1579 N   0  0  0  0  0  0
    3.7532   -3.7253   -0.2365 C   0  0  0  0  0  0
    4.1058   -4.1049    1.0953 O   0  0  0  0  0  0
    4.6059   -0.5357   -0.1895 Cl  0  0  0  0  0  0
    1.6645    0.8972   -0.0922 C   0  0  0  0  0  0
    2.2059    1.6415    0.9566 C   0  0  0  0  0  0
    2.0433    3.0111    0.9828 C   0  0  0  0  0  0
    1.3439    3.6474   -0.0289 C   0  0  0  0  0  0
    0.8041    2.9140   -1.0720 C   0  0  0  0  0  0
    0.9656    1.5446   -1.1119 C   0  0  0  0  0  0
    1.1428    5.3712    0.0110 Cl  0  0  0  0  0  0
   -4.9850   -0.3900    0.0316 S   0  0  0  0  0  0
   -5.1074    0.9569    0.4676 O   0  0  0  0  0  0
   -5.5089   -0.9126   -1.1815 O   0  0  0  0  0  0
   -5.6388   -1.3151    1.2395 N   0  0  0  0  0  0
   -3.4496   -2.3346   -1.4033 H   0  0  0  0  0  0
   -1.0337   -2.7989   -1.4733 H   0  0  0  0  0  0
   -0.3527    0.3737    1.3116 H   0  0  0  0  0  0
   -2.7703    0.8303    1.3746 H   0  0  0  0  0  0
    3.3301   -4.5834   -0.7588 H   0  0  0  0  0  0
    4.6429   -3.3814   -0.7640 H   0  0  0  0  0  0
    4.7567   -4.8161    1.0201 H   0  0  0  0  0  0
    2.7509    1.1462    1.7466 H   0  0  0  0  0  0
    2.4619    3.5882    1.7940 H   0  0  0  0  0  0
    0.2593    3.4156   -1.8581 H   0  0  0  0  0  0
    0.5444    0.9736   -1.9262 H   0  0  0  0  0  0
   -6.5905   -1.2720    1.4223 H   0  0  0  0  0  0
   -5.0702   -1.9001    1.7642 H   0  0  0  0  0  0
  1  2  1  0  0  0
  1  6  2  0  0  0
  1 22  1  0  0  0
  2  3  2  0  0  0
  2 26  1  0  0  0
  3  4  1  0  0  0
  3 27  1  0  0  0
  4  5  2  0  0  0
  4  7  1  0  0  0
  5  6  1  0  0  0
  5 28  1  0  0  0
  6 29  1  0  0  0
  7  8  1  0  0  0
  7 11  1  0  0  0
  8  9  2  0  0  0
  8 15  1  0  0  0
  9 10  1  0  0  0
  9 14  1  0  0  0
 10 11  2  0  0  0
 10 12  1  0  0  0
 12 13  1  0  0  0
 12 30  1  0  0  0
 12 31  1  0  0  0
 13 32  1  0  0  0
 15 16  1  0  0  0
 15 20  2  0  0  0
 16 17  2  0  0  0
 16 33  1  0  0  0
 17 18  1  0  0  0
 17 34  1  0  0  0
 18 19  2  0  0  0
 18 21  1  0  0  0
 19 20  1  0  0  0
 19 35  1  0  0  0
 20 36  1  0  0  0
 22 23  2  0  0  0
 22 24  2  0  0  0
 22 25  1  0  0  0
 25 37  1  0  0  0
 25 38  1  0  0  0
M  END
>  <Activity>
6.46852

>  <set>
1

>  <Min_dist>
999.9

>  <Avg_dist>
999.9

$$$$
8-20D
  Cerius2 12110214513D 1   1.00000                          
 
 35 37  0  0  0  0  0  0  0  0999 V2000
   -3.2236   -0.7006    0.0029 C   0  0  0  0  0  0
   -2.7421   -1.7606   -0.7434 C   0  0  0  0  0  0
   -1.3918   -2.0506   -0.7426 C   0  0  0  0  0  0
   -0.5172   -1.2761    0.0083 C   0  0  0  0  0  0
   -1.0039   -0.2120    0.7564 C   0  0  0  0  0  0
   -2.3553    0.0725    0.7518 C   0  0  0  0  0  0
    0.8522   -1.5677    0.0116 N   0  0  0  0  0  0
    1.8694   -0.6531   -0.0081 C   0  0  0  0  0  0
    3.0451   -1.3442    0.0033 C   0  0  0  0  0  0
    2.7358   -2.7186    0.0308 C   0  0  0  0  0  0
    1.4216   -2.8469    0.0418 N   0  0  0  0  0  0
    3.6837   -3.7918    0.0502 C   0  0  0  0  0  0
    4.4357   -4.6431    0.0656 N   0  0  0  0  0  0
    4.6379   -0.6540   -0.0136 Cl  0  0  0  0  0  0
    1.7210    0.8184   -0.0368 C   0  0  0  0  0  0
    2.2529    1.5961    0.9924 C   0  0  0  0  0  0
    2.1119    2.9680    0.9601 C   0  0  0  0  0  0
    1.4439    3.5734   -0.0908 C   0  0  0  0  0  0
    0.9140    2.8068   -1.1148 C   0  0  0  0  0  0
    1.0535    1.4345   -1.0959 C   0  0  0  0  0  0
    1.2698    5.3003   -0.1244 Cl  0  0  0  0  0  0
   -4.9461   -0.3299   -0.0060 S   0  0  0  0  0  0
   -5.0490    1.0361    0.3719 O   0  0  0  0  0  0
   -5.4556   -0.8913   -1.2079 O   0  0  0  0  0  0
   -5.6443   -1.1909    1.2242 N   0  0  0  0  0  0
   -3.4228   -2.3625   -1.3272 H   0  0  0  0  0  0
   -1.0165   -2.8790   -1.3252 H   0  0  0  0  0  0
   -0.3263    0.3922    1.3415 H   0  0  0  0  0  0
   -2.7344    0.8999    1.3333 H   0  0  0  0  0  0
    2.7738    1.1248    1.8128 H   0  0  0  0  0  0
    2.5229    3.5709    1.7563 H   0  0  0  0  0  0
    0.3936    3.2844   -1.9319 H   0  0  0  0  0  0
    0.6400    0.8375   -1.8953 H   0  0  0  0  0  0
   -6.5984   -1.1210    1.3845 H   0  0  0  0  0  0
   -5.0991   -1.7652    1.7845 H   0  0  0  0  0  0
  1  2  1  0  0  0
  1  6  2  0  0  0
  1 22  1  0  0  0
  2  3  2  0  0  0
  2 26  1  0  0  0
  3  4  1  0  0  0
  3 27  1  0  0  0
  4  5  2  0  0  0
  4  7  1  0  0  0
  5  6  1  0  0  0
  5 28  1  0  0  0
  6 29  1  0  0  0
  7  8  1  0  0  0
  7 11  1  0  0  0
  8  9  2  0  0  0
  8 15  1  0  0  0
  9 10  1  0  0  0
  9 14  1  0  0  0
 10 11  2  0  0  0
 10 12  1  0  0  0
 12 13  3  0  0  0
 15 16  1  0  0  0
 15 20  2  0  0  0
 16 17  2  0  0  0
 16 30  1  0  0  0
 17 18  1  0  0  0
 17 31  1  0  0  0
 18 19  2  0  0  0
 18 21  1  0  0  0
 19 20  1  0  0  0
 19 32  1  0  0  0
 20 33  1  0  0  0
 22 23  2  0  0  0
 22 24  2  0  0  0
 22 25  1  0  0  0
 25 34  1  0  0  0
 25 35  1  0  0  0
M  END
>  <Activity>
8

>  <set>
1

>  <Min_dist>
999.9

>  <Avg_dist>
999.9

$$$$
8-24
  Cerius2 12110214513D 1   1.00000                          
 
 37 39  0  0  0  0  0  0  0  0999 V2000
   -3.2690   -0.6915    0.0029 C   0  0  0  0  0  0
   -2.5214   -1.5950   -0.7300 C   0  0  0  0  0  0
   -1.1429   -1.5107   -0.7334 C   0  0  0  0  0  0
   -0.5076   -0.5174    0.0001 C   0  0  0  0  0  0
   -1.2611    0.3883    0.7351 C   0  0  0  0  0  0
   -2.6394    0.2988    0.7345 C   0  0  0  0  0  0
    0.8904   -0.4296   -0.0009 N   0  0  0  0  0  0
    1.6260    0.7231   -0.0409 C   0  0  0  0  0  0
    2.9539    0.3566   -0.0259 C   0  0  0  0  0  0
    3.0081   -1.0383    0.0239 C   0  0  0  0  0  0
    1.7853   -1.5058    0.0448 N   0  0  0  0  0  0
    4.2659   -1.8676    0.0553 C   0  0  0  0  0  0
    3.9287   -3.2246    0.1031 F   0  0  0  0  0  0
    5.0200   -1.6148   -1.0956 F   0  0  0  0  0  0
    5.0167   -1.5335    1.1875 F   0  0  0  0  0  0
    4.0128    1.1951   -0.0548 F   0  0  0  0  0  0
    1.0957    2.1026   -0.0915 C   0  0  0  0  0  0
    1.4056    3.0101    0.9223 C   0  0  0  0  0  0
    0.9081    4.2958    0.8688 C   0  0  0  0  0  0
    0.1035    4.6861   -0.1869 C   0  0  0  0  0  0
   -0.2079    3.7911   -1.1949 C   0  0  0  0  0  0
    0.2880    2.5042   -1.1563 C   0  0  0  0  0  0
   -5.0278   -0.7978   -0.0012 S   0  0  0  0  0  0
   -5.4936    0.4961    0.3565 O   0  0  0  0  0  0
   -5.3696   -1.4952   -1.1911 O   0  0  0  0  0  0
   -5.4664   -1.7947    1.2463 N   0  0  0  0  0  0
   -3.0161   -2.3675   -1.3000 H   0  0  0  0  0  0
   -0.5596   -2.2168   -1.3058 H   0  0  0  0  0  0
   -0.7700    1.1618    1.3069 H   0  0  0  0  0  0
   -3.2260    1.0031    1.3056 H   0  0  0  0  0  0
    2.0333    2.7065    1.7471 H   0  0  0  0  0  0
    1.1468    4.9990    1.6530 H   0  0  0  0  0  0
   -0.2835    5.6937   -0.2240 H   0  0  0  0  0  0
   -0.8367    4.1018   -2.0161 H   0  0  0  0  0  0
    0.0442    1.8064   -1.9438 H   0  0  0  0  0  0
   -6.4038   -1.9813    1.4114 H   0  0  0  0  0  0
   -4.7859   -2.1919    1.8120 H   0  0  0  0  0  0
  1  2  1  0  0  0
  1  6  2  0  0  0
  1 23  1  0  0  0
  2  3  2  0  0  0
  2 27  1  0  0  0
  3  4  1  0  0  0
  3 28  1  0  0  0
  4  5  2  0  0  0
  4  7  1  0  0  0
  5  6  1  0  0  0
  5 29  1  0  0  0
  6 30  1  0  0  0
  7  8  1  0  0  0
  7 11  1  0  0  0
  8  9  2  0  0  0
  8 17  1  0  0  0
  9 10  1  0  0  0
  9 16  1  0  0  0
 10 11  2  0  0  0
 10 12  1  0  0  0
 12 13  1  0  0  0
 12 14  1  0  0  0
 12 15  1  0  0  0
 17 18  1  0  0  0
 17 22  2  0  0  0
 18 19  2  0  0  0
 18 31  1  0  0  0
 19 20  1  0  0  0
 19 32  1  0  0  0
 20 21  2  0  0  0
 20 33  1  0  0  0
 21 22  1  0  0  0
 21 34  1  0  0  0
 22 35  1  0  0  0
 23 24  2  0  0  0
 23 25  2  0  0  0
 23 26  1  0  0  0
 26 36  1  0  0  0
 26 37  1  0  0  0
M  END
>  <Activity>
8.76955

>  <set>
1

>  <Min_dist>
999.9

>  <Avg_dist>
999.9

$$$$
8-25A
  Cerius2 12110214513D 1   1.00000                          
 
 40 42  0  0  0  0  0  0  0  0999 V2000
   -3.1231    1.3795    0.0073 C   0  0  0  0  0  0
   -2.5416    0.4035    0.7957 C   0  0  0  0  0  0
   -1.1701    0.2407    0.7963 C   0  0  0  0  0  0
   -0.3750    1.0580    0.0037 C   0  0  0  0  0  0
   -0.9620    2.0369   -0.7872 C   0  0  0  0  0  0
   -2.3341    2.1950   -0.7830 C   0  0  0  0  0  0
    1.0163    0.8957    0.0024 N   0  0  0  0  0  0
    1.6889   -0.2927   -0.0191 C   0  0  0  0  0  0
    3.0245   -0.0036   -0.0128 C   0  0  0  0  0  0
    3.1618    1.3846    0.0130 C   0  0  0  0  0  0
    1.9683    1.9232    0.0169 N   0  0  0  0  0  0
    4.4664    2.1387    0.0279 C   0  0  0  0  0  0
    4.2100    3.5138    0.0532 F   0  0  0  0  0  0
    5.1994    1.7801    1.1643 F   0  0  0  0  0  0
    5.2010    1.8224   -1.1199 F   0  0  0  0  0  0
    4.1495   -1.0062   -0.0298 C   0  0  0  0  0  0
    1.0839   -1.6424   -0.0445 C   0  0  0  0  0  0
    0.1617   -1.9779   -1.0365 C   0  0  0  0  0  0
   -0.3988   -3.2382   -1.0555 C   0  0  0  0  0  0
   -0.0480   -4.1695   -0.0927 C   0  0  0  0  0  0
    0.8667   -3.8422    0.8940 C   0  0  0  0  0  0
    1.4377   -2.5867    0.9199 C   0  0  0  0  0  0
   -0.7579   -5.7534   -0.1226 Cl  0  0  0  0  0  0
   -4.8737    1.5797    0.0043 S   0  0  0  0  0  0
   -5.1863    2.2261   -1.2219 O   0  0  0  0  0  0
   -5.4054    0.3348    0.4367 O   0  0  0  0  0  0
   -5.2497    2.6674    1.1950 N   0  0  0  0  0  0
   -3.1605   -0.2318    1.4119 H   0  0  0  0  0  0
   -0.7165   -0.5213    1.4127 H   0  0  0  0  0  0
   -0.3463    2.6743   -1.4044 H   0  0  0  0  0  0
   -2.7912    2.9559   -1.3982 H   0  0  0  0  0  0
    4.4216   -1.2295   -1.0614 H   0  0  0  0  0  0
    5.0125   -0.5929    0.4922 H   0  0  0  0  0  0
    3.8281   -1.9214    0.4674 H   0  0  0  0  0  0
   -0.1130   -1.2522   -1.7877 H   0  0  0  0  0  0
   -1.1130   -3.4989   -1.8225 H   0  0  0  0  0  0
    1.1366   -4.5726    1.6424 H   0  0  0  0  0  0
    2.1509   -2.3325    1.6900 H   0  0  0  0  0  0
   -6.1747    2.9131    1.3530 H   0  0  0  0  0  0
   -4.5450    3.0589    1.7345 H   0  0  0  0  0  0
  1  2  1  0  0  0
  1  6  2  0  0  0
  1 24  1  0  0  0
  2  3  2  0  0  0
  2 28  1  0  0  0
  3  4  1  0  0  0
  3 29  1  0  0  0
  4  5  2  0  0  0
  4  7  1  0  0  0
  5  6  1  0  0  0
  5 30  1  0  0  0
  6 31  1  0  0  0
  7  8  1  0  0  0
  7 11  1  0  0  0
  8  9  2  0  0  0
  8 17  1  0  0  0
  9 10  1  0  0  0
  9 16  1  0  0  0
 10 11  2  0  0  0
 10 12  1  0  0  0
 12 13  1  0  0  0
 12 14  1  0  0  0
 12 15  1  0  0  0
 16 32  1  0  0  0
 16 33  1  0  0  0
 16 34  1  0  0  0
 17 18  1  0  0  0
 17 22  2  0  0  0
 18 19  2  0  0  0
 18 35  1  0  0  0
 19 20  1  0  0  0
 19 36  1  0  0  0
 20 21  2  0  0  0
 20 23  1  0  0  0
 21 22  1  0  0  0
 21 37  1  0  0  0
 22 38  1  0  0  0
 24 25  2  0  0  0
 24 26  2  0  0  0
 24 27  1  0  0  0
 27 39  1  0  0  0
 27 40  1  0  0  0
M  END
>  <Activity>
7.65758

>  <set>
1

>  <Min_dist>
999.9

>  <Avg_dist>
999.9

$$$$
8-26
  Cerius2 12110214513D 1   1.00000                          
 
 38 40  0  0  0  0  0  0  0  0999 V2000
   -3.2475   -0.6943    0.0039 C   0  0  0  0  0  0
   -2.4984   -1.5959   -0.7298 C   0  0  0  0  0  0
   -1.1201   -1.5080   -0.7347 C   0  0  0  0  0  0
   -0.4867   -0.5126   -0.0023 C   0  0  0  0  0  0
   -1.2418    0.3915    0.7331 C   0  0  0  0  0  0
   -2.6197    0.2980    0.7343 C   0  0  0  0  0  0
    0.9111   -0.4211   -0.0048 N   0  0  0  0  0  0
    1.6443    0.7352   -0.0461 C   0  0  0  0  0  0
    2.9749    0.3708   -0.0314 C   0  0  0  0  0  0
    3.0306   -1.0260    0.0195 C   0  0  0  0  0  0
    1.8085   -1.4950    0.0405 N   0  0  0  0  0  0
    4.2895   -1.8539    0.0505 C   0  0  0  0  0  0
    3.9539   -3.2112    0.0997 F   0  0  0  0  0  0
    5.0423   -1.6011   -1.1013 F   0  0  0  0  0  0
    5.0408   -1.5180    1.1818 F   0  0  0  0  0  0
    4.0405    1.2172   -0.0615 O   0  0  0  0  0  0
    1.1109    2.1127   -0.0976 C   0  0  0  0  0  0
    1.4191    3.0220    0.9156 C   0  0  0  0  0  0
    0.9183    4.3063    0.8612 C   0  0  0  0  0  0
    0.1123    4.6938   -0.1944 C   0  0  0  0  0  0
   -0.1975    3.7972   -1.2017 C   0  0  0  0  0  0
    0.3014    2.5116   -1.1625 C   0  0  0  0  0  0
   -5.0060   -0.8057    0.0022 S   0  0  0  0  0  0
   -5.4751    0.4871    0.3601 O   0  0  0  0  0  0
   -5.3474   -1.5044   -1.1871 O   0  0  0  0  0  0
   -5.4401   -1.8034    1.2505 N   0  0  0  0  0  0
   -2.9916   -2.3697   -1.2992 H   0  0  0  0  0  0
   -0.5355   -2.2128   -1.3073 H   0  0  0  0  0  0
   -0.7521    1.1665    1.3040 H   0  0  0  0  0  0
   -3.2076    1.0010    1.3057 H   0  0  0  0  0  0
    4.2584    1.4250    0.8574 H   0  0  0  0  0  0
    2.0479    2.7207    1.7404 H   0  0  0  0  0  0
    1.1557    5.0108    1.6447 H   0  0  0  0  0  0
   -0.2772    5.7004   -0.2322 H   0  0  0  0  0  0
   -0.8278    4.1057   -2.0226 H   0  0  0  0  0  0
    0.0589    1.8127   -1.9493 H   0  0  0  0  0  0
   -6.3768   -1.9926    1.4169 H   0  0  0  0  0  0
   -4.7577   -2.1985    1.8154 H   0  0  0  0  0  0
  1  2  1  0  0  0
  1  6  2  0  0  0
  1 23  1  0  0  0
  2  3  2  0  0  0
  2 27  1  0  0  0
  3  4  1  0  0  0
  3 28  1  0  0  0
  4  5  2  0  0  0
  4  7  1  0  0  0
  5  6  1  0  0  0
  5 29  1  0  0  0
  6 30  1  0  0  0
  7  8  1  0  0  0
  7 11  1  0  0  0
  8  9  2  0  0  0
  8 17  1  0  0  0
  9 10  1  0  0  0
  9 16  1  0  0  0
 10 11  2  0  0  0
 10 12  1  0  0  0
 12 13  1  0  0  0
 12 14  1  0  0  0
 12 15  1  0  0  0
 16 31  1  0  0  0
 17 18  1  0  0  0
 17 22  2  0  0  0
 18 19  2  0  0  0
 18 32  1  0  0  0
 19 20  1  0  0  0
 19 33  1  0  0  0
 20 21  2  0  0  0
 20 34  1  0  0  0
 21 22  1  0  0  0
 21 35  1  0  0  0
 22 36  1  0  0  0
 23 24  2  0  0  0
 23 25  2  0  0  0
 23 26  1  0  0  0
 26 37  1  0  0  0
 26 38  1  0  0  0
M  END
>  <Activity>
5.44612

>  <set>
1

>  <Min_dist>
999.9

>  <Avg_dist>
999.9

$$$$
8-28A
  Cerius2 12110214513D 1   1.00000                          
 
 37 39  0  0  0  0  0  0  0  0999 V2000
   -0.2629   -4.3829   -0.1341 C   0  0  0  0  0  0
   -1.3772   -4.1101    0.6416 C   0  0  0  0  0  0
   -1.8986   -2.8318    0.6774 C   0  0  0  0  0  0
   -1.3048   -1.8197   -0.0649 C   0  0  0  0  0  0
   -0.1875   -2.0953   -0.8420 C   0  0  0  0  0  0
    0.3308   -3.3748   -0.8752 C   0  0  0  0  0  0
   -1.8327   -0.5220   -0.0302 N   0  0  0  0  0  0
   -1.1148    0.6393   -0.0010 C   0  0  0  0  0  0
   -2.0114    1.6704    0.0264 C   0  0  0  0  0  0
   -3.2943    1.1225    0.0135 C   0  0  0  0  0  0
   -3.1917   -0.1824   -0.0255 N   0  0  0  0  0  0
   -4.5835    1.9026    0.0353 C   0  0  0  0  0  0
   -5.6654    1.0159    0.0133 F   0  0  0  0  0  0
   -4.6397    2.6782    1.1983 F   0  0  0  0  0  0
   -4.6422    2.7378   -1.0855 F   0  0  0  0  0  0
    0.3596    0.7589    0.0007 C   0  0  0  0  0  0
    0.9821    1.7601   -0.7455 C   0  0  0  0  0  0
    2.3577    1.8664   -0.7398 C   0  0  0  0  0  0
    3.1196    0.9828    0.0038 C   0  0  0  0  0  0
    2.5085   -0.0124    0.7454 C   0  0  0  0  0  0
    1.1334   -0.1254    0.7530 C   0  0  0  0  0  0
    4.8758    1.1253    0.0057 S   0  0  0  0  0  0
    5.3667   -0.1560    0.3750 O   0  0  0  0  0  0
    5.2081    1.8206   -1.1882 O   0  0  0  0  0  0
    5.2888    2.1404    1.2473 N   0  0  0  0  0  0
    0.2491   -5.6328   -0.1634 F   0  0  0  0  0  0
   -1.8390   -4.8977    1.2186 H   0  0  0  0  0  0
   -2.7679   -2.6196    1.2822 H   0  0  0  0  0  0
    0.2755   -1.3095   -1.4204 H   0  0  0  0  0  0
    1.2000   -3.5894   -1.4792 H   0  0  0  0  0  0
   -1.7696    2.7226    0.0538 H   0  0  0  0  0  0
    0.3884    2.4502   -1.3267 H   0  0  0  0  0  0
    2.8408    2.6407   -1.3173 H   0  0  0  0  0  0
    3.1088   -0.6992    1.3236 H   0  0  0  0  0  0
    0.6575   -0.9025    1.3327 H   0  0  0  0  0  0
    6.2215    2.3475    1.4146 H   0  0  0  0  0  0
    4.5980    2.5278    1.8072 H   0  0  0  0  0  0
  1  2  1  0  0  0
  1  6  2  0  0  0
  1 26  1  0  0  0
  2  3  2  0  0  0
  2 27  1  0  0  0
  3  4  1  0  0  0
  3 28  1  0  0  0
  4  5  2  0  0  0
  4  7  1  0  0  0
  5  6  1  0  0  0
  5 29  1  0  0  0
  6 30  1  0  0  0
  7  8  1  0  0  0
  7 11  1  0  0  0
  8  9  2  0  0  0
  8 16  1  0  0  0
  9 10  1  0  0  0
  9 31  1  0  0  0
 10 11  2  0  0  0
 10 12  1  0  0  0
 12 13  1  0  0  0
 12 14  1  0  0  0
 12 15  1  0  0  0
 16 17  1  0  0  0
 16 21  2  0  0  0
 17 18  2  0  0  0
 17 32  1  0  0  0
 18 19  1  0  0  0
 18 33  1  0  0  0
 19 20  2  0  0  0
 19 22  1  0  0  0
 20 21  1  0  0  0
 20 34  1  0  0  0
 21 35  1  0  0  0
 22 23  2  0  0  0
 22 24  2  0  0  0
 22 25  1  0  0  0
 25 36  1  0  0  0
 25 37  1  0  0  0
M  END
>  <Activity>
8

>  <set>
1

>  <Min_dist>
999.9

>  <Avg_dist>
999.9

$$$$
8-35
  Cerius2 12110214513D 1   1.00000                          
 
 32 34  0  0  0  0  0  0  0  0999 V2000
    2.2147   -3.2635   -0.1035 C   0  0  0  0  0  0
    1.0957   -3.5652    0.6528 C   0  0  0  0  0  0
    0.0248   -2.6936    0.6817 C   0  0  0  0  0  0
    0.0718   -1.5135   -0.0486 C   0  0  0  0  0  0
    1.1960   -1.2129   -0.8063 C   0  0  0  0  0  0
    2.2640   -2.0881   -0.8322 C   0  0  0  0  0  0
   -1.0134   -0.6277   -0.0214 N   0  0  0  0  0  0
   -0.9401    0.7353    0.0222 C   0  0  0  0  0  0
   -2.2214    1.2106    0.0361 C   0  0  0  0  0  0
   -3.0846    0.1152    0.0004 C   0  0  0  0  0  0
   -2.3689   -0.9806   -0.0400 N   0  0  0  0  0  0
   -4.5902    0.1821    0.0019 C   0  0  0  0  0  0
   -5.1146   -1.1142   -0.0401 F   0  0  0  0  0  0
   -5.0272    0.8245    1.1653 F   0  0  0  0  0  0
   -5.0262    0.8982   -1.1180 F   0  0  0  0  0  0
    0.2965    1.5465    0.0492 C   0  0  0  0  0  0
    0.3734    2.7308   -0.6847 C   0  0  0  0  0  0
    1.5290    3.4835   -0.6553 C   0  0  0  0  0  0
    2.6116    3.0656    0.1001 C   0  0  0  0  0  0
    2.5411    1.8912    0.8303 C   0  0  0  0  0  0
    1.3886    1.1333    0.8131 C   0  0  0  0  0  0
    4.0631    4.0173    0.1314 Cl  0  0  0  0  0  0
    3.5618   -4.3581   -0.1324 Cl  0  0  0  0  0  0
    1.0596   -4.4832    1.2207 H   0  0  0  0  0  0
   -0.8485   -2.9298    1.2715 H   0  0  0  0  0  0
    1.2348   -0.2959   -1.3754 H   0  0  0  0  0  0
    3.1387   -1.8546   -1.4211 H   0  0  0  0  0  0
   -2.5137    2.2498    0.0690 H   0  0  0  0  0  0
   -0.4702    3.0573   -1.2748 H   0  0  0  0  0  0
    1.5896    4.4003   -1.2229 H   0  0  0  0  0  0
    3.3887    1.5699    1.4175 H   0  0  0  0  0  0
    1.3346    0.2177    1.3833 H   0  0  0  0  0  0
  1  2  1  0  0  0
  1  6  2  0  0  0
  1 23  1  0  0  0
  2  3  2  0  0  0
  2 24  1  0  0  0
  3  4  1  0  0  0
  3 25  1  0  0  0
  4  5  2  0  0  0
  4  7  1  0  0  0
  5  6  1  0  0  0
  5 26  1  0  0  0
  6 27  1  0  0  0
  7  8  1  0  0  0
  7 11  1  0  0  0
  8  9  2  0  0  0
  8 16  1  0  0  0
  9 10  1  0  0  0
  9 28  1  0  0  0
 10 11  2  0  0  0
 10 12  1  0  0  0
 12 13  1  0  0  0
 12 14  1  0  0  0
 12 15  1  0  0  0
 16 17  1  0  0  0
 16 21  2  0  0  0
 17 18  2  0  0  0
 17 29  1  0  0  0
 18 19  1  0  0  0
 18 30  1  0  0  0
 19 20  2  0  0  0
 19 22  1  0  0  0
 20 21  1  0  0  0
 20 31  1  0  0  0
 21 32  1  0  0  0
M  END
>  <Activity>
5.31966

>  <set>
1

>  <Min_dist>
999.9

>  <Avg_dist>
999.9

$$$$
8-36
  Cerius2 12110214513D 1   1.00000                          
 
 40 42  0  0  0  0  0  0  0  0999 V2000
    2.3310   -3.2329    0.0400 C   0  0  0  0  0  0
    1.2143   -3.5172    0.8128 C   0  0  0  0  0  0
    0.1314   -2.6608    0.8029 C   0  0  0  0  0  0
    0.1601   -1.5146    0.0197 C   0  0  0  0  0  0
    1.2782   -1.2304   -0.7532 C   0  0  0  0  0  0
    2.3603   -2.0877   -0.7429 C   0  0  0  0  0  0
   -0.9393   -0.6449    0.0089 N   0  0  0  0  0  0
   -0.8871    0.7194   -0.0093 C   0  0  0  0  0  0
   -2.1759    1.1752   -0.0145 C   0  0  0  0  0  0
   -3.0219    0.0661    0.0008 C   0  0  0  0  0  0
   -2.2892   -1.0192    0.0087 N   0  0  0  0  0  0
   -4.5283    0.1097    0.0021 C   0  0  0  0  0  0
   -5.0326   -1.1952    0.0196 F   0  0  0  0  0  0
   -4.9740    0.7971    1.1362 F   0  0  0  0  0  0
   -4.9768    0.7676   -1.1482 F   0  0  0  0  0  0
    0.3367    1.5499   -0.0212 C   0  0  0  0  0  0
    0.3934    2.7009   -0.8084 C   0  0  0  0  0  0
    1.5357    3.4728   -0.8165 C   0  0  0  0  0  0
    2.6289    3.1062   -0.0428 C   0  0  0  0  0  0
    2.5764    1.9615    0.7414 C   0  0  0  0  0  0
    1.4356    1.1877    0.7591 C   0  0  0  0  0  0
    3.7530    3.8695   -0.0533 O   0  0  0  0  0  0
    4.6861    3.2427    0.8290 C   0  0  0  0  0  0
    3.3990   -4.0737    0.0541 O   0  0  0  0  0  0
    4.3745   -3.5173   -0.8295 C   0  0  0  0  0  0
    1.1920   -4.4087    1.4219 H   0  0  0  0  0  0
   -0.7381   -2.8826    1.4040 H   0  0  0  0  0  0
    1.3010   -0.3392   -1.3628 H   0  0  0  0  0  0
    3.2299   -1.8668   -1.3439 H   0  0  0  0  0  0
   -2.4843    2.2101   -0.0277 H   0  0  0  0  0  0
   -0.4564    2.9865   -1.4107 H   0  0  0  0  0  0
    1.5804    4.3634   -1.4257 H   0  0  0  0  0  0
    3.4290    1.6792    1.3413 H   0  0  0  0  0  0
    1.3954    0.2976    1.3696 H   0  0  0  0  0  0
    5.6088    3.8224    0.8534 H   0  0  0  0  0  0
    4.2613    3.1934    1.8316 H   0  0  0  0  0  0
    4.8998    2.2342    0.4750 H   0  0  0  0  0  0
    5.2541   -4.1606   -0.8511 H   0  0  0  0  0  0
    3.9549   -3.4417   -1.8327 H   0  0  0  0  0  0
    4.6586   -2.5251   -0.4787 H   0  0  0  0  0  0
  1  2  1  0  0  0
  1  6  2  0  0  0
  1 24  1  0  0  0
  2  3  2  0  0  0
  2 26  1  0  0  0
  3  4  1  0  0  0
  3 27  1  0  0  0
  4  5  2  0  0  0
  4  7  1  0  0  0
  5  6  1  0  0  0
  5 28  1  0  0  0
  6 29  1  0  0  0
  7  8  1  0  0  0
  7 11  1  0  0  0
  8  9  2  0  0  0
  8 16  1  0  0  0
  9 10  1  0  0  0
  9 30  1  0  0  0
 10 11  2  0  0  0
 10 12  1  0  0  0
 12 13  1  0  0  0
 12 14  1  0  0  0
 12 15  1  0  0  0
 16 17  1  0  0  0
 16 21  2  0  0  0
 17 18  2  0  0  0
 17 31  1  0  0  0
 18 19  1  0  0  0
 18 32  1  0  0  0
 19 20  2  0  0  0
 19 22  1  0  0  0
 20 21  1  0  0  0
 20 33  1  0  0  0
 21 34  1  0  0  0
 22 23  1  0  0  0
 23 35  1  0  0  0
 23 36  1  0  0  0
 23 37  1  0  0  0
 24 25  1  0  0  0
 25 38  1  0  0  0
 25 39  1  0  0  0
 25 40  1  0  0  0
M  END
>  <Activity>
6.12494

>  <set>
1

>  <Min_dist>
999.9

>  <Avg_dist>
999.9

$$$$
8-CELECOXIB
  Cerius2 12110214513D 1   1.00000                          
 
 40 42  0  0  0  0  0  0  0  0999 V2000
   -3.0208   -0.9960    0.0073 C   0  0  0  0  0  0
   -2.2367   -1.8596   -0.7355 C   0  0  0  0  0  0
   -0.8631   -1.7159   -0.7409 C   0  0  0  0  0  0
   -0.2695   -0.7029    0.0006 C   0  0  0  0  0  0
   -1.0596    0.1626    0.7455 C   0  0  0  0  0  0
   -2.4327    0.0137    0.7468 C   0  0  0  0  0  0
    1.1235   -0.5548   -0.0024 N   0  0  0  0  0  0
    1.8081    0.6265   -0.0330 C   0  0  0  0  0  0
    3.1407    0.3238   -0.0242 C   0  0  0  0  0  0
    3.2638   -1.0655    0.0124 C   0  0  0  0  0  0
    2.0649   -1.5915    0.0316 N   0  0  0  0  0  0
    4.5607   -1.8327    0.0329 C   0  0  0  0  0  0
    4.2903   -3.2049    0.0689 F   0  0  0  0  0  0
    5.2982   -1.5328   -1.1175 F   0  0  0  0  0  0
    5.2976   -1.4728    1.1663 F   0  0  0  0  0  0
    1.2169    1.9820   -0.0694 C   0  0  0  0  0  0
    1.7870    3.0151    0.6752 C   0  0  0  0  0  0
    1.2311    4.2773    0.6366 C   0  0  0  0  0  0
    0.1106    4.5195   -0.1379 C   0  0  0  0  0  0
   -0.4594    3.4994   -0.8785 C   0  0  0  0  0  0
    0.0904    2.2341   -0.8530 C   0  0  0  0  0  0
   -0.4919    5.9003   -0.1746 C   0  0  0  0  0  0
   -4.7733   -1.1781    0.0057 S   0  0  0  0  0  0
   -5.2937    0.0912    0.3763 O   0  0  0  0  0  0
   -5.0876   -1.8786   -1.1901 O   0  0  0  0  0  0
   -5.1656   -2.2044    1.2447 N   0  0  0  0  0  0
   -2.6989   -2.6474   -1.3118 H   0  0  0  0  0  0
   -0.2512   -2.3909   -1.3209 H   0  0  0  0  0  0
   -0.6009    0.9512    1.3235 H   0  0  0  0  0  0
   -3.0477    0.6866    1.3259 H   0  0  0  0  0  0
    3.9542    1.0340   -0.0426 H   0  0  0  0  0  0
    2.6612    2.8271    1.2808 H   0  0  0  0  0  0
    1.6713    5.0779    1.2125 H   0  0  0  0  0  0
   -1.3340    3.6948   -1.4812 H   0  0  0  0  0  0
   -0.3552    1.4387   -1.4319 H   0  0  0  0  0  0
   -0.0344    6.4751   -0.9799 H   0  0  0  0  0  0
   -1.5655    5.8238   -0.3474 H   0  0  0  0  0  0
   -0.3118    6.4008    0.7768 H   0  0  0  0  0  0
   -6.0937   -2.4329    1.4099 H   0  0  0  0  0  0
   -4.4672   -2.5771    1.8053 H   0  0  0  0  0  0
  1  2  1  0  0  0
  1  6  2  0  0  0
  1 23  1  0  0  0
  2  3  2  0  0  0
  2 27  1  0  0  0
  3  4  1  0  0  0
  3 28  1  0  0  0
  4  5  2  0  0  0
  4  7  1  0  0  0
  5  6  1  0  0  0
  5 29  1  0  0  0
  6 30  1  0  0  0
  7  8  1  0  0  0
  7 11  1  0  0  0
  8  9  2  0  0  0
  8 16  1  0  0  0
  9 10  1  0  0  0
  9 31  1  0  0  0
 10 11  2  0  0  0
 10 12  1  0  0  0
 12 13  1  0  0  0
 12 14  1  0  0  0
 12 15  1  0  0  0
 16 17  1  0  0  0
 16 21  2  0  0  0
 17 18  2  0  0  0
 17 32  1  0  0  0
 18 19  1  0  0  0
 18 33  1  0  0  0
 19 20  2  0  0  0
 19 22  1  0  0  0
 20 21  1  0  0  0
 20 34  1  0  0  0
 21 35  1  0  0  0
 22 36  1  0  0  0
 22 37  1  0  0  0
 22 38  1  0  0  0
 23 24  2  0  0  0
 23 25  2  0  0  0
 23 26  1  0  0  0
 26 39  1  0  0  0
 26 40  1  0  0  0
M  END
>  <Activity>
7.39794

>  <set>
1

>  <Min_dist>
999.9

>  <Avg_dist>
999.9

$$$$
8-1AL
  Cerius2 12110214513D 1   1.00000                          
 
 34 36  0  0  0  0  0  0  0  0999 V2000
    1.6272    2.8481   -0.0097 C   0  0  0  0  0  0
    1.5008    1.7830   -0.8825 C   0  0  0  0  0  0
    0.3443    1.0281   -0.8903 C   0  0  0  0  0  0
   -0.6922    1.3394   -0.0200 C   0  0  0  0  0  0
   -0.5620    2.4094    0.8556 C   0  0  0  0  0  0
    0.5969    3.1606    0.8582 C   0  0  0  0  0  0
   -1.8664    0.5762   -0.0258 N   0  0  0  0  0  0
   -1.9409   -0.7888   -0.0667 C   0  0  0  0  0  0
   -3.2800   -1.1213   -0.0562 C   0  0  0  0  0  0
   -4.0103    0.0658   -0.0082 C   0  0  0  0  0  0
   -3.1749    1.0736    0.0156 N   0  0  0  0  0  0
   -5.5134    0.1711    0.0185 C   0  0  0  0  0  0
   -5.8857    1.5188    0.0658 F   0  0  0  0  0  0
   -6.0427   -0.4187   -1.1344 F   0  0  0  0  0  0
   -6.0071   -0.4891    1.1487 F   0  0  0  0  0  0
   -0.8064   -1.7264   -0.1137 C   0  0  0  0  0  0
    0.8975   -1.4544    0.3449 S   0  0  0  0  0  0
    1.5235   -3.0836   -0.0301 C   0  0  0  0  0  0
    0.4091   -3.7222   -0.4748 C   0  0  0  0  0  0
   -0.7850   -3.0375   -0.5155 C   0  0  0  0  0  0
    3.2845   -3.7497    0.1457 Br  0  0  0  0  0  0
    3.1069    3.8046    0.0018 S   0  0  0  0  0  0
    3.1586    4.4206    1.2813 O   0  0  0  0  0  0
    4.1132    2.9655   -0.5484 O   0  0  0  0  0  0
    2.9070    5.0388   -1.0840 N   0  0  0  0  0  0
    2.3072    1.5414   -1.5591 H   0  0  0  0  0  0
    0.2459    0.1969   -1.5728 H   0  0  0  0  0  0
   -1.3664    2.6542    1.5334 H   0  0  0  0  0  0
    0.6989    3.9926    1.5392 H   0  0  0  0  0  0
   -3.6888   -2.1206   -0.0810 H   0  0  0  0  0  0
    0.4588   -4.7543   -0.7887 H   0  0  0  0  0  0
   -1.6854   -3.5212   -0.8645 H   0  0  0  0  0  0
    3.6196    5.6820   -1.2238 H   0  0  0  0  0  0
    2.0775    5.1186   -1.5803 H   0  0  0  0  0  0
  1  2  1  0  0  0
  1  6  2  0  0  0
  1 22  1  0  0  0
  2  3  2  0  0  0
  2 26  1  0  0  0
  3  4  1  0  0  0
  3 27  1  0  0  0
  4  5  2  0  0  0
  4  7  1  0  0  0
  5  6  1  0  0  0
  5 28  1  0  0  0
  6 29  1  0  0  0
  7  8  1  0  0  0
  7 11  1  0  0  0
  8  9  2  0  0  0
  8 16  1  0  0  0
  9 10  1  0  0  0
  9 30  1  0  0  0
 10 11  2  0  0  0
 10 12  1  0  0  0
 12 13  1  0  0  0
 12 14  1  0  0  0
 12 15  1  0  0  0
 16 17  1  0  0  0
 16 20  2  0  0  0
 17 18  1  0  0  0
 18 19  2  0  0  0
 18 21  1  0  0  0
 19 20  1  0  0  0
 19 31  1  0  0  0
 20 32  1  0  0  0
 22 23  2  0  0  0
 22 24  2  0  0  0
 22 25  1  0  0  0
 25 33  1  0  0  0
 25 34  1  0  0  0
M  END
>  <Activity>
7.92082

>  <set>
1

>  <Min_dist>
999.9

>  <Avg_dist>
999.9

$$$$
8-1AR
  Cerius2 12110214513D 1   1.00000                          
 
 45 48  0  0  0  0  0  0  0  0999 V2000
   -3.6316    0.1767    0.0429 C   0  0  0  0  0  0
   -2.6464   -0.4000    0.8234 C   0  0  0  0  0  0
   -1.3621    0.1075    0.8032 C   0  0  0  0  0  0
   -1.0604    1.1976   -0.0023 C   0  0  0  0  0  0
   -2.0518    1.7742   -0.7852 C   0  0  0  0  0  0
   -3.3343    1.2624   -0.7603 C   0  0  0  0  0  0
    0.2412    1.7149   -0.0247 N   0  0  0  0  0  0
    1.3953    0.9896   -0.1107 C   0  0  0  0  0  0
    2.4345    1.8775   -0.1020 C   0  0  0  0  0  0
    1.8986    3.1624   -0.0090 C   0  0  0  0  0  0
    0.5931    3.0696    0.0311 N   0  0  0  0  0  0
    2.6903    4.4440    0.0322 C   0  0  0  0  0  0
    1.8142    5.5305    0.1272 F   0  0  0  0  0  0
    3.5401    4.4316    1.1435 F   0  0  0  0  0  0
    3.4516    4.5596   -1.1358 F   0  0  0  0  0  0
    1.5009   -0.4828   -0.1972 C   0  0  0  0  0  0
    0.4504   -1.2330   -0.7300 C   0  0  0  0  0  0
    0.5646   -2.5995   -0.7963 C   0  0  0  0  0  0
    1.7165   -3.2519   -0.3382 C   0  0  0  0  0  0
    2.7649   -2.5140    0.1775 C   0  0  0  0  0  0
    2.6491   -1.1294    0.2460 C   0  0  0  0  0  0
    4.0652   -3.0869    0.6636 C   0  0  0  0  0  0
    3.9694   -4.5605    1.0216 C   0  0  0  0  0  0
    3.5046   -5.3367   -0.2168 C   0  0  0  0  0  0
    1.7358   -5.0119   -0.4438 S   0  0  0  0  0  0
   -5.2673   -0.4778    0.0664 S   0  0  0  0  0  0
   -5.8651   -0.0672   -1.1556 O   0  0  0  0  0  0
   -5.1389   -1.8223    0.5082 O   0  0  0  0  0  0
   -6.0991    0.3110    1.2615 N   0  0  0  0  0  0
   -2.8817   -1.2478    1.4496 H   0  0  0  0  0  0
   -0.5932   -0.3429    1.4135 H   0  0  0  0  0  0
   -1.8204    2.6224   -1.4125 H   0  0  0  0  0  0
   -4.1058    1.7101   -1.3693 H   0  0  0  0  0  0
    3.4840    1.6287   -0.1567 H   0  0  0  0  0  0
   -0.4436   -0.7428   -1.0863 H   0  0  0  0  0  0
   -0.2471   -3.1811   -1.2080 H   0  0  0  0  0  0
    3.4607   -0.5481    0.6580 H   0  0  0  0  0  0
    4.8161   -2.9638   -0.1168 H   0  0  0  0  0  0
    4.3851   -2.5319    1.5454 H   0  0  0  0  0  0
    4.9474   -4.9249    1.3360 H   0  0  0  0  0  0
    3.2494   -4.6947    1.8289 H   0  0  0  0  0  0
    4.0574   -4.9984   -1.0933 H   0  0  0  0  0  0
    3.6675   -6.4038   -0.0662 H   0  0  0  0  0  0
   -7.0278    0.0896    1.4333 H   0  0  0  0  0  0
   -5.6577    0.9944    1.7897 H   0  0  0  0  0  0
  1  2  1  0  0  0
  1  6  2  0  0  0
  1 26  1  0  0  0
  2  3  2  0  0  0
  2 30  1  0  0  0
  3  4  1  0  0  0
  3 31  1  0  0  0
  4  5  2  0  0  0
  4  7  1  0  0  0
  5  6  1  0  0  0
  5 32  1  0  0  0
  6 33  1  0  0  0
  7  8  1  0  0  0
  7 11  1  0  0  0
  8  9  2  0  0  0
  8 16  1  0  0  0
  9 10  1  0  0  0
  9 34  1  0  0  0
 10 11  2  0  0  0
 10 12  1  0  0  0
 12 13  1  0  0  0
 12 14  1  0  0  0
 12 15  1  0  0  0
 16 17  1  0  0  0
 16 21  2  0  0  0
 17 18  2  0  0  0
 17 35  1  0  0  0
 18 19  1  0  0  0
 18 36  1  0  0  0
 19 20  2  0  0  0
 19 25  1  0  0  0
 20 21  1  0  0  0
 20 22  1  0  0  0
 21 37  1  0  0  0
 22 23  1  0  0  0
 22 38  1  0  0  0
 22 39  1  0  0  0
 23 24  1  0  0  0
 23 40  1  0  0  0
 23 41  1  0  0  0
 24 25  1  0  0  0
 24 42  1  0  0  0
 24 43  1  0  0  0
 26 27  2  0  0  0
 26 28  2  0  0  0
 26 29  1  0  0  0
 29 44  1  0  0  0
 29 45  1  0  0  0
M  END
>  <Activity>
6.63827

>  <set>
1

>  <Min_dist>
999.9

>  <Avg_dist>
999.9

$$$$
8-1AS
  Cerius2 12110214513D 1   1.00000                          
 
 42 45  0  0  0  0  0  0  0  0999 V2000
   -2.7207    1.6426   -0.0356 C   0  0  0  0  0  0
   -1.8725    2.2848    0.8478 C   0  0  0  0  0  0
   -0.5248    1.9829    0.8564 C   0  0  0  0  0  0
   -0.0219    1.0330   -0.0229 C   0  0  0  0  0  0
   -0.8764    0.3896   -0.9084 C   0  0  0  0  0  0
   -2.2230    0.6963   -0.9125 C   0  0  0  0  0  0
    1.3446    0.7249   -0.0169 N   0  0  0  0  0  0
    1.8883   -0.5273   -0.0544 C   0  0  0  0  0  0
    3.2470   -0.3808   -0.0325 C   0  0  0  0  0  0
    3.5294    0.9846    0.0192 C   0  0  0  0  0  0
    2.3993    1.6459    0.0224 N   0  0  0  0  0  0
    4.9060    1.5967    0.0577 C   0  0  0  0  0  0
    4.7954    2.9905    0.1055 F   0  0  0  0  0  0
    5.5861    1.1436    1.1932 F   0  0  0  0  0  0
    5.6143    1.2241   -1.0897 F   0  0  0  0  0  0
    1.1450   -1.8048   -0.1078 C   0  0  0  0  0  0
    1.7350   -2.9391   -0.6679 C   0  0  0  0  0  0
    1.0409   -4.1264   -0.7200 C   0  0  0  0  0  0
   -0.2565   -4.2087   -0.2156 C   0  0  0  0  0  0
   -0.8360   -3.0775    0.3481 C   0  0  0  0  0  0
   -0.1505   -1.8872    0.4068 C   0  0  0  0  0  0
   -2.2198   -3.4771    0.8233 C   0  0  0  0  0  0
   -2.1336   -5.0214    0.7972 C   0  0  0  0  0  0
   -1.1130   -5.2668   -0.1851 O   0  0  0  0  0  0
   -4.4406    2.0258   -0.0389 S   0  0  0  0  0  0
   -5.0863    0.8977   -0.6131 O   0  0  0  0  0  0
   -4.7180    2.5668    1.2455 O   0  0  0  0  0  0
   -4.6690    3.2683   -1.1095 N   0  0  0  0  0  0
   -2.2642    3.0234    1.5314 H   0  0  0  0  0  0
    0.1373    2.4852    1.5461 H   0  0  0  0  0  0
   -0.4882   -0.3493   -1.5938 H   0  0  0  0  0  0
   -2.8881    0.1960   -1.6008 H   0  0  0  0  0  0
    3.9732   -1.1800   -0.0512 H   0  0  0  0  0  0
    2.7391   -2.8848   -1.0618 H   0  0  0  0  0  0
    1.5039   -4.9999   -1.1548 H   0  0  0  0  0  0
   -0.6162   -1.0155    0.8421 H   0  0  0  0  0  0
   -2.4042   -3.1143    1.8345 H   0  0  0  0  0  0
   -2.9862   -3.1181    0.1364 H   0  0  0  0  0  0
   -1.8331   -5.4079    1.7711 H   0  0  0  0  0  0
   -3.0831   -5.4559    0.4844 H   0  0  0  0  0  0
   -5.5588    3.6262   -1.2545 H   0  0  0  0  0  0
   -3.9129    3.6383   -1.5916 H   0  0  0  0  0  0
  1  2  1  0  0  0
  1  6  2  0  0  0
  1 25  1  0  0  0
  2  3  2  0  0  0
  2 29  1  0  0  0
  3  4  1  0  0  0
  3 30  1  0  0  0
  4  5  2  0  0  0
  4  7  1  0  0  0
  5  6  1  0  0  0
  5 31  1  0  0  0
  6 32  1  0  0  0
  7  8  1  0  0  0
  7 11  1  0  0  0
  8  9  2  0  0  0
  8 16  1  0  0  0
  9 10  1  0  0  0
  9 33  1  0  0  0
 10 11  2  0  0  0
 10 12  1  0  0  0
 12 13  1  0  0  0
 12 14  1  0  0  0
 12 15  1  0  0  0
 16 17  1  0  0  0
 16 21  2  0  0  0
 17 18  2  0  0  0
 17 34  1  0  0  0
 18 19  1  0  0  0
 18 35  1  0  0  0
 19 20  2  0  0  0
 19 24  1  0  0  0
 20 21  1  0  0  0
 20 22  1  0  0  0
 21 36  1  0  0  0
 22 23  1  0  0  0
 22 37  1  0  0  0
 22 38  1  0  0  0
 23 24  1  0  0  0
 23 39  1  0  0  0
 23 40  1  0  0  0
 25 26  2  0  0  0
 25 27  2  0  0  0
 25 28  1  0  0  0
 28 41  1  0  0  0
 28 42  1  0  0  0
M  END
>  <Activity>
7.67778

>  <set>
1

>  <Min_dist>
999.9

>  <Avg_dist>
999.9

$$$$
8-1AT
  Cerius2 12110214513D 1   1.00000                          
 
 43 46  0  0  0  0  0  0  0  0999 V2000
   -2.9127   -1.6219    0.0898 C   0  0  0  0  0  0
   -2.1147   -2.4269   -0.7023 C   0  0  0  0  0  0
   -0.7485   -2.2277   -0.7363 C   0  0  0  0  0  0
   -0.1763   -1.2178    0.0259 C   0  0  0  0  0  0
   -0.9804   -0.4112    0.8203 C   0  0  0  0  0  0
   -2.3460   -0.6154    0.8500 C   0  0  0  0  0  0
    1.2092   -1.0136   -0.0060 N   0  0  0  0  0  0
    1.8456    0.1948   -0.0114 C   0  0  0  0  0  0
    3.1890   -0.0541   -0.0462 C   0  0  0  0  0  0
    3.3677   -1.4377   -0.0621 C   0  0  0  0  0  0
    2.1913   -2.0120   -0.0322 N   0  0  0  0  0  0
    4.6939   -2.1524   -0.1008 C   0  0  0  0  0  0
    4.4787   -3.5347   -0.1070 F   0  0  0  0  0  0
    5.3888   -1.7834   -1.2576 F   0  0  0  0  0  0
    5.4452   -1.8024    1.0262 F   0  0  0  0  0  0
    1.2007    1.5255    0.0154 C   0  0  0  0  0  0
    1.7500    2.5536    0.7826 C   0  0  0  0  0  0
    1.1471    3.7939    0.8069 C   0  0  0  0  0  0
   -0.0055    4.0243    0.0703 C   0  0  0  0  0  0
   -0.5588    3.0013   -0.6985 C   0  0  0  0  0  0
    0.0448    1.7577   -0.7309 C   0  0  0  0  0  0
   -1.6772    3.4788   -1.3194 O   0  0  0  0  0  0
   -1.5733    4.9131   -1.2485 C   0  0  0  0  0  0
   -0.7782    5.1410   -0.0701 O   0  0  0  0  0  0
    1.7422    4.9022    1.6368 C   0  0  0  0  0  0
   -4.6562   -1.8745    0.1249 S   0  0  0  0  0  0
   -5.2165   -0.6408    0.5531 O   0  0  0  0  0  0
   -4.9736   -2.5454   -1.0869 O   0  0  0  0  0  0
   -4.9752   -2.9580    1.3359 N   0  0  0  0  0  0
   -2.5603   -3.2124   -1.2946 H   0  0  0  0  0  0
   -0.1257   -2.8570   -1.3549 H   0  0  0  0  0  0
   -0.5383    0.3748    1.4146 H   0  0  0  0  0  0
   -2.9719    0.0117    1.4677 H   0  0  0  0  0  0
    3.9731    0.6885   -0.0594 H   0  0  0  0  0  0
    2.6471    2.3779    1.3578 H   0  0  0  0  0  0
   -0.3828    0.9644   -1.3261 H   0  0  0  0  0  0
   -1.0692    5.3046   -2.1321 H   0  0  0  0  0  0
   -2.5597    5.3635   -1.1380 H   0  0  0  0  0  0
    2.4573    5.4629    1.0348 H   0  0  0  0  0  0
    0.9492    5.5695    1.9742 H   0  0  0  0  0  0
    2.2507    4.4758    2.5015 H   0  0  0  0  0  0
   -5.8889   -3.2293    1.5157 H   0  0  0  0  0  0
   -4.2483   -3.3213    1.8655 H   0  0  0  0  0  0
  1  2  1  0  0  0
  1  6  2  0  0  0
  1 26  1  0  0  0
  2  3  2  0  0  0
  2 30  1  0  0  0
  3  4  1  0  0  0
  3 31  1  0  0  0
  4  5  2  0  0  0
  4  7  1  0  0  0
  5  6  1  0  0  0
  5 32  1  0  0  0
  6 33  1  0  0  0
  7  8  1  0  0  0
  7 11  1  0  0  0
  8  9  2  0  0  0
  8 16  1  0  0  0
  9 10  1  0  0  0
  9 34  1  0  0  0
 10 11  2  0  0  0
 10 12  1  0  0  0
 12 13  1  0  0  0
 12 14  1  0  0  0
 12 15  1  0  0  0
 16 17  1  0  0  0
 16 21  2  0  0  0
 17 18  2  0  0  0
 17 35  1  0  0  0
 18 19  1  0  0  0
 18 25  1  0  0  0
 19 20  2  0  0  0
 19 24  1  0  0  0
 20 21  1  0  0  0
 20 22  1  0  0  0
 21 36  1  0  0  0
 22 23  1  0  0  0
 23 24  1  0  0  0
 23 37  1  0  0  0
 23 38  1  0  0  0
 25 39  1  0  0  0
 25 40  1  0  0  0
 25 41  1  0  0  0
 26 27  2  0  0  0
 26 28  2  0  0  0
 26 29  1  0  0  0
 29 42  1  0  0  0
 29 43  1  0  0  0
M  END
>  <Activity>
7.284

>  <set>
1

>  <Min_dist>
999.9

>  <Avg_dist>
999.9

$$$$
8-2M
  Cerius2 12110214513D 1   1.00000                          
 
 37 39  0  0  0  0  0  0  0  0999 V2000
    2.7558    0.7737    0.0151 C   0  0  0  0  0  0
    2.0982   -0.1058   -0.8254 C   0  0  0  0  0  0
    0.7204   -0.1944   -0.7931 C   0  0  0  0  0  0
   -0.0047    0.6005    0.0849 C   0  0  0  0  0  0
    0.6587    1.4823    0.9280 C   0  0  0  0  0  0
    2.0367    1.5666    0.8906 C   0  0  0  0  0  0
   -1.4020    0.5133    0.1198 N   0  0  0  0  0  0
   -2.1390   -0.6389    0.1072 C   0  0  0  0  0  0
   -3.4678   -0.2696    0.1535 C   0  0  0  0  0  0
   -3.5186    1.1233    0.1942 C   0  0  0  0  0  0
   -2.2954    1.5901    0.1800 N   0  0  0  0  0  0
   -4.7745    1.9543    0.2512 C   0  0  0  0  0  0
   -4.5500    3.1824   -0.3801 F   0  0  0  0  0  0
   -5.8113    1.2777   -0.4003 F   0  0  0  0  0  0
   -1.6138   -2.0132    0.0537 C   0  0  0  0  0  0
   -0.3358   -2.3808    0.2712 O   0  0  0  0  0  0
   -0.2258   -3.7130    0.1381 C   0  0  0  0  0  0
   -1.4372   -4.2185   -0.1677 C   0  0  0  0  0  0
   -2.3362   -3.1354   -0.2184 C   0  0  0  0  0  0
    1.0423   -4.5103    0.3034 C   0  0  0  0  0  0
    4.5142    0.8789   -0.0244 S   0  0  0  0  0  0
    4.8976    1.4107    1.2363 O   0  0  0  0  0  0
    4.9628   -0.3554   -0.5672 O   0  0  0  0  0  0
    4.9161    2.0339   -1.1410 N   0  0  0  0  0  0
    2.6627   -0.7237   -1.5080 H   0  0  0  0  0  0
    0.2073   -0.8809   -1.4503 H   0  0  0  0  0  0
    0.0976    2.1021    1.6117 H   0  0  0  0  0  0
    2.5533    2.2519    1.5462 H   0  0  0  0  0  0
   -4.3155   -0.9387    0.1570 H   0  0  0  0  0  0
   -5.0499    2.1256    1.2918 H   0  0  0  0  0  0
   -1.6745   -5.2583   -0.3378 H   0  0  0  0  0  0
   -3.3926   -3.1844   -0.4377 H   0  0  0  0  0  0
    1.8644   -3.8384    0.5498 H   0  0  0  0  0  0
    0.9130   -5.2361    1.1063 H   0  0  0  0  0  0
    1.2665   -5.0331   -0.6264 H   0  0  0  0  0  0
    5.8484    2.2412   -1.3103 H   0  0  0  0  0  0
    4.2191    2.5032   -1.6257 H   0  0  0  0  0  0
  1  2  1  0  0  0
  1  6  2  0  0  0
  1 21  1  0  0  0
  2  3  2  0  0  0
  2 25  1  0  0  0
  3  4  1  0  0  0
  3 26  1  0  0  0
  4  5  2  0  0  0
  4  7  1  0  0  0
  5  6  1  0  0  0
  5 27  1  0  0  0
  6 28  1  0  0  0
  7  8  1  0  0  0
  7 11  1  0  0  0
  8  9  2  0  0  0
  8 15  1  0  0  0
  9 10  1  0  0  0
  9 29  1  0  0  0
 10 11  2  0  0  0
 10 12  1  0  0  0
 12 13  1  0  0  0
 12 14  1  0  0  0
 12 30  1  0  0  0
 15 16  1  0  0  0
 15 19  2  0  0  0
 16 17  1  0  0  0
 17 18  2  0  0  0
 17 20  1  0  0  0
 18 19  1  0  0  0
 18 31  1  0  0  0
 19 32  1  0  0  0
 20 33  1  0  0  0
 20 34  1  0  0  0
 20 35  1  0  0  0
 21 22  2  0  0  0
 21 23  2  0  0  0
 21 24  1  0  0  0
 24 36  1  0  0  0
 24 37  1  0  0  0
M  END
>  <Activity>
5.4828

>  <set>
1

>  <Min_dist>
999.9

>  <Avg_dist>
999.9

$$$$
9-3
  Cerius2 12110214513D 1   1.00000                          
 
 43 46  0  0  0  0  0  0  0  0999 V2000
    2.4232    0.3502    0.1926 C   0  0  0  0  0  0
    1.4815    1.3026    0.2500 C   0  0  0  0  0  0
    2.1150    2.6695    0.3992 C   0  0  0  0  0  0
    3.5882    2.4557    0.0259 C   0  0  0  0  0  0
    3.8047    0.9606    0.2962 C   0  0  0  0  0  0
    4.2453    3.1756   -1.1381 C   0  0  0  0  0  0
    4.6578    3.4967    0.3025 C   0  0  0  0  0  0
    0.0306    1.0536    0.1771 C   0  0  0  0  0  0
   -0.5918    0.2448    1.1316 C   0  0  0  0  0  0
   -1.9498    0.0163    1.0569 C   0  0  0  0  0  0
   -2.6958    0.5852    0.0397 C   0  0  0  0  0  0
   -2.0862    1.3869   -0.9094 C   0  0  0  0  0  0
   -0.7302    1.6298   -0.8436 C   0  0  0  0  0  0
   -4.4301    0.2871   -0.0478 S   0  0  0  0  0  0
   -4.7088    0.4527   -1.4314 O   0  0  0  0  0  0
   -4.5674   -0.9675    0.6052 O   0  0  0  0  0  0
   -5.1318    1.6359    0.9415 C   0  0  0  0  0  0
    2.1512   -1.0916    0.0542 C   0  0  0  0  0  0
    1.4601   -1.5712   -1.0617 C   0  0  0  0  0  0
    1.2085   -2.9211   -1.1855 C   0  0  0  0  0  0
    1.6392   -3.8019   -0.2057 C   0  0  0  0  0  0
    2.3252   -3.3323    0.9035 C   0  0  0  0  0  0
    2.5882   -1.9854    1.0356 C   0  0  0  0  0  0
    1.3890   -5.1235   -0.3321 F   0  0  0  0  0  0
    1.6494    3.3808   -0.2829 H   0  0  0  0  0  0
    2.0304    3.0174    1.4287 H   0  0  0  0  0  0
    4.2128    0.8102    1.2957 H   0  0  0  0  0  0
    4.4676    0.5306   -0.4546 H   0  0  0  0  0  0
    4.9481    2.6090   -1.7490 H   0  0  0  0  0  0
    3.6522    3.9195   -1.6700 H   0  0  0  0  0  0
    4.3360    4.4517    0.7178 H   0  0  0  0  0  0
    5.6318    3.1412    0.6388 H   0  0  0  0  0  0
   -0.0107   -0.2005    1.9256 H   0  0  0  0  0  0
   -2.4322   -0.6086    1.7939 H   0  0  0  0  0  0
   -2.6746    1.8271   -1.7009 H   0  0  0  0  0  0
   -0.2558    2.2560   -1.5848 H   0  0  0  0  0  0
   -6.2182    1.5487    0.9561 H   0  0  0  0  0  0
   -4.7488    1.5765    1.9603 H   0  0  0  0  0  0
   -4.8500    2.5930    0.5026 H   0  0  0  0  0  0
    1.1234   -0.8858   -1.8255 H   0  0  0  0  0  0
    0.6745   -3.2930   -2.0474 H   0  0  0  0  0  0
    2.6579   -4.0234    1.6638 H   0  0  0  0  0  0
    3.1228   -1.6207    1.9002 H   0  0  0  0  0  0
  1  2  2  0  0  0
  1  5  1  0  0  0
  1 18  1  0  0  0
  2  3  1  0  0  0
  2  8  1  0  0  0
  3  4  1  0  0  0
  3 25  1  0  0  0
  3 26  1  0  0  0
  4  5  1  0  0  0
  4  6  1  0  0  0
  4  7  1  0  0  0
  5 27  1  0  0  0
  5 28  1  0  0  0
  6  7  1  0  0  0
  6 29  1  0  0  0
  6 30  1  0  0  0
  7 31  1  0  0  0
  7 32  1  0  0  0
  8  9  1  0  0  0
  8 13  2  0  0  0
  9 10  2  0  0  0
  9 33  1  0  0  0
 10 11  1  0  0  0
 10 34  1  0  0  0
 11 12  2  0  0  0
 11 14  1  0  0  0
 12 13  1  0  0  0
 12 35  1  0  0  0
 13 36  1  0  0  0
 14 15  2  0  0  0
 14 16  2  0  0  0
 14 17  1  0  0  0
 17 37  1  0  0  0
 17 38  1  0  0  0
 17 39  1  0  0  0
 18 19  1  0  0  0
 18 23  2  0  0  0
 19 20  2  0  0  0
 19 40  1  0  0  0
 20 21  1  0  0  0
 20 41  1  0  0  0
 21 22  2  0  0  0
 21 24  1  0  0  0
 22 23  1  0  0  0
 22 42  1  0  0  0
 23 43  1  0  0  0
M  END
>  <Activity>
8.12494

>  <set>
1

>  <Min_dist>
999.9

>  <Avg_dist>
999.9

$$$$
9-24
  Cerius2 12110214513D 1   1.00000                          
 
 46 49  0  0  0  0  0  0  0  0999 V2000
    2.1599    1.2768    0.2893 C   0  0  0  0  0  0
    1.0645    2.0497    0.2623 C   0  0  0  0  0  0
    1.4462    3.5146    0.2791 C   0  0  0  0  0  0
    2.9380    3.5297   -0.0807 C   0  0  0  0  0  0
    3.4112    2.1281    0.3276 C   0  0  0  0  0  0
    3.4711    4.2423   -1.3107 C   0  0  0  0  0  0
    3.8047    4.7641    0.0911 C   0  0  0  0  0  0
   -0.3189    1.5433    0.2213 C   0  0  0  0  0  0
   -0.7998    0.7304    1.2512 C   0  0  0  0  0  0
   -2.0956    0.2602    1.2060 C   0  0  0  0  0  0
   -2.9189    0.5917    0.1443 C   0  0  0  0  0  0
   -2.4497    1.3962   -0.8791 C   0  0  0  0  0  0
   -1.1580    1.8785   -0.8447 C   0  0  0  0  0  0
   -4.5727   -0.0142    0.0951 S   0  0  0  0  0  0
   -4.9575    0.0244   -1.2723 O   0  0  0  0  0  0
   -4.5849   -1.1708    0.9206 O   0  0  0  0  0  0
   -5.5302    1.0971    0.8634 N   0  0  0  0  0  0
    2.1474   -0.1965    0.2882 C   0  0  0  0  0  0
    1.5635   -0.8920   -0.7748 C   0  0  0  0  0  0
    1.5547   -2.2706   -0.7714 C   0  0  0  0  0  0
    2.1252   -2.9685    0.2870 C   0  0  0  0  0  0
    2.7056   -2.2814    1.3447 C   0  0  0  0  0  0
    2.7242   -0.9031    1.3470 C   0  0  0  0  0  0
    2.1144   -4.3272    0.2865 O   0  0  0  0  0  0
    2.7650   -4.7459    1.4880 C   0  0  0  0  0  0
    0.8297   -3.1362   -2.0900 Cl  0  0  0  0  0  0
    0.8703    4.0660   -0.4641 H   0  0  0  0  0  0
    1.2903    3.9367    1.2719 H   0  0  0  0  0  0
    3.8282    2.1460    1.3345 H   0  0  0  0  0  0
    4.1478    1.7535   -0.3832 H   0  0  0  0  0  0
    4.2693    3.7538   -1.8696 H   0  0  0  0  0  0
    2.7623    4.8171   -1.9068 H   0  0  0  0  0  0
    3.3153    5.6820    0.4166 H   0  0  0  0  0  0
    4.8222    4.6188    0.4538 H   0  0  0  0  0  0
   -0.1583    0.4706    2.0802 H   0  0  0  0  0  0
   -2.4685   -0.3684    2.0011 H   0  0  0  0  0  0
   -3.0979    1.6508   -1.7046 H   0  0  0  0  0  0
   -0.7932    2.5066   -1.6440 H   0  0  0  0  0  0
   -6.4847    0.9433    0.9418 H   0  0  0  0  0  0
   -5.1366    1.9019    1.2352 H   0  0  0  0  0  0
    1.1198   -0.3502   -1.5970 H   0  0  0  0  0  0
    3.1473   -2.8279    2.1649 H   0  0  0  0  0  0
    3.1759   -0.3699    2.1704 H   0  0  0  0  0  0
    2.7807   -5.8349    1.5323 H   0  0  0  0  0  0
    3.7870   -4.3671    1.4987 H   0  0  0  0  0  0
    2.2236   -4.3550    2.3495 H   0  0  0  0  0  0
  1  2  2  0  0  0
  1  5  1  0  0  0
  1 18  1  0  0  0
  2  3  1  0  0  0
  2  8  1  0  0  0
  3  4  1  0  0  0
  3 27  1  0  0  0
  3 28  1  0  0  0
  4  5  1  0  0  0
  4  6  1  0  0  0
  4  7  1  0  0  0
  5 29  1  0  0  0
  5 30  1  0  0  0
  6  7  1  0  0  0
  6 31  1  0  0  0
  6 32  1  0  0  0
  7 33  1  0  0  0
  7 34  1  0  0  0
  8  9  1  0  0  0
  8 13  2  0  0  0
  9 10  2  0  0  0
  9 35  1  0  0  0
 10 11  1  0  0  0
 10 36  1  0  0  0
 11 12  2  0  0  0
 11 14  1  0  0  0
 12 13  1  0  0  0
 12 37  1  0  0  0
 13 38  1  0  0  0
 14 15  2  0  0  0
 14 16  2  0  0  0
 14 17  1  0  0  0
 17 39  1  0  0  0
 17 40  1  0  0  0
 18 19  1  0  0  0
 18 23  2  0  0  0
 19 20  2  0  0  0
 19 41  1  0  0  0
 20 21  1  0  0  0
 20 26  1  0  0  0
 21 22  2  0  0  0
 21 24  1  0  0  0
 22 23  1  0  0  0
 22 42  1  0  0  0
 23 43  1  0  0  0
 24 25  1  0  0  0
 25 44  1  0  0  0
 25 45  1  0  0  0
 25 46  1  0  0  0
M  END
>  <Activity>
8.69897

>  <set>
1

>  <Min_dist>
999.9

>  <Avg_dist>
999.9

$$$$
9-35
  Cerius2 12110214513D 1   1.00000                          
 
 46 49  0  0  0  0  0  0  0  0999 V2000
    2.4456   -0.2618   -0.1894 C   0  0  0  0  0  0
    1.5188   -1.2283   -0.2497 C   0  0  0  0  0  0
    2.1733   -2.5849   -0.4023 C   0  0  0  0  0  0
    3.6429   -2.3494   -0.0280 C   0  0  0  0  0  0
    3.8364   -0.8505   -0.2942 C   0  0  0  0  0  0
    4.3107   -3.0623    1.1343 C   0  0  0  0  0  0
    4.7285   -3.3731   -0.3070 C   0  0  0  0  0  0
    0.0642   -1.0019   -0.1766 C   0  0  0  0  0  0
   -0.5702   -0.2002   -1.1292 C   0  0  0  0  0  0
   -1.9318    0.0068   -1.0547 C   0  0  0  0  0  0
   -2.6693   -0.5767   -0.0396 C   0  0  0  0  0  0
   -2.0478   -1.3715    0.9075 C   0  0  0  0  0  0
   -0.6880   -1.5925    0.8422 C   0  0  0  0  0  0
   -4.4082   -0.3060    0.0477 S   0  0  0  0  0  0
   -4.6850   -0.4800    1.4306 O   0  0  0  0  0  0
   -4.5648    0.9481   -0.6018 O   0  0  0  0  0  0
   -5.0880   -1.6629   -0.9459 C   0  0  0  0  0  0
    2.1513    1.1754   -0.0472 C   0  0  0  0  0  0
    1.4526    1.6419    1.0694 C   0  0  0  0  0  0
    1.1812    2.9882    1.1959 C   0  0  0  0  0  0
    1.5989    3.8763    0.2204 C   0  0  0  0  0  0
    2.2909    3.4216   -0.8884 C   0  0  0  0  0  0
    2.5746    2.0789   -1.0256 C   0  0  0  0  0  0
    1.2984    5.3458    0.3660 C   0  0  0  0  0  0
    1.7185   -3.3051    0.2777 H   0  0  0  0  0  0
    2.0943   -2.9313   -1.4328 H   0  0  0  0  0  0
    4.2424   -0.6911   -1.2931 H   0  0  0  0  0  0
    4.4924   -0.4124    0.4581 H   0  0  0  0  0  0
    5.0045   -2.4866    1.7470 H   0  0  0  0  0  0
    3.7290   -3.8167    1.6640 H   0  0  0  0  0  0
    4.4215   -4.3318   -0.7250 H   0  0  0  0  0  0
    5.6970   -3.0017   -0.6420 H   0  0  0  0  0  0
    0.0042    0.2564   -1.9216 H   0  0  0  0  0  0
   -2.4235    0.6262   -1.7902 H   0  0  0  0  0  0
   -2.6296   -1.8231    1.6974 H   0  0  0  0  0  0
   -0.2042   -2.2130    1.5821 H   0  0  0  0  0  0
   -6.1757   -1.5927   -0.9609 H   0  0  0  0  0  0
   -4.7055   -1.5946   -1.9643 H   0  0  0  0  0  0
   -4.7915   -2.6167   -0.5096 H   0  0  0  0  0  0
    1.1256    0.9498    1.8313 H   0  0  0  0  0  0
    0.6410    3.3501    2.0582 H   0  0  0  0  0  0
    2.6136    4.1205   -1.6459 H   0  0  0  0  0  0
    3.1150    1.7255   -1.8913 H   0  0  0  0  0  0
    2.1138    5.8321    0.9015 H   0  0  0  0  0  0
    1.1936    5.7949   -0.6217 H   0  0  0  0  0  0
    0.3705    5.4734    0.9235 H   0  0  0  0  0  0
  1  2  2  0  0  0
  1  5  1  0  0  0
  1 18  1  0  0  0
  2  3  1  0  0  0
  2  8  1  0  0  0
  3  4  1  0  0  0
  3 25  1  0  0  0
  3 26  1  0  0  0
  4  5  1  0  0  0
  4  6  1  0  0  0
  4  7  1  0  0  0
  5 27  1  0  0  0
  5 28  1  0  0  0
  6  7  1  0  0  0
  6 29  1  0  0  0
  6 30  1  0  0  0
  7 31  1  0  0  0
  7 32  1  0  0  0
  8  9  1  0  0  0
  8 13  2  0  0  0
  9 10  2  0  0  0
  9 33  1  0  0  0
 10 11  1  0  0  0
 10 34  1  0  0  0
 11 12  2  0  0  0
 11 14  1  0  0  0
 12 13  1  0  0  0
 12 35  1  0  0  0
 13 36  1  0  0  0
 14 15  2  0  0  0
 14 16  2  0  0  0
 14 17  1  0  0  0
 17 37  1  0  0  0
 17 38  1  0  0  0
 17 39  1  0  0  0
 18 19  1  0  0  0
 18 23  2  0  0  0
 19 20  2  0  0  0
 19 40  1  0  0  0
 20 21  1  0  0  0
 20 41  1  0  0  0
 21 22  2  0  0  0
 21 24  1  0  0  0
 22 23  1  0  0  0
 22 42  1  0  0  0
 23 43  1  0  0  0
 24 44  1  0  0  0
 24 45  1  0  0  0
 24 46  1  0  0  0
M  END
>  <Activity>
8.82391

>  <set>
1

>  <Min_dist>
999.9

>  <Avg_dist>
999.9

$$$$
9-36
  Cerius2 12110214513D 1   1.00000                          
 
 47 50  0  0  0  0  0  0  0  0999 V2000
    2.2751    0.8094    0.1601 C   0  0  0  0  0  0
    1.2321    1.6459    0.2616 C   0  0  0  0  0  0
    1.7085    3.0688    0.4622 C   0  0  0  0  0  0
    3.1923    3.0385    0.0717 C   0  0  0  0  0  0
    3.5796    1.5682    0.2801 C   0  0  0  0  0  0
    3.7514    3.8737   -1.0662 C   0  0  0  0  0  0
    4.1401    4.1825    0.3837 C   0  0  0  0  0  0
   -0.1819    1.2369    0.1877 C   0  0  0  0  0  0
   -0.6986    0.3258    1.1127 C   0  0  0  0  0  0
   -2.0229   -0.0519    1.0375 C   0  0  0  0  0  0
   -2.8395    0.4690    0.0492 C   0  0  0  0  0  0
   -2.3349    1.3717   -0.8702 C   0  0  0  0  0  0
   -1.0139    1.7628   -0.8043 C   0  0  0  0  0  0
   -4.5300   -0.0199   -0.0392 S   0  0  0  0  0  0
   -4.8408    0.1681   -1.4129 O   0  0  0  0  0  0
   -4.5176   -1.3070    0.5630 O   0  0  0  0  0  0
   -5.3685    1.2003    1.0089 C   0  0  0  0  0  0
    2.1666   -0.6470   -0.0348 C   0  0  0  0  0  0
    1.5223   -1.1570   -1.1656 C   0  0  0  0  0  0
    1.4233   -2.5198   -1.3435 C   0  0  0  0  0  0
    1.9625   -3.3864   -0.4014 C   0  0  0  0  0  0
    2.6037   -2.8844    0.7239 C   0  0  0  0  0  0
    2.7127   -1.5231    0.9076 C   0  0  0  0  0  0
    1.8620   -4.7293   -0.5809 O   0  0  0  0  0  0
    2.5022   -5.3447    0.5387 C   0  0  0  0  0  0
    1.1582    3.7491   -0.1877 H   0  0  0  0  0  0
    1.5959    3.3639    1.5054 H   0  0  0  0  0  0
    4.0125    1.4258    1.2703 H   0  0  0  0  0  0
    4.2790    1.2463   -0.4914 H   0  0  0  0  0  0
    4.5073    3.4151   -1.7037 H   0  0  0  0  0  0
    3.0723    4.5659   -1.5641 H   0  0  0  0  0  0
    3.7166    5.0777    0.8391 H   0  0  0  0  0  0
    5.1516    3.9269    0.6995 H   0  0  0  0  0  0
   -0.0623   -0.0819    1.8843 H   0  0  0  0  0  0
   -2.4235   -0.7563    1.7515 H   0  0  0  0  0  0
   -2.9781    1.7741   -1.6388 H   0  0  0  0  0  0
   -0.6215    2.4676   -1.5224 H   0  0  0  0  0  0
   -6.4378    0.9901    1.0270 H   0  0  0  0  0  0
   -4.9700    1.1441    2.0219 H   0  0  0  0  0  0
   -5.2014    2.1999    0.6077 H   0  0  0  0  0  0
    1.1025   -0.4839   -1.8985 H   0  0  0  0  0  0
    0.9253   -2.9147   -2.2167 H   0  0  0  0  0  0
    3.0210   -3.5621    1.4539 H   0  0  0  0  0  0
    3.2114   -1.1337    1.7828 H   0  0  0  0  0  0
    2.4466   -6.4286    0.4385 H   0  0  0  0  0  0
    3.5470   -5.0362    0.5746 H   0  0  0  0  0  0
    2.0012   -5.0385    1.4571 H   0  0  0  0  0  0
  1  2  2  0  0  0
  1  5  1  0  0  0
  1 18  1  0  0  0
  2  3  1  0  0  0
  2  8  1  0  0  0
  3  4  1  0  0  0
  3 26  1  0  0  0
  3 27  1  0  0  0
  4  5  1  0  0  0
  4  6  1  0  0  0
  4  7  1  0  0  0
  5 28  1  0  0  0
  5 29  1  0  0  0
  6  7  1  0  0  0
  6 30  1  0  0  0
  6 31  1  0  0  0
  7 32  1  0  0  0
  7 33  1  0  0  0
  8  9  1  0  0  0
  8 13  2  0  0  0
  9 10  2  0  0  0
  9 34  1  0  0  0
 10 11  1  0  0  0
 10 35  1  0  0  0
 11 12  2  0  0  0
 11 14  1  0  0  0
 12 13  1  0  0  0
 12 36  1  0  0  0
 13 37  1  0  0  0
 14 15  2  0  0  0
 14 16  2  0  0  0
 14 17  1  0  0  0
 17 38  1  0  0  0
 17 39  1  0  0  0
 17 40  1  0  0  0
 18 19  1  0  0  0
 18 23  2  0  0  0
 19 20  2  0  0  0
 19 41  1  0  0  0
 20 21  1  0  0  0
 20 42  1  0  0  0
 21 22  2  0  0  0
 21 24  1  0  0  0
 22 23  1  0  0  0
 22 43  1  0  0  0
 23 44  1  0  0  0
 24 25  1  0  0  0
 25 45  1  0  0  0
 25 46  1  0  0  0
 25 47  1  0  0  0
M  END
>  <Activity>
8.30103

>  <set>
1

>  <Min_dist>
999.9

>  <Avg_dist>
999.9

$$$$
9-37
  Cerius2 12110214513D 1   1.00000                          
 
 46 49  0  0  0  0  0  0  0  0999 V2000
    2.3010    0.8051    0.1617 C   0  0  0  0  0  0
    1.2594    1.6432    0.2650 C   0  0  0  0  0  0
    1.7383    3.0647    0.4696 C   0  0  0  0  0  0
    3.2222    3.0328    0.0797 C   0  0  0  0  0  0
    3.6068    1.5612    0.2843 C   0  0  0  0  0  0
    3.7834    3.8701   -1.0557 C   0  0  0  0  0  0
    4.1720    4.1742    0.3952 C   0  0  0  0  0  0
   -0.1553    1.2369    0.1893 C   0  0  0  0  0  0
   -0.6740    0.3242    1.1116 C   0  0  0  0  0  0
   -1.9989   -0.0509    1.0348 C   0  0  0  0  0  0
   -2.8141    0.4742    0.0476 C   0  0  0  0  0  0
   -2.3075    1.3785   -0.8692 C   0  0  0  0  0  0
   -0.9859    1.7670   -0.8016 C   0  0  0  0  0  0
   -4.5055   -0.0115   -0.0429 S   0  0  0  0  0  0
   -4.9074    0.2374   -1.3830 O   0  0  0  0  0  0
   -4.5828   -1.2663    0.6194 O   0  0  0  0  0  0
   -5.3744    1.0445    0.8910 N   0  0  0  0  0  0
    2.1900   -0.6506   -0.0372 C   0  0  0  0  0  0
    1.5453   -1.1563   -1.1697 C   0  0  0  0  0  0
    1.4439   -2.5185   -1.3514 C   0  0  0  0  0  0
    1.9811   -3.3886   -0.4114 C   0  0  0  0  0  0
    2.6227   -2.8908    0.7156 C   0  0  0  0  0  0
    2.7341   -1.5302    0.9030 C   0  0  0  0  0  0
    1.8783   -4.7308   -0.5945 O   0  0  0  0  0  0
    2.5168   -5.3504    0.5237 C   0  0  0  0  0  0
    1.1895    3.7478   -0.1787 H   0  0  0  0  0  0
    1.6258    3.3572    1.5136 H   0  0  0  0  0  0
    4.0390    1.4154    1.2743 H   0  0  0  0  0  0
    4.3060    1.2401   -0.4878 H   0  0  0  0  0  0
    4.5387    3.4118   -1.6941 H   0  0  0  0  0  0
    3.1058    4.5648   -1.5520 H   0  0  0  0  0  0
    3.7499    5.0689    0.8529 H   0  0  0  0  0  0
    5.1828    3.9159    0.7108 H   0  0  0  0  0  0
   -0.0388   -0.0866    1.8824 H   0  0  0  0  0  0
   -2.4011   -0.7564    1.7467 H   0  0  0  0  0  0
   -2.9496    1.7842   -1.6370 H   0  0  0  0  0  0
   -0.5919    2.4731   -1.5176 H   0  0  0  0  0  0
   -6.3358    0.9433    0.9709 H   0  0  0  0  0  0
   -4.9220    1.7642    1.3581 H   0  0  0  0  0  0
    1.1270   -0.4805   -1.9010 H   0  0  0  0  0  0
    0.9456   -2.9101   -2.2259 H   0  0  0  0  0  0
    3.0385   -3.5712    1.4439 H   0  0  0  0  0  0
    3.2331   -1.1441    1.7796 H   0  0  0  0  0  0
    2.4593   -6.4339    0.4205 H   0  0  0  0  0  0
    3.5622   -5.0439    0.5609 H   0  0  0  0  0  0
    2.0160   -5.0458    1.4427 H   0  0  0  0  0  0
  1  2  2  0  0  0
  1  5  1  0  0  0
  1 18  1  0  0  0
  2  3  1  0  0  0
  2  8  1  0  0  0
  3  4  1  0  0  0
  3 26  1  0  0  0
  3 27  1  0  0  0
  4  5  1  0  0  0
  4  6  1  0  0  0
  4  7  1  0  0  0
  5 28  1  0  0  0
  5 29  1  0  0  0
  6  7  1  0  0  0
  6 30  1  0  0  0
  6 31  1  0  0  0
  7 32  1  0  0  0
  7 33  1  0  0  0
  8  9  1  0  0  0
  8 13  2  0  0  0
  9 10  2  0  0  0
  9 34  1  0  0  0
 10 11  1  0  0  0
 10 35  1  0  0  0
 11 12  2  0  0  0
 11 14  1  0  0  0
 12 13  1  0  0  0
 12 36  1  0  0  0
 13 37  1  0  0  0
 14 15  2  0  0  0
 14 16  2  0  0  0
 14 17  1  0  0  0
 17 38  1  0  0  0
 17 39  1  0  0  0
 18 19  1  0  0  0
 18 23  2  0  0  0
 19 20  2  0  0  0
 19 40  1  0  0  0
 20 21  1  0  0  0
 20 41  1  0  0  0
 21 22  2  0  0  0
 21 24  1  0  0  0
 22 23  1  0  0  0
 22 42  1  0  0  0
 23 43  1  0  0  0
 24 25  1  0  0  0
 25 44  1  0  0  0
 25 45  1  0  0  0
 25 46  1  0  0  0
M  END
>  <Activity>
9

>  <set>
1

>  <Min_dist>
999.9

>  <Avg_dist>
999.9

$$$$
9-38
  Cerius2 12110214513D 1   1.00000                          
 
 47 50  0  0  0  0  0  0  0  0999 V2000
    0.4398    2.4185    0.1071 C   0  0  0  0  0  0
   -0.8891    2.3613    0.2770 C   0  0  0  0  0  0
   -1.4494    3.7391    0.5591 C   0  0  0  0  0  0
   -0.3303    4.7040    0.1445 C   0  0  0  0  0  0
    0.9344    3.8417    0.2543 C   0  0  0  0  0  0
   -0.5146    5.7428   -0.9473 C   0  0  0  0  0  0
   -0.3466    6.1766    0.5130 C   0  0  0  0  0  0
   -1.6927    1.1283    0.1994 C   0  0  0  0  0  0
   -1.4379    0.0681    1.0733 C   0  0  0  0  0  0
   -2.1944   -1.0825    0.9951 C   0  0  0  0  0  0
   -3.2036   -1.1885    0.0542 C   0  0  0  0  0  0
   -3.4616   -0.1427   -0.8145 C   0  0  0  0  0  0
   -2.7169    1.0161   -0.7446 C   0  0  0  0  0  0
   -4.1643   -2.6626   -0.0385 S   0  0  0  0  0  0
   -4.5945   -2.6736   -1.3928 O   0  0  0  0  0  0
   -3.2815   -3.6472    0.4814 O   0  0  0  0  0  0
   -5.5397   -2.3315    1.0969 C   0  0  0  0  0  0
    1.3000    1.2566   -0.1771 C   0  0  0  0  0  0
    1.0874    0.4916   -1.3276 C   0  0  0  0  0  0
    1.8945   -0.5942   -1.5891 C   0  0  0  0  0  0
    2.9179   -0.9291   -0.7117 C   0  0  0  0  0  0
    3.1330   -0.1720    0.4328 C   0  0  0  0  0  0
    2.3348    0.9191    0.6999 C   0  0  0  0  0  0
    3.7107   -2.0007   -0.9735 O   0  0  0  0  0  0
    4.6554   -2.0865    0.0953 C   0  0  0  0  0  0
    5.5045   -3.1775   -0.1193 F   0  0  0  0  0  0
    5.4111   -0.9103    0.1453 F   0  0  0  0  0  0
    3.9755   -2.2559    1.3062 F   0  0  0  0  0  0
   -2.3439    3.9153   -0.0383 H   0  0  0  0  0  0
   -1.6722    3.8489    1.6204 H   0  0  0  0  0  0
    1.4066    3.9814    1.2267 H   0  0  0  0  0  0
    1.6321    4.0865   -0.5467 H   0  0  0  0  0  0
    0.3221    5.9165   -1.6239 H   0  0  0  0  0  0
   -1.5060    5.8378   -1.3902 H   0  0  0  0  0  0
   -1.2275    6.5568    1.0301 H   0  0  0  0  0  0
    0.6006    6.6355    0.7964 H   0  0  0  0  0  0
   -0.6504    0.1493    1.8079 H   0  0  0  0  0  0
   -1.9985   -1.9029    1.6696 H   0  0  0  0  0  0
   -4.2508   -0.2325   -1.5463 H   0  0  0  0  0  0
   -2.9196    1.8316   -1.4230 H   0  0  0  0  0  0
   -6.2084   -3.1921    1.1183 H   0  0  0  0  0  0
   -5.1488   -2.1502    2.0981 H   0  0  0  0  0  0
   -6.0885   -1.4533    0.7566 H   0  0  0  0  0  0
    0.2917    0.7510   -2.0102 H   0  0  0  0  0  0
    1.7308   -1.1861   -2.4776 H   0  0  0  0  0  0
    3.9297   -0.4363    1.1123 H   0  0  0  0  0  0
    2.5028    1.5072    1.5900 H   0  0  0  0  0  0
  1  2  2  0  0  0
  1  5  1  0  0  0
  1 18  1  0  0  0
  2  3  1  0  0  0
  2  8  1  0  0  0
  3  4  1  0  0  0
  3 29  1  0  0  0
  3 30  1  0  0  0
  4  5  1  0  0  0
  4  6  1  0  0  0
  4  7  1  0  0  0
  5 31  1  0  0  0
  5 32  1  0  0  0
  6  7  1  0  0  0
  6 33  1  0  0  0
  6 34  1  0  0  0
  7 35  1  0  0  0
  7 36  1  0  0  0
  8  9  1  0  0  0
  8 13  2  0  0  0
  9 10  2  0  0  0
  9 37  1  0  0  0
 10 11  1  0  0  0
 10 38  1  0  0  0
 11 12  2  0  0  0
 11 14  1  0  0  0
 12 13  1  0  0  0
 12 39  1  0  0  0
 13 40  1  0  0  0
 14 15  2  0  0  0
 14 16  2  0  0  0
 14 17  1  0  0  0
 17 41  1  0  0  0
 17 42  1  0  0  0
 17 43  1  0  0  0
 18 19  1  0  0  0
 18 23  2  0  0  0
 19 20  2  0  0  0
 19 44  1  0  0  0
 20 21  1  0  0  0
 20 45  1  0  0  0
 21 22  2  0  0  0
 21 24  1  0  0  0
 22 23  1  0  0  0
 22 46  1  0  0  0
 23 47  1  0  0  0
 24 25  1  0  0  0
 25 26  1  0  0  0
 25 27  1  0  0  0
 25 28  1  0  0  0
M  END
>  <Activity>
6.86967

>  <set>
1

>  <Min_dist>
999.9

>  <Avg_dist>
999.9

$$$$
9-39
  Cerius2 12110214513D 1   1.00000                          
 
 46 49  0  0  0  0  0  0  0  0999 V2000
    0.5174    2.4197    0.1096 C   0  0  0  0  0  0
   -0.8124    2.3950    0.2800 C   0  0  0  0  0  0
   -1.3385    3.7857    0.5647 C   0  0  0  0  0  0
   -0.1960    4.7234    0.1514 C   0  0  0  0  0  0
    1.0471    3.8300    0.2591 C   0  0  0  0  0  0
   -0.3550    5.7685   -0.9384 C   0  0  0  0  0  0
   -0.1758    6.1953    0.5225 C   0  0  0  0  0  0
   -1.6462    1.1824    0.2005 C   0  0  0  0  0  0
   -1.4175    0.1146    1.0724 C   0  0  0  0  0  0
   -2.2021   -1.0168    0.9925 C   0  0  0  0  0  0
   -3.2139   -1.0962    0.0518 C   0  0  0  0  0  0
   -3.4463   -0.0428   -0.8150 C   0  0  0  0  0  0
   -2.6732    1.0971   -0.7433 C   0  0  0  0  0  0
   -4.2108   -2.5459   -0.0432 S   0  0  0  0  0  0
   -4.7468   -2.5604   -1.3592 O   0  0  0  0  0  0
   -3.4378   -3.5850    0.5416 O   0  0  0  0  0  0
   -5.5042   -2.3244    0.9670 N   0  0  0  0  0  0
    1.3485    1.2374   -0.1770 C   0  0  0  0  0  0
    1.1168    0.4799   -1.3288 C   0  0  0  0  0  0
    1.8967   -0.6250   -1.5925 C   0  0  0  0  0  0
    2.9118   -0.9866   -0.7161 C   0  0  0  0  0  0
    3.1459   -0.2370    0.4297 C   0  0  0  0  0  0
    2.3750    0.8729    0.6990 C   0  0  0  0  0  0
    3.6778   -2.0770   -0.9801 O   0  0  0  0  0  0
    4.6205   -2.1880    0.0881 C   0  0  0  0  0  0
    5.4423   -3.2992   -0.1288 F   0  0  0  0  0  0
    5.4050   -1.0308    0.1399 F   0  0  0  0  0  0
    3.9370   -2.3427    1.2990 F   0  0  0  0  0  0
   -2.2286    3.9850   -0.0320 H   0  0  0  0  0  0
   -1.5581    3.8991    1.6263 H   0  0  0  0  0  0
    1.5229    3.9563    1.2317 H   0  0  0  0  0  0
    1.7503    4.0589   -0.5416 H   0  0  0  0  0  0
    0.4855    5.9226   -1.6151 H   0  0  0  0  0  0
   -1.3440    5.8887   -1.3807 H   0  0  0  0  0  0
   -1.0469    6.5962    1.0407 H   0  0  0  0  0  0
    0.7825    6.6302    0.8064 H   0  0  0  0  0  0
   -0.6279    0.1751    1.8069 H   0  0  0  0  0  0
   -2.0263   -1.8430    1.6655 H   0  0  0  0  0  0
   -4.2378   -0.1118   -1.5466 H   0  0  0  0  0  0
   -2.8560    1.9186   -1.4202 H   0  0  0  0  0  0
   -6.1755   -3.0190    1.0548 H   0  0  0  0  0  0
   -5.5905   -1.5000    1.4708 H   0  0  0  0  0  0
    0.3275    0.7601   -2.0106 H   0  0  0  0  0  0
    1.7181   -1.2110   -2.4820 H   0  0  0  0  0  0
    3.9361   -0.5222    1.1084 H   0  0  0  0  0  0
    2.5578    1.4551    1.5901 H   0  0  0  0  0  0
  1  2  2  0  0  0
  1  5  1  0  0  0
  1 18  1  0  0  0
  2  3  1  0  0  0
  2  8  1  0  0  0
  3  4  1  0  0  0
  3 29  1  0  0  0
  3 30  1  0  0  0
  4  5  1  0  0  0
  4  6  1  0  0  0
  4  7  1  0  0  0
  5 31  1  0  0  0
  5 32  1  0  0  0
  6  7  1  0  0  0
  6 33  1  0  0  0
  6 34  1  0  0  0
  7 35  1  0  0  0
  7 36  1  0  0  0
  8  9  1  0  0  0
  8 13  2  0  0  0
  9 10  2  0  0  0
  9 37  1  0  0  0
 10 11  1  0  0  0
 10 38  1  0  0  0
 11 12  2  0  0  0
 11 14  1  0  0  0
 12 13  1  0  0  0
 12 39  1  0  0  0
 13 40  1  0  0  0
 14 15  2  0  0  0
 14 16  2  0  0  0
 14 17  1  0  0  0
 17 41  1  0  0  0
 17 42  1  0  0  0
 18 19  1  0  0  0
 18 23  2  0  0  0
 19 20  2  0  0  0
 19 43  1  0  0  0
 20 21  1  0  0  0
 20 44  1  0  0  0
 21 22  2  0  0  0
 21 24  1  0  0  0
 22 23  1  0  0  0
 22 45  1  0  0  0
 23 46  1  0  0  0
 24 25  1  0  0  0
 25 26  1  0  0  0
 25 27  1  0  0  0
 25 28  1  0  0  0
M  END
>  <Activity>
6.88606

>  <set>
1

>  <Min_dist>
999.9

>  <Avg_dist>
999.9

$$$$
9-41
  Cerius2 12110214513D 1   1.00000                          
 
 45 48  0  0  0  0  0  0  0  0999 V2000
    1.3494    2.1464    0.2185 C   0  0  0  0  0  0
    0.0446    2.4528    0.2415 C   0  0  0  0  0  0
   -0.1489    3.9504    0.3505 C   0  0  0  0  0  0
    1.2198    4.5442   -0.0090 C   0  0  0  0  0  0
    2.1924    3.4006    0.3092 C   0  0  0  0  0  0
    1.4175    5.4751   -1.1920 C   0  0  0  0  0  0
    1.5663    6.0011    0.2397 C   0  0  0  0  0  0
   -1.0500    1.4683    0.1697 C   0  0  0  0  0  0
   -1.1667    0.4757    1.1463 C   0  0  0  0  0  0
   -2.1937   -0.4418    1.0729 C   0  0  0  0  0  0
   -3.1071   -0.3814    0.0351 C   0  0  0  0  0  0
   -2.9976    0.5984   -0.9359 C   0  0  0  0  0  0
   -1.9794    1.5265   -0.8721 C   0  0  0  0  0  0
   -4.4156   -1.5583   -0.0507 S   0  0  0  0  0  0
   -4.8205   -1.5870   -1.4125 O   0  0  0  0  0  0
   -3.9746   -2.6813    0.7001 O   0  0  0  0  0  0
   -5.6997   -0.9330    0.7874 N   0  0  0  0  0  0
    1.8885    0.7779    0.1243 C   0  0  0  0  0  0
    1.5817   -0.0231   -0.9788 C   0  0  0  0  0  0
    2.0902   -1.3026   -1.0604 C   0  0  0  0  0  0
    2.9023   -1.7935   -0.0532 C   0  0  0  0  0  0
    3.2100   -1.0062    1.0424 C   0  0  0  0  0  0
    2.7135    0.2772    1.1349 C   0  0  0  0  0  0
    3.4539   -3.1926   -0.1497 C   0  0  0  0  0  0
    4.2400   -3.4626    0.9756 F   0  0  0  0  0  0
    2.3972   -4.1073   -0.2108 F   0  0  0  0  0  0
    4.2367   -3.3066   -1.3036 F   0  0  0  0  0  0
   -0.9072    4.2881   -0.3558 H   0  0  0  0  0  0
   -0.4268    4.2247    1.3682 H   0  0  0  0  0  0
    2.5972    3.5146    1.3148 H   0  0  0  0  0  0
    2.9978    3.3712   -0.4247 H   0  0  0  0  0  0
    2.3264    5.3546   -1.7815 H   0  0  0  0  0  0
    0.5308    5.7763   -1.7498 H   0  0  0  0  0  0
    0.7774    6.6481    0.6232 H   0  0  0  0  0  0
    2.5730    6.2265    0.5916 H   0  0  0  0  0  0
   -0.4541    0.4270    1.9564 H   0  0  0  0  0  0
   -2.2852   -1.2095    1.8270 H   0  0  0  0  0  0
   -3.7137    0.6390   -1.7433 H   0  0  0  0  0  0
   -1.8952    2.2907   -1.6306 H   0  0  0  0  0  0
   -6.5254   -1.4372    0.8568 H   0  0  0  0  0  0
   -5.6261   -0.0624    1.2089 H   0  0  0  0  0  0
    0.9478    0.3586   -1.7655 H   0  0  0  0  0  0
    1.8537   -1.9230   -1.9122 H   0  0  0  0  0  0
    3.8441   -1.3961    1.8249 H   0  0  0  0  0  0
    2.9547    0.8907    1.9904 H   0  0  0  0  0  0
  1  2  2  0  0  0
  1  5  1  0  0  0
  1 18  1  0  0  0
  2  3  1  0  0  0
  2  8  1  0  0  0
  3  4  1  0  0  0
  3 28  1  0  0  0
  3 29  1  0  0  0
  4  5  1  0  0  0
  4  6  1  0  0  0
  4  7  1  0  0  0
  5 30  1  0  0  0
  5 31  1  0  0  0
  6  7  1  0  0  0
  6 32  1  0  0  0
  6 33  1  0  0  0
  7 34  1  0  0  0
  7 35  1  0  0  0
  8  9  1  0  0  0
  8 13  2  0  0  0
  9 10  2  0  0  0
  9 36  1  0  0  0
 10 11  1  0  0  0
 10 37  1  0  0  0
 11 12  2  0  0  0
 11 14  1  0  0  0
 12 13  1  0  0  0
 12 38  1  0  0  0
 13 39  1  0  0  0
 14 15  2  0  0  0
 14 16  2  0  0  0
 14 17  1  0  0  0
 17 40  1  0  0  0
 17 41  1  0  0  0
 18 19  1  0  0  0
 18 23  2  0  0  0
 19 20  2  0  0  0
 19 42  1  0  0  0
 20 21  1  0  0  0
 20 43  1  0  0  0
 21 22  2  0  0  0
 21 24  1  0  0  0
 22 23  1  0  0  0
 22 44  1  0  0  0
 23 45  1  0  0  0
 24 25  1  0  0  0
 24 26  1  0  0  0
 24 27  1  0  0  0
M  END
>  <Activity>
9

>  <set>
1

>  <Min_dist>
999.9

>  <Avg_dist>
999.9

$$$$
9-46
  Cerius2 12110214513D 1   1.00000                          
 
 46 50  0  0  0  0  0  0  0  0999 V2000
    2.3316    0.8301    0.3011 C   0  0  0  0  0  0
    1.3363    1.7247    0.2161 C   0  0  0  0  0  0
    1.8886    3.1339    0.1844 C   0  0  0  0  0  0
    3.3786    2.9582   -0.1384 C   0  0  0  0  0  0
    3.6740    1.5292    0.3368 C   0  0  0  0  0  0
    4.0170    3.5505   -1.3821 C   0  0  0  0  0  0
    4.3819    4.0883    0.0058 C   0  0  0  0  0  0
   -0.0963    1.3833    0.1605 C   0  0  0  0  0  0
   -0.6909    0.6767    1.2093 C   0  0  0  0  0  0
   -2.0321    0.3607    1.1502 C   0  0  0  0  0  0
   -2.7886    0.7417    0.0559 C   0  0  0  0  0  0
   -2.2066    1.4412   -0.9866 C   0  0  0  0  0  0
   -0.8679    1.7696   -0.9386 C   0  0  0  0  0  0
   -4.5014    0.3335   -0.0106 S   0  0  0  0  0  0
   -4.7616    0.2931   -1.4070 O   0  0  0  0  0  0
   -4.5808   -0.8266    0.8062 O   0  0  0  0  0  0
   -5.2973    1.7609    0.7765 C   0  0  0  0  0  0
    2.1445   -0.6302    0.3582 C   0  0  0  0  0  0
    1.5038   -1.2964   -0.6906 C   0  0  0  0  0  0
    1.3305   -2.6660   -0.6327 C   0  0  0  0  0  0
    1.7946   -3.3816    0.4713 C   0  0  0  0  0  0
    2.4298   -2.7199    1.5121 C   0  0  0  0  0  0
    2.6120   -1.3541    1.4581 C   0  0  0  0  0  0
    1.5034   -4.7025    0.2870 O   0  0  0  0  0  0
    1.2259   -4.8429   -1.1187 C   0  0  0  0  0  0
    0.7501   -3.5404   -1.5060 O   0  0  0  0  0  0
    1.3971    3.7173   -0.5942 H   0  0  0  0  0  0
    1.7639    3.6130    1.1555 H   0  0  0  0  0  0
    4.0698    1.5405    1.3523 H   0  0  0  0  0  0
    4.3751    1.0408   -0.3400 H   0  0  0  0  0  0
    4.7627    2.9483   -1.9011 H   0  0  0  0  0  0
    3.3935    4.1789   -2.0180 H   0  0  0  0  0  0
    3.9983    5.0703    0.2824 H   0  0  0  0  0  0
    5.3675    3.8397    0.3993 H   0  0  0  0  0  0
   -0.1016    0.3784    2.0638 H   0  0  0  0  0  0
   -2.4930   -0.1856    1.9598 H   0  0  0  0  0  0
   -2.8032    1.7349   -1.8376 H   0  0  0  0  0  0
   -0.4151    2.3159   -1.7528 H   0  0  0  0  0  0
   -6.3772    1.6131    0.7900 H   0  0  0  0  0  0
   -4.9318    1.8630    1.7983 H   0  0  0  0  0  0
   -5.0612    2.6644    0.2143 H   0  0  0  0  0  0
    1.1445   -0.7414   -1.5445 H   0  0  0  0  0  0
    2.7875   -3.2772    2.3652 H   0  0  0  0  0  0
    3.1074   -0.8427    2.2702 H   0  0  0  0  0  0
    2.1345   -5.0966   -1.6649 H   0  0  0  0  0  0
    0.4559   -5.5965   -1.2836 H   0  0  0  0  0  0
  1  2  2  0  0  0
  1  5  1  0  0  0
  1 18  1  0  0  0
  2  3  1  0  0  0
  2  8  1  0  0  0
  3  4  1  0  0  0
  3 27  1  0  0  0
  3 28  1  0  0  0
  4  5  1  0  0  0
  4  6  1  0  0  0
  4  7  1  0  0  0
  5 29  1  0  0  0
  5 30  1  0  0  0
  6  7  1  0  0  0
  6 31  1  0  0  0
  6 32  1  0  0  0
  7 33  1  0  0  0
  7 34  1  0  0  0
  8  9  1  0  0  0
  8 13  2  0  0  0
  9 10  2  0  0  0
  9 35  1  0  0  0
 10 11  1  0  0  0
 10 36  1  0  0  0
 11 12  2  0  0  0
 11 14  1  0  0  0
 12 13  1  0  0  0
 12 37  1  0  0  0
 13 38  1  0  0  0
 14 15  2  0  0  0
 14 16  2  0  0  0
 14 17  1  0  0  0
 17 39  1  0  0  0
 17 40  1  0  0  0
 17 41  1  0  0  0
 18 19  1  0  0  0
 18 23  2  0  0  0
 19 20  2  0  0  0
 19 42  1  0  0  0
 20 21  1  0  0  0
 20 26  1  0  0  0
 21 22  2  0  0  0
 21 24  1  0  0  0
 22 23  1  0  0  0
 22 43  1  0  0  0
 23 44  1  0  0  0
 24 25  1  0  0  0
 25 26  1  0  0  0
 25 45  1  0  0  0
 25 46  1  0  0  0
M  END
>  <Activity>
8.60206

>  <set>
1

>  <Min_dist>
999.9

>  <Avg_dist>
999.9

$$$$
9-47
  Cerius2 12110214513D 1   1.00000                          
 
 43 46  0  0  0  0  0  0  0  0999 V2000
    2.3813    0.5986    0.2769 C   0  0  0  0  0  0
    1.4177    1.5303    0.2509 C   0  0  0  0  0  0
    2.0188    2.9191    0.2923 C   0  0  0  0  0  0
    3.4993    2.7102   -0.0533 C   0  0  0  0  0  0
    3.7477    1.2475    0.3390 C   0  0  0  0  0  0
    4.1492    3.3485   -1.2680 C   0  0  0  0  0  0
    4.5427    3.7949    0.1443 C   0  0  0  0  0  0
   -0.0265    1.2424    0.1898 C   0  0  0  0  0  0
   -0.6377    0.4996    1.2034 C   0  0  0  0  0  0
   -1.9896    0.2341    1.1395 C   0  0  0  0  0  0
   -2.7404    0.7013    0.0751 C   0  0  0  0  0  0
   -2.1419    1.4371   -0.9325 C   0  0  0  0  0  0
   -0.7922    1.7157   -0.8789 C   0  0  0  0  0  0
   -4.4669    0.3570    0.0021 S   0  0  0  0  0  0
   -4.7387    0.4033   -1.3919 O   0  0  0  0  0  0
   -4.5809   -0.8432    0.7542 O   0  0  0  0  0  0
   -5.2063    1.7652    0.8744 C   0  0  0  0  0  0
    2.1433   -0.8556    0.2545 C   0  0  0  0  0  0
    1.4722   -1.4401   -0.8232 C   0  0  0  0  0  0
    1.2528   -2.8029   -0.8382 C   0  0  0  0  0  0
    1.6977   -3.5912    0.2145 C   0  0  0  0  0  0
    2.3633   -3.0159    1.2845 C   0  0  0  0  0  0
    2.5927   -1.6561    1.3078 C   0  0  0  0  0  0
    1.4803   -4.9245    0.1955 F   0  0  0  0  0  0
    0.6040   -3.3703   -1.8786 F   0  0  0  0  0  0
    1.5425    3.5617   -0.4482 H   0  0  0  0  0  0
    1.9180    3.3474    1.2896 H   0  0  0  0  0  0
    4.1510    1.1883    1.3499 H   0  0  0  0  0  0
    4.4262    0.7736   -0.3703 H   0  0  0  0  0  0
    4.8696    2.7507   -1.8264 H   0  0  0  0  0  0
    3.5436    4.0327   -1.8622 H   0  0  0  0  0  0
    4.1959    4.7727    0.4785 H   0  0  0  0  0  0
    5.5218    3.4907    0.5143 H   0  0  0  0  0  0
   -0.0529    0.1340    2.0345 H   0  0  0  0  0  0
   -2.4634   -0.3402    1.9219 H   0  0  0  0  0  0
   -2.7341    1.7982   -1.7604 H   0  0  0  0  0  0
   -0.3264    2.2901   -1.6660 H   0  0  0  0  0  0
   -6.2906    1.6544    0.8898 H   0  0  0  0  0  0
   -4.8299    1.7976    1.8969 H   0  0  0  0  0  0
   -4.9428    2.6898    0.3608 H   0  0  0  0  0  0
    1.1257   -0.8269   -1.6420 H   0  0  0  0  0  0
    2.7067   -3.6342    2.1007 H   0  0  0  0  0  0
    3.1118   -1.2095    2.1430 H   0  0  0  0  0  0
  1  2  2  0  0  0
  1  5  1  0  0  0
  1 18  1  0  0  0
  2  3  1  0  0  0
  2  8  1  0  0  0
  3  4  1  0  0  0
  3 26  1  0  0  0
  3 27  1  0  0  0
  4  5  1  0  0  0
  4  6  1  0  0  0
  4  7  1  0  0  0
  5 28  1  0  0  0
  5 29  1  0  0  0
  6  7  1  0  0  0
  6 30  1  0  0  0
  6 31  1  0  0  0
  7 32  1  0  0  0
  7 33  1  0  0  0
  8  9  1  0  0  0
  8 13  2  0  0  0
  9 10  2  0  0  0
  9 34  1  0  0  0
 10 11  1  0  0  0
 10 35  1  0  0  0
 11 12  2  0  0  0
 11 14  1  0  0  0
 12 13  1  0  0  0
 12 36  1  0  0  0
 13 37  1  0  0  0
 14 15  2  0  0  0
 14 16  2  0  0  0
 14 17  1  0  0  0
 17 38  1  0  0  0
 17 39  1  0  0  0
 17 40  1  0  0  0
 18 19  1  0  0  0
 18 23  2  0  0  0
 19 20  2  0  0  0
 19 41  1  0  0  0
 20 21  1  0  0  0
 20 25  1  0  0  0
 21 22  2  0  0  0
 21 24  1  0  0  0
 22 23  1  0  0  0
 22 42  1  0  0  0
 23 43  1  0  0  0
M  END
>  <Activity>
8.48149

>  <set>
1

>  <Min_dist>
999.9

>  <Avg_dist>
999.9

$$$$
9-48
  Cerius2 12110214513D 1   1.00000                          
 
 42 45  0  0  0  0  0  0  0  0999 V2000
    2.4037    0.6014    0.2785 C   0  0  0  0  0  0
    1.4379    1.5309    0.2545 C   0  0  0  0  0  0
    2.0358    2.9210    0.3001 C   0  0  0  0  0  0
    3.5170    2.7165   -0.0452 C   0  0  0  0  0  0
    3.7685    1.2532    0.3432 C   0  0  0  0  0  0
    4.1661    3.3596   -1.2577 C   0  0  0  0  0  0
    4.5578    3.8030    0.1560 C   0  0  0  0  0  0
   -0.0055    1.2398    0.1918 C   0  0  0  0  0  0
   -0.6157    0.4928    1.2029 C   0  0  0  0  0  0
   -1.9669    0.2243    1.1375 C   0  0  0  0  0  0
   -2.7181    0.6927    0.0740 C   0  0  0  0  0  0
   -2.1207    1.4327   -0.9312 C   0  0  0  0  0  0
   -0.7717    1.7144   -0.8761 C   0  0  0  0  0  0
   -4.4438    0.3447   -0.0010 S   0  0  0  0  0  0
   -4.8022    0.4621   -1.3711 O   0  0  0  0  0  0
   -4.6403   -0.8093    0.8046 O   0  0  0  0  0  0
   -5.2315    1.5761    0.7772 N   0  0  0  0  0  0
    2.1690   -0.8533    0.2519 C   0  0  0  0  0  0
    1.4999   -1.4363   -0.8277 C   0  0  0  0  0  0
    1.2837   -2.7996   -0.8467 C   0  0  0  0  0  0
    1.7298   -3.5898    0.2041 C   0  0  0  0  0  0
    2.3934   -3.0159    1.2761 C   0  0  0  0  0  0
    2.6197   -1.6556    1.3033 C   0  0  0  0  0  0
    1.5155   -4.9235    0.1813 F   0  0  0  0  0  0
    0.6368   -3.3656   -1.8890 F   0  0  0  0  0  0
    1.5585    3.5646   -0.4389 H   0  0  0  0  0  0
    1.9334    3.3462    1.2985 H   0  0  0  0  0  0
    4.1714    1.1922    1.3542 H   0  0  0  0  0  0
    4.4486    0.7829   -0.3670 H   0  0  0  0  0  0
    4.8882    2.7650   -1.8174 H   0  0  0  0  0  0
    3.5593    4.0440   -1.8504 H   0  0  0  0  0  0
    4.2085    4.7791    0.4928 H   0  0  0  0  0  0
    5.5374    3.5001    0.5258 H   0  0  0  0  0  0
   -0.0305    0.1263    2.0334 H   0  0  0  0  0  0
   -2.4398   -0.3532    1.9181 H   0  0  0  0  0  0
   -2.7132    1.7947   -1.7585 H   0  0  0  0  0  0
   -0.3068    2.2920   -1.6613 H   0  0  0  0  0  0
   -6.1991    1.5672    0.8440 H   0  0  0  0  0  0
   -4.7252    2.3063    1.1662 H   0  0  0  0  0  0
    1.1526   -0.8217   -1.6451 H   0  0  0  0  0  0
    2.7378   -3.6357    2.0908 H   0  0  0  0  0  0
    3.1373   -1.2102    2.1400 H   0  0  0  0  0  0
  1  2  2  0  0  0
  1  5  1  0  0  0
  1 18  1  0  0  0
  2  3  1  0  0  0
  2  8  1  0  0  0
  3  4  1  0  0  0
  3 26  1  0  0  0
  3 27  1  0  0  0
  4  5  1  0  0  0
  4  6  1  0  0  0
  4  7  1  0  0  0
  5 28  1  0  0  0
  5 29  1  0  0  0
  6  7  1  0  0  0
  6 30  1  0  0  0
  6 31  1  0  0  0
  7 32  1  0  0  0
  7 33  1  0  0  0
  8  9  1  0  0  0
  8 13  2  0  0  0
  9 10  2  0  0  0
  9 34  1  0  0  0
 10 11  1  0  0  0
 10 35  1  0  0  0
 11 12  2  0  0  0
 11 14  1  0  0  0
 12 13  1  0  0  0
 12 36  1  0  0  0
 13 37  1  0  0  0
 14 15  2  0  0  0
 14 16  2  0  0  0
 14 17  1  0  0  0
 17 38  1  0  0  0
 17 39  1  0  0  0
 18 19  1  0  0  0
 18 23  2  0  0  0
 19 20  2  0  0  0
 19 40  1  0  0  0
 20 21  1  0  0  0
 20 25  1  0  0  0
 21 22  2  0  0  0
 21 24  1  0  0  0
 22 23  1  0  0  0
 22 41  1  0  0  0
 23 42  1  0  0  0
M  END
>  <Activity>
8.52288

>  <set>
1

>  <Min_dist>
999.9

>  <Avg_dist>
999.9

$$$$
9-53
  Cerius2 12110214513D 1   1.00000                          
 
 43 46  0  0  0  0  0  0  0  0999 V2000
    2.3098    0.4723    0.0502 C   0  0  0  0  0  0
    1.3458    1.3982    0.1555 C   0  0  0  0  0  0
    1.9479    2.7745    0.3432 C   0  0  0  0  0  0
    3.4196    2.6110   -0.0599 C   0  0  0  0  0  0
    3.6773    1.1134    0.1543 C   0  0  0  0  0  0
    4.0400    3.3874   -1.2077 C   0  0  0  0  0  0
    4.4676    3.6684    0.2368 C   0  0  0  0  0  0
   -0.0994    1.1155    0.0960 C   0  0  0  0  0  0
   -0.6863    0.2585    1.0308 C   0  0  0  0  0  0
   -2.0393   -0.0014    0.9688 C   0  0  0  0  0  0
   -2.8153    0.5838   -0.0163 C   0  0  0  0  0  0
   -2.2411    1.4331   -0.9457 C   0  0  0  0  0  0
   -0.8905    1.7077   -0.8921 C   0  0  0  0  0  0
   -4.5430    0.2453   -0.0879 S   0  0  0  0  0  0
   -4.8479    0.4520   -1.4603 O   0  0  0  0  0  0
   -4.6389   -1.0343    0.5225 O   0  0  0  0  0  0
   -5.2617    1.5408    0.9589 C   0  0  0  0  0  0
    2.0713   -0.9698   -0.1347 C   0  0  0  0  0  0
    1.9425   -1.8095    0.9780 C   0  0  0  0  0  0
    1.7190   -3.1601    0.7966 C   0  0  0  0  0  0
    1.6230   -3.6832   -0.4831 C   0  0  0  0  0  0
    1.7503   -2.8560   -1.5881 C   0  0  0  0  0  0
    1.9669   -1.5045   -1.4212 C   0  0  0  0  0  0
    1.4048   -5.0054   -0.6545 F   0  0  0  0  0  0
    2.0369   -1.3001    2.2257 F   0  0  0  0  0  0
    1.4539    3.4973   -0.3062 H   0  0  0  0  0  0
    1.8713    3.0841    1.3855 H   0  0  0  0  0  0
    4.1050    0.9386    1.1416 H   0  0  0  0  0  0
    4.3385    0.7267   -0.6212 H   0  0  0  0  0  0
    4.7465    2.8602   -1.8488 H   0  0  0  0  0  0
    3.4202    4.1341   -1.7040 H   0  0  0  0  0  0
    4.1291    4.6000    0.6903 H   0  0  0  0  0  0
    5.4554    3.3260    0.5455 H   0  0  0  0  0  0
   -0.0818   -0.1994    1.7997 H   0  0  0  0  0  0
   -2.4943   -0.6635    1.6905 H   0  0  0  0  0  0
   -2.8528    1.8860   -1.7119 H   0  0  0  0  0  0
   -0.4437    2.3707   -1.6181 H   0  0  0  0  0  0
   -6.3452    1.4258    0.9870 H   0  0  0  0  0  0
   -4.8610    1.4556    1.9690 H   0  0  0  0  0  0
   -5.0106    2.5194    0.5498 H   0  0  0  0  0  0
    1.6193   -3.8100    1.6535 H   0  0  0  0  0  0
    1.6751   -3.2705   -2.5825 H   0  0  0  0  0  0
    2.0658   -0.8620   -2.2837 H   0  0  0  0  0  0
  1  2  2  0  0  0
  1  5  1  0  0  0
  1 18  1  0  0  0
  2  3  1  0  0  0
  2  8  1  0  0  0
  3  4  1  0  0  0
  3 26  1  0  0  0
  3 27  1  0  0  0
  4  5  1  0  0  0
  4  6  1  0  0  0
  4  7  1  0  0  0
  5 28  1  0  0  0
  5 29  1  0  0  0
  6  7  1  0  0  0
  6 30  1  0  0  0
  6 31  1  0  0  0
  7 32  1  0  0  0
  7 33  1  0  0  0
  8  9  1  0  0  0
  8 13  2  0  0  0
  9 10  2  0  0  0
  9 34  1  0  0  0
 10 11  1  0  0  0
 10 35  1  0  0  0
 11 12  2  0  0  0
 11 14  1  0  0  0
 12 13  1  0  0  0
 12 36  1  0  0  0
 13 37  1  0  0  0
 14 15  2  0  0  0
 14 16  2  0  0  0
 14 17  1  0  0  0
 17 38  1  0  0  0
 17 39  1  0  0  0
 17 40  1  0  0  0
 18 19  1  0  0  0
 18 23  2  0  0  0
 19 20  2  0  0  0
 19 25  1  0  0  0
 20 21  1  0  0  0
 20 41  1  0  0  0
 21 22  2  0  0  0
 21 24  1  0  0  0
 22 23  1  0  0  0
 22 42  1  0  0  0
 23 43  1  0  0  0
M  END
>  <Activity>
7.65758

>  <set>
1

>  <Min_dist>
999.9

>  <Avg_dist>
999.9

$$$$
9-29
  Cerius2 12110214513D 1   1.00000                          
 
 45 48  0  0  0  0  0  0  0  0999 V2000
   -1.7338    1.6593    0.2143 C   0  0  0  0  0  0
   -2.6777    2.6093    0.2480 C   0  0  0  0  0  0
   -1.9691    3.9306    0.0915 C   0  0  0  0  0  0
   -0.5034    3.6017   -0.0347 C   0  0  0  0  0  0
   -0.3995    2.2685    0.0408 C   0  0  0  0  0  0
    0.8736    1.5119   -0.0389 C   0  0  0  0  0  0
    1.8822    1.7392    0.8959 C   0  0  0  0  0  0
    3.0647    1.0323    0.8169 C   0  0  0  0  0  0
    3.2502    0.0995   -0.1877 C   0  0  0  0  0  0
    2.2527   -0.1303   -1.1181 C   0  0  0  0  0  0
    1.0637    0.5666   -1.0454 C   0  0  0  0  0  0
    4.7629   -0.7989   -0.2827 S   0  0  0  0  0  0
    4.8478   -1.1278   -1.6625 O   0  0  0  0  0  0
    5.6898    0.0777    0.3431 O   0  0  0  0  0  0
    4.4376   -2.2649    0.7350 C   0  0  0  0  0  0
   -2.5957    5.0806   -0.6908 C   0  0  0  0  0  0
   -2.4429    5.1788    0.8293 C   0  0  0  0  0  0
   -1.9911    0.2044    0.3396 C   0  0  0  0  0  0
   -2.8107   -0.4423   -0.5848 C   0  0  0  0  0  0
   -3.0476   -1.7962   -0.4655 C   0  0  0  0  0  0
   -2.4707   -2.5146    0.5748 C   0  0  0  0  0  0
   -1.6551   -1.8729    1.4962 C   0  0  0  0  0  0
   -1.4095   -0.5206    1.3785 C   0  0  0  0  0  0
   -2.7061   -3.8480    0.6903 O   0  0  0  0  0  0
   -1.9858   -4.2964    1.8402 C   0  0  0  0  0  0
   -4.0677   -2.6028   -1.6155 Cl  0  0  0  0  0  0
   -3.7407    2.4578    0.3641 H   0  0  0  0  0  0
    0.3064    4.3050   -0.1615 H   0  0  0  0  0  0
    1.7386    2.4675    1.6804 H   0  0  0  0  0  0
    3.8471    1.2079    1.5404 H   0  0  0  0  0  0
    2.4030   -0.8595   -1.9005 H   0  0  0  0  0  0
    0.2856    0.3864   -1.7724 H   0  0  0  0  0  0
    5.3217   -2.9023    0.7470 H   0  0  0  0  0  0
    4.1991   -1.9551    1.7525 H   0  0  0  0  0  0
    3.5965   -2.8180    0.3170 H   0  0  0  0  0  0
   -1.9337    5.6921   -1.3039 H   0  0  0  0  0  0
   -3.6000    4.9316   -1.0873 H   0  0  0  0  0  0
   -3.3467    5.0944    1.4327 H   0  0  0  0  0  0
   -1.6804    5.8549    1.2161 H   0  0  0  0  0  0
   -3.2597    0.1160   -1.3929 H   0  0  0  0  0  0
   -1.2085   -2.4339    2.3038 H   0  0  0  0  0  0
   -0.7746   -0.0222    2.0961 H   0  0  0  0  0  0
   -2.1450   -5.3663    1.9742 H   0  0  0  0  0  0
   -0.9223   -4.1018    1.7015 H   0  0  0  0  0  0
   -2.3408   -3.7630    2.7220 H   0  0  0  0  0  0
  1  2  2  0  0  0
  1  5  1  0  0  0
  1 18  1  0  0  0
  2  3  1  0  0  0
  2 27  1  0  0  0
  3  4  1  0  0  0
  3 16  1  0  0  0
  3 17  1  0  0  0
  4  5  2  0  0  0
  4 28  1  0  0  0
  5  6  1  0  0  0
  6  7  1  0  0  0
  6 11  2  0  0  0
  7  8  2  0  0  0
  7 29  1  0  0  0
  8  9  1  0  0  0
  8 30  1  0  0  0
  9 10  2  0  0  0
  9 12  1  0  0  0
 10 11  1  0  0  0
 10 31  1  0  0  0
 11 32  1  0  0  0
 12 13  2  0  0  0
 12 14  2  0  0  0
 12 15  1  0  0  0
 15 33  1  0  0  0
 15 34  1  0  0  0
 15 35  1  0  0  0
 16 17  1  0  0  0
 16 36  1  0  0  0
 16 37  1  0  0  0
 17 38  1  0  0  0
 17 39  1  0  0  0
 18 19  1  0  0  0
 18 23  2  0  0  0
 19 20  2  0  0  0
 19 40  1  0  0  0
 20 21  1  0  0  0
 20 26  1  0  0  0
 21 22  2  0  0  0
 21 24  1  0  0  0
 22 23  1  0  0  0
 22 41  1  0  0  0
 23 42  1  0  0  0
 24 25  1  0  0  0
 25 43  1  0  0  0
 25 44  1  0  0  0
 25 45  1  0  0  0
M  END
>  <Activity>
7.56864

>  <set>
1

>  <Min_dist>
999.9

>  <Avg_dist>
999.9

$$$$
10-2
  Cerius2 12110214513D 1   1.00000                          
 
 36 38  0  0  0  0  0  0  0  0999 V2000
    2.8223    0.6112    0.0194 C   0  0  0  0  0  0
    1.5821    1.4088   -0.0210 C   0  0  0  0  0  0
    2.0441    2.6932   -0.0620 C   0  0  0  0  0  0
    3.3810    2.6207   -0.0464 O   0  0  0  0  0  0
    3.7955    1.4881   -0.0021 N   0  0  0  0  0  0
    1.2113    3.9480   -0.1155 C   0  0  0  0  0  0
    0.1772    0.9323   -0.0186 C   0  0  0  0  0  0
   -0.6891    1.3145    1.0038 C   0  0  0  0  0  0
   -1.9953    0.8686    1.0008 C   0  0  0  0  0  0
   -2.4447    0.0434   -0.0143 C   0  0  0  0  0  0
   -1.5892   -0.3391   -1.0317 C   0  0  0  0  0  0
   -0.2826    0.1055   -1.0418 C   0  0  0  0  0  0
   -4.1132   -0.5229   -0.0112 S   0  0  0  0  0  0
   -4.1215   -1.7040   -0.8013 O   0  0  0  0  0  0
   -4.5488   -0.4332    1.3384 O   0  0  0  0  0  0
   -5.0139    0.5855   -0.8493 N   0  0  0  0  0  0
    2.9419   -0.8662    0.0784 C   0  0  0  0  0  0
    3.9281   -1.5180   -0.6597 C   0  0  0  0  0  0
    4.0350   -2.8927   -0.6007 C   0  0  0  0  0  0
    3.1658   -3.6234    0.1891 C   0  0  0  0  0  0
    2.1851   -2.9817    0.9238 C   0  0  0  0  0  0
    2.0723   -1.6070    0.8765 C   0  0  0  0  0  0
    0.9998    4.2872    0.8986 H   0  0  0  0  0  0
    1.7575    4.7241   -0.6517 H   0  0  0  0  0  0
    0.2741    3.7404   -0.6320 H   0  0  0  0  0  0
   -0.3390    1.9581    1.7973 H   0  0  0  0  0  0
   -2.6676    1.1641    1.7927 H   0  0  0  0  0  0
   -1.9454   -0.9835   -1.8218 H   0  0  0  0  0  0
    0.3845   -0.1938   -1.8367 H   0  0  0  0  0  0
   -5.9681    0.4510   -0.9600 H   0  0  0  0  0  0
   -4.5873    1.3692   -1.2296 H   0  0  0  0  0  0
    4.6070   -0.9485   -1.2770 H   0  0  0  0  0  0
    4.7986   -3.3990   -1.1726 H   0  0  0  0  0  0
    3.2528   -4.6990    0.2320 H   0  0  0  0  0  0
    1.5088   -3.5571    1.5386 H   0  0  0  0  0  0
    1.3062   -1.1069    1.4506 H   0  0  0  0  0  0
  1  2  1  0  0  0
  1  5  2  0  0  0
  1 17  1  0  0  0
  2  3  2  0  0  0
  2  7  1  0  0  0
  3  4  1  0  0  0
  3  6  1  0  0  0
  4  5  1  0  0  0
  6 23  1  0  0  0
  6 24  1  0  0  0
  6 25  1  0  0  0
  7  8  1  0  0  0
  7 12  2  0  0  0
  8  9  2  0  0  0
  8 26  1  0  0  0
  9 10  1  0  0  0
  9 27  1  0  0  0
 10 11  2  0  0  0
 10 13  1  0  0  0
 11 12  1  0  0  0
 11 28  1  0  0  0
 12 29  1  0  0  0
 13 14  2  0  0  0
 13 15  2  0  0  0
 13 16  1  0  0  0
 16 30  1  0  0  0
 16 31  1  0  0  0
 17 18  1  0  0  0
 17 22  2  0  0  0
 18 19  2  0  0  0
 18 32  1  0  0  0
 19 20  1  0  0  0
 19 33  1  0  0  0
 20 21  2  0  0  0
 20 34  1  0  0  0
 21 22  1  0  0  0
 21 35  1  0  0  0
 22 36  1  0  0  0
M  END
>  <Activity>
8.30103

>  <set>
1

>  <Min_dist>
999.9

>  <Avg_dist>
999.9

$$$$
11-8
  Cerius2 12110214513D 1   1.00000                          
 
 37 39  0  0  0  0  0  0  0  0999 V2000
    2.3483    0.5128    0.0167 C   0  0  0  0  0  0
    1.3491    1.4826   -0.0105 C   0  0  0  0  0  0
    1.7335    2.7472   -0.0368 N   0  0  0  0  0  0
    3.0002    3.0828   -0.0375 C   0  0  0  0  0  0
    3.8062    1.5459    0.0014 S   0  0  0  0  0  0
    3.6071    4.4619   -0.0658 C   0  0  0  0  0  0
   -0.0850    1.1125   -0.0105 C   0  0  0  0  0  0
   -0.9992    1.8527    0.7390 C   0  0  0  0  0  0
   -2.3340    1.5031    0.7347 C   0  0  0  0  0  0
   -2.7661    0.4207   -0.0108 C   0  0  0  0  0  0
   -1.8641   -0.3177   -0.7558 C   0  0  0  0  0  0
   -0.5277    0.0257   -0.7645 C   0  0  0  0  0  0
   -4.4722   -0.0196   -0.0107 S   0  0  0  0  0  0
   -4.4388   -1.4096   -0.3042 O   0  0  0  0  0  0
   -4.9258    0.4772    1.2410 O   0  0  0  0  0  0
   -5.1466    0.9397   -1.3947 C   0  0  0  0  0  0
    2.2346   -0.9590    0.0542 C   0  0  0  0  0  0
    3.1086   -1.7489   -0.6957 C   0  0  0  0  0  0
    2.9976   -3.1229   -0.6568 C   0  0  0  0  0  0
    2.0211   -3.7201    0.1246 C   0  0  0  0  0  0
    1.1510   -2.9413    0.8709 C   0  0  0  0  0  0
    1.2563   -1.5665    0.8443 C   0  0  0  0  0  0
    1.9167   -5.0666    0.1585 F   0  0  0  0  0  0
    3.7477    4.8180    0.9547 H   0  0  0  0  0  0
    4.5709    4.4243   -0.5736 H   0  0  0  0  0  0
    2.9417    5.1408   -0.5992 H   0  0  0  0  0  0
   -0.6630    2.6974    1.3219 H   0  0  0  0  0  0
   -3.0429    2.0755    1.3146 H   0  0  0  0  0  0
   -2.2073   -1.1618   -1.3355 H   0  0  0  0  0  0
    0.1755   -0.5512   -1.3468 H   0  0  0  0  0  0
   -6.2143    0.7409   -1.4884 H   0  0  0  0  0  0
   -4.9897    2.0025   -1.2107 H   0  0  0  0  0  0
   -4.6412    0.6520   -2.3166 H   0  0  0  0  0  0
    3.8697   -1.2846   -1.3053 H   0  0  0  0  0  0
    3.6727   -3.7348   -1.2367 H   0  0  0  0  0  0
    0.3917   -3.4120    1.4778 H   0  0  0  0  0  0
    0.5777   -0.9605    1.4263 H   0  0  0  0  0  0
  1  2  2  0  0  0
  1  5  1  0  0  0
  1 17  1  0  0  0
  2  3  1  0  0  0
  2  7  1  0  0  0
  3  4  2  0  0  0
  4  5  1  0  0  0
  4  6  1  0  0  0
  6 24  1  0  0  0
  6 25  1  0  0  0
  6 26  1  0  0  0
  7  8  1  0  0  0
  7 12  2  0  0  0
  8  9  2  0  0  0
  8 27  1  0  0  0
  9 10  1  0  0  0
  9 28  1  0  0  0
 10 11  2  0  0  0
 10 13  1  0  0  0
 11 12  1  0  0  0
 11 29  1  0  0  0
 12 30  1  0  0  0
 13 14  2  0  0  0
 13 15  2  0  0  0
 13 16  1  0  0  0
 16 31  1  0  0  0
 16 32  1  0  0  0
 16 33  1  0  0  0
 17 18  1  0  0  0
 17 22  2  0  0  0
 18 19  2  0  0  0
 18 34  1  0  0  0
 19 20  1  0  0  0
 19 35  1  0  0  0
 20 21  2  0  0  0
 20 23  1  0  0  0
 21 22  1  0  0  0
 21 36  1  0  0  0
 22 37  1  0  0  0
M  END
>  <Activity>
6.92082

>  <set>
1

>  <Min_dist>
999.9

>  <Avg_dist>
999.9

$$$$
11-10
  Cerius2 12110214513D 1   1.00000                          
 
 37 39  0  0  0  0  0  0  0  0999 V2000
    0.8367    0.7061    0.0029 C   0  0  0  0  0  0
    1.6581   -0.4183    0.0279 C   0  0  0  0  0  0
    2.9639   -0.2146    0.0204 N   0  0  0  0  0  0
    3.4731    0.9928   -0.0092 C   0  0  0  0  0  0
    2.0632    2.0053   -0.0304 S   0  0  0  0  0  0
    4.9237    1.4011   -0.0210 C   0  0  0  0  0  0
    5.7300    0.2582    0.0046 F   0  0  0  0  0  0
    5.1920    2.1353   -1.1813 F   0  0  0  0  0  0
    5.1955    2.1890    1.1026 F   0  0  0  0  0  0
    1.0914   -1.7866    0.0619 C   0  0  0  0  0  0
    1.6794   -2.8062   -0.6864 C   0  0  0  0  0  0
    1.1482   -4.0789   -0.6510 C   0  0  0  0  0  0
    0.0324   -4.3450    0.1262 C   0  0  0  0  0  0
   -0.5556   -3.3353    0.8710 C   0  0  0  0  0  0
   -0.0285   -2.0607    0.8468 C   0  0  0  0  0  0
   -0.4841   -5.5929    0.1576 F   0  0  0  0  0  0
   -0.6368    0.7987   -0.0015 C   0  0  0  0  0  0
   -1.2799    1.7857    0.7485 C   0  0  0  0  0  0
   -2.6569    1.8668    0.7394 C   0  0  0  0  0  0
   -3.4008    0.9731   -0.0106 C   0  0  0  0  0  0
   -2.7702   -0.0073   -0.7561 C   0  0  0  0  0  0
   -1.3937   -0.0966   -0.7604 C   0  0  0  0  0  0
   -5.1593    1.0837   -0.0158 S   0  0  0  0  0  0
   -5.5578   -0.2475   -0.3135 O   0  0  0  0  0  0
   -5.4404    1.6939    1.2363 O   0  0  0  0  0  0
   -5.4986    2.2079   -1.3984 C   0  0  0  0  0  0
    2.5489   -2.5997   -1.2928 H   0  0  0  0  0  0
    1.6026   -4.8690   -1.2303 H   0  0  0  0  0  0
   -1.4256   -3.5475    1.4748 H   0  0  0  0  0  0
   -0.4872   -1.2745    1.4280 H   0  0  0  0  0  0
   -0.7005    2.4837    1.3346 H   0  0  0  0  0  0
   -3.1555    2.6294    1.3193 H   0  0  0  0  0  0
   -3.3570   -0.7017   -1.3392 H   0  0  0  0  0  0
   -0.9028   -0.8623   -1.3427 H   0  0  0  0  0  0
   -6.5749    2.3503   -1.4953 H   0  0  0  0  0  0
   -5.0203    3.1692   -1.2108 H   0  0  0  0  0  0
   -5.1043    1.7797   -2.3200 H   0  0  0  0  0  0
  1  2  2  0  0  0
  1  5  1  0  0  0
  1 17  1  0  0  0
  2  3  1  0  0  0
  2 10  1  0  0  0
  3  4  2  0  0  0
  4  5  1  0  0  0
  4  6  1  0  0  0
  6  7  1  0  0  0
  6  8  1  0  0  0
  6  9  1  0  0  0
 10 11  1  0  0  0
 10 15  2  0  0  0
 11 12  2  0  0  0
 11 27  1  0  0  0
 12 13  1  0  0  0
 12 28  1  0  0  0
 13 14  2  0  0  0
 13 16  1  0  0  0
 14 15  1  0  0  0
 14 29  1  0  0  0
 15 30  1  0  0  0
 17 18  1  0  0  0
 17 22  2  0  0  0
 18 19  2  0  0  0
 18 31  1  0  0  0
 19 20  1  0  0  0
 19 32  1  0  0  0
 20 21  2  0  0  0
 20 23  1  0  0  0
 21 22  1  0  0  0
 21 33  1  0  0  0
 22 34  1  0  0  0
 23 24  2  0  0  0
 23 25  2  0  0  0
 23 26  1  0  0  0
 26 35  1  0  0  0
 26 36  1  0  0  0
 26 37  1  0  0  0
M  END
>  <Activity>
7.63827

>  <set>
1

>  <Min_dist>
999.9

>  <Avg_dist>
999.9

$$$$
11-13
  Cerius2 12110214513D 1   1.00000                          
 
 40 42  0  0  0  0  0  0  0  0999 V2000
   -1.2587    1.0991   -0.1364 C   0  0  0  0  0  0
   -2.2559    0.1272   -0.1600 C   0  0  0  0  0  0
   -3.5086    0.5460   -0.2057 N   0  0  0  0  0  0
   -3.8086    1.8217   -0.2283 C   0  0  0  0  0  0
   -2.2502    2.5850   -0.1840 S   0  0  0  0  0  0
   -5.1698    2.4663   -0.2806 C   0  0  0  0  0  0
   -5.6789    2.6991    1.1433 C   0  0  0  0  0  0
   -1.9260   -1.3167   -0.1352 C   0  0  0  0  0  0
   -2.6998   -2.1984    0.6193 C   0  0  0  0  0  0
   -2.3889   -3.5422    0.6387 C   0  0  0  0  0  0
   -1.3099   -4.0166   -0.0897 C   0  0  0  0  0  0
   -0.5378   -3.1447   -0.8405 C   0  0  0  0  0  0
   -0.8441   -1.7999   -0.8709 C   0  0  0  0  0  0
   -1.0093   -5.3336   -0.0675 F   0  0  0  0  0  0
    0.2087    0.9449   -0.0810 C   0  0  0  0  0  0
    1.0313    1.7851   -0.8344 C   0  0  0  0  0  0
    2.4014    1.6357   -0.7775 C   0  0  0  0  0  0
    2.9610    0.6561    0.0237 C   0  0  0  0  0  0
    2.1519   -0.1799    0.7728 C   0  0  0  0  0  0
    0.7805   -0.0382    0.7295 C   0  0  0  0  0  0
    4.7121    0.4720    0.0898 S   0  0  0  0  0  0
    4.8721   -0.8961    0.4387 O   0  0  0  0  0  0
    5.1305    0.9845   -1.1678 O   0  0  0  0  0  0
    5.1919    1.5697    1.4520 C   0  0  0  0  0  0
   -5.0999    3.4209   -0.8021 H   0  0  0  0  0  0
   -5.8615    1.8121   -0.8114 H   0  0  0  0  0  0
   -6.6635    3.1653    1.1055 H   0  0  0  0  0  0
   -5.7488    1.7444    1.6648 H   0  0  0  0  0  0
   -4.9873    3.3532    1.6741 H   0  0  0  0  0  0
   -3.5408   -1.8295    1.1877 H   0  0  0  0  0  0
   -2.9872   -4.2256    1.2229 H   0  0  0  0  0  0
    0.3027   -3.5191   -1.4060 H   0  0  0  0  0  0
   -0.2420   -1.1212   -1.4567 H   0  0  0  0  0  0
    0.5957    2.5498   -1.4604 H   0  0  0  0  0  0
    3.0387    2.2845   -1.3599 H   0  0  0  0  0  0
    2.5954   -0.9423    1.3960 H   0  0  0  0  0  0
    0.1502   -0.6913    1.3147 H   0  0  0  0  0  0
    6.2733    1.5338    1.5839 H   0  0  0  0  0  0
    4.8878    2.5905    1.2204 H   0  0  0  0  0  0
    4.7029    1.2444    2.3702 H   0  0  0  0  0  0
  1  2  2  0  0  0
  1  5  1  0  0  0
  1 15  1  0  0  0
  2  3  1  0  0  0
  2  8  1  0  0  0
  3  4  2  0  0  0
  4  5  1  0  0  0
  4  6  1  0  0  0
  6  7  1  0  0  0
  6 25  1  0  0  0
  6 26  1  0  0  0
  7 27  1  0  0  0
  7 28  1  0  0  0
  7 29  1  0  0  0
  8  9  1  0  0  0
  8 13  2  0  0  0
  9 10  2  0  0  0
  9 30  1  0  0  0
 10 11  1  0  0  0
 10 31  1  0  0  0
 11 12  2  0  0  0
 11 14  1  0  0  0
 12 13  1  0  0  0
 12 32  1  0  0  0
 13 33  1  0  0  0
 15 16  1  0  0  0
 15 20  2  0  0  0
 16 17  2  0  0  0
 16 34  1  0  0  0
 17 18  1  0  0  0
 17 35  1  0  0  0
 18 19  2  0  0  0
 18 21  1  0  0  0
 19 20  1  0  0  0
 19 36  1  0  0  0
 20 37  1  0  0  0
 21 22  2  0  0  0
 21 23  2  0  0  0
 21 24  1  0  0  0
 24 38  1  0  0  0
 24 39  1  0  0  0
 24 40  1  0  0  0
M  END
>  <Activity>
7.63827

>  <set>
1

>  <Min_dist>
999.9

>  <Avg_dist>
999.9

$$$$
11-14
  Cerius2 12110214513D 1   1.00000                          
 
 46 48  0  0  0  0  0  0  0  0999 V2000
    0.9685    0.7823    0.0017 C   0  0  0  0  0  0
    1.8258   -0.3150    0.0267 C   0  0  0  0  0  0
    3.1243   -0.0692    0.0188 N   0  0  0  0  0  0
    3.5942    1.1540   -0.0113 C   0  0  0  0  0  0
    2.1524    2.1204   -0.0322 S   0  0  0  0  0  0
    5.0308    1.6090   -0.0236 C   0  0  0  0  0  0
    5.7335    1.0458   -1.2606 C   0  0  0  0  0  0
    5.0814    3.1377   -0.0601 C   0  0  0  0  0  0
    5.7362    1.1053    1.2372 C   0  0  0  0  0  0
    1.3036   -1.7008    0.0612 C   0  0  0  0  0  0
    1.9240   -2.7011   -0.6870 C   0  0  0  0  0  0
    1.4342   -3.9903   -0.6511 C   0  0  0  0  0  0
    0.3278   -4.2921    0.1265 C   0  0  0  0  0  0
   -0.2923   -3.3018    0.8713 C   0  0  0  0  0  0
    0.1934   -2.0108    0.8466 C   0  0  0  0  0  0
   -0.1482   -5.5561    0.1584 F   0  0  0  0  0  0
   -0.5073    0.8273   -0.0023 C   0  0  0  0  0  0
   -1.1817    1.7932    0.7478 C   0  0  0  0  0  0
   -2.5605    1.8298    0.7391 C   0  0  0  0  0  0
   -3.2754    0.9123   -0.0105 C   0  0  0  0  0  0
   -2.6138   -0.0474   -0.7560 C   0  0  0  0  0  0
   -1.2351   -0.0922   -0.7607 C   0  0  0  0  0  0
   -5.0366    0.9660   -0.0152 S   0  0  0  0  0  0
   -5.3920   -0.3773   -0.3124 O   0  0  0  0  0  0
   -5.3368    1.5672    1.2368 O   0  0  0  0  0  0
   -5.4124    2.0784   -1.3980 C   0  0  0  0  0  0
    6.7726    1.3748   -1.2696 H   0  0  0  0  0  0
    5.6974   -0.0433   -1.2346 H   0  0  0  0  0  0
    5.2310    1.4046   -2.1588 H   0  0  0  0  0  0
    4.5789    3.4965   -0.9583 H   0  0  0  0  0  0
    4.5809    3.5389    0.8211 H   0  0  0  0  0  0
    6.1205    3.4667   -0.0691 H   0  0  0  0  0  0
    5.7002    0.0162    1.2631 H   0  0  0  0  0  0
    6.7753    1.4343    1.2282 H   0  0  0  0  0  0
    5.2356    1.5065    2.1184 H   0  0  0  0  0  0
    2.7861   -2.4668   -1.2937 H   0  0  0  0  0  0
    1.9136   -4.7655   -1.2304 H   0  0  0  0  0  0
   -1.1548   -3.5418    1.4753 H   0  0  0  0  0  0
   -0.2904   -1.2396    1.4277 H   0  0  0  0  0  0
   -0.6249    2.5097    1.3335 H   0  0  0  0  0  0
   -3.0834    2.5760    1.3189 H   0  0  0  0  0  0
   -3.1779   -0.7605   -1.3387 H   0  0  0  0  0  0
   -0.7199   -0.8418   -1.3430 H   0  0  0  0  0  0
   -6.4928    2.1859   -1.4945 H   0  0  0  0  0  0
   -4.9654    3.0547   -1.2107 H   0  0  0  0  0  0
   -5.0048    1.6629   -2.3196 H   0  0  0  0  0  0
  1  2  2  0  0  0
  1  5  1  0  0  0
  1 17  1  0  0  0
  2  3  1  0  0  0
  2 10  1  0  0  0
  3  4  2  0  0  0
  4  5  1  0  0  0
  4  6  1  0  0  0
  6  7  1  0  0  0
  6  8  1  0  0  0
  6  9  1  0  0  0
  7 27  1  0  0  0
  7 28  1  0  0  0
  7 29  1  0  0  0
  8 30  1  0  0  0
  8 31  1  0  0  0
  8 32  1  0  0  0
  9 33  1  0  0  0
  9 34  1  0  0  0
  9 35  1  0  0  0
 10 11  1  0  0  0
 10 15  2  0  0  0
 11 12  2  0  0  0
 11 36  1  0  0  0
 12 13  1  0  0  0
 12 37  1  0  0  0
 13 14  2  0  0  0
 13 16  1  0  0  0
 14 15  1  0  0  0
 14 38  1  0  0  0
 15 39  1  0  0  0
 17 18  1  0  0  0
 17 22  2  0  0  0
 18 19  2  0  0  0
 18 40  1  0  0  0
 19 20  1  0  0  0
 19 41  1  0  0  0
 20 21  2  0  0  0
 20 23  1  0  0  0
 21 22  1  0  0  0
 21 42  1  0  0  0
 22 43  1  0  0  0
 23 24  2  0  0  0
 23 25  2  0  0  0
 23 26  1  0  0  0
 26 44  1  0  0  0
 26 45  1  0  0  0
 26 46  1  0  0  0
M  END
>  <Activity>
6.95861

>  <set>
1

>  <Min_dist>
999.9

>  <Avg_dist>
999.9

$$$$
11-21
  Cerius2 12110214513D 1   1.00000                          
 
 44 47  0  0  0  0  0  0  0  0999 V2000
    0.3105    0.2902    0.0132 C   0  0  0  0  0  0
    0.9255   -0.9614    0.0351 C   0  0  0  0  0  0
    2.2410   -1.0207    0.0322 N   0  0  0  0  0  0
    2.9845    0.0742    0.0091 C   0  0  0  0  0  0
    1.7433    1.3600   -0.0115 S   0  0  0  0  0  0
    4.4569    0.2005    0.0022 C   0  0  0  0  0  0
    5.2588   -0.9421    0.0209 C   0  0  0  0  0  0
    6.6324   -0.8174    0.0138 C   0  0  0  0  0  0
    7.2169    0.4369   -0.0117 C   0  0  0  0  0  0
    6.4293    1.5737   -0.0299 C   0  0  0  0  0  0
    5.0526    1.4635   -0.0289 C   0  0  0  0  0  0
    4.0652    2.8911   -0.0517 Cl  0  0  0  0  0  0
    0.1141   -2.2008    0.0615 C   0  0  0  0  0  0
    0.5047   -3.3089   -0.6898 C   0  0  0  0  0  0
   -0.2542   -4.4606   -0.6619 C   0  0  0  0  0  0
   -1.4031   -4.5174    0.1106 C   0  0  0  0  0  0
   -1.7956   -3.4189    0.8585 C   0  0  0  0  0  0
   -1.0397   -2.2650    0.8424 C   0  0  0  0  0  0
   -2.1433   -5.6473    0.1344 F   0  0  0  0  0  0
   -1.1243    0.6357    0.0059 C   0  0  0  0  0  0
   -1.5898    1.7161    0.7592 C   0  0  0  0  0  0
   -2.9320    2.0332    0.7477 C   0  0  0  0  0  0
   -3.8169    1.2838   -0.0073 C   0  0  0  0  0  0
   -3.3630    0.2119   -0.7556 C   0  0  0  0  0  0
   -2.0224   -0.1126   -0.7588 C   0  0  0  0  0  0
   -5.5301    1.6959   -0.0156 S   0  0  0  0  0  0
   -6.1512    0.4544   -0.3192 O   0  0  0  0  0  0
   -5.7049    2.3410    1.2384 O   0  0  0  0  0  0
   -5.6668    2.8667   -1.3944 C   0  0  0  0  0  0
    4.8045   -1.9217    0.0412 H   0  0  0  0  0  0
    7.2535   -1.7008    0.0286 H   0  0  0  0  0  0
    8.2930    0.5284   -0.0171 H   0  0  0  0  0  0
    6.8919    2.5494   -0.0494 H   0  0  0  0  0  0
    1.3996   -3.2653   -1.2928 H   0  0  0  0  0  0
    0.0474   -5.3192   -1.2434 H   0  0  0  0  0  0
   -2.6920   -3.4679    1.4588 H   0  0  0  0  0  0
   -1.3463   -1.4095    1.4259 H   0  0  0  0  0  0
   -0.9003    2.3015    1.3495 H   0  0  0  0  0  0
   -3.2933    2.8683    1.3296 H   0  0  0  0  0  0
   -4.0593   -0.3692   -1.3420 H   0  0  0  0  0  0
   -1.6694   -0.9494   -1.3432 H   0  0  0  0  0  0
   -6.7022    3.1928   -1.4927 H   0  0  0  0  0  0
   -5.0305    3.7305   -1.2020 H   0  0  0  0  0  0
   -5.3500    2.3802   -2.3169 H   0  0  0  0  0  0
  1  2  2  0  0  0
  1  5  1  0  0  0
  1 20  1  0  0  0
  2  3  1  0  0  0
  2 13  1  0  0  0
  3  4  2  0  0  0
  4  5  1  0  0  0
  4  6  1  0  0  0
  6  7  1  0  0  0
  6 11  2  0  0  0
  7  8  2  0  0  0
  7 30  1  0  0  0
  8  9  1  0  0  0
  8 31  1  0  0  0
  9 10  2  0  0  0
  9 32  1  0  0  0
 10 11  1  0  0  0
 10 33  1  0  0  0
 11 12  1  0  0  0
 13 14  1  0  0  0
 13 18  2  0  0  0
 14 15  2  0  0  0
 14 34  1  0  0  0
 15 16  1  0  0  0
 15 35  1  0  0  0
 16 17  2  0  0  0
 16 19  1  0  0  0
 17 18  1  0  0  0
 17 36  1  0  0  0
 18 37  1  0  0  0
 20 21  1  0  0  0
 20 25  2  0  0  0
 21 22  2  0  0  0
 21 38  1  0  0  0
 22 23  1  0  0  0
 22 39  1  0  0  0
 23 24  2  0  0  0
 23 26  1  0  0  0
 24 25  1  0  0  0
 24 40  1  0  0  0
 25 41  1  0  0  0
 26 27  2  0  0  0
 26 28  2  0  0  0
 26 29  1  0  0  0
 29 42  1  0  0  0
 29 43  1  0  0  0
 29 44  1  0  0  0
M  END
>  <Activity>
7.30103

>  <set>
1

>  <Min_dist>
999.9

>  <Avg_dist>
999.9

$$$$
11-24
  Cerius2 12110214513D 1   1.00000                          
 
 41 44  0  0  0  0  0  0  0  0999 V2000
    0.5499    0.5059    0.0087 C   0  0  0  0  0  0
    1.2461   -0.7019    0.0328 C   0  0  0  0  0  0
    2.5630   -0.6748    0.0289 N   0  0  0  0  0  0
    3.2327    0.4697    0.0027 C   0  0  0  0  0  0
    1.9078    1.6691   -0.0197 S   0  0  0  0  0  0
    4.6858    0.6934   -0.0054 C   0  0  0  0  0  0
    5.7108   -0.2345    0.0120 C   0  0  0  0  0  0
    7.0081    0.2231   -0.0011 C   0  0  0  0  0  0
    7.2406    1.5613   -0.0305 C   0  0  0  0  0  0
    5.5873    2.2339   -0.0480 S   0  0  0  0  0  0
    0.5181   -1.9918    0.0628 C   0  0  0  0  0  0
    0.9804   -3.0736   -0.6863 C   0  0  0  0  0  0
    0.2993   -4.2728   -0.6547 C   0  0  0  0  0  0
   -0.8423   -4.4036    0.1197 C   0  0  0  0  0  0
   -1.3058   -3.3317    0.8653 C   0  0  0  0  0  0
   -0.6284   -2.1301    0.8448 C   0  0  0  0  0  0
   -1.5059   -5.5801    0.1474 F   0  0  0  0  0  0
   -0.9043    0.7551    0.0019 C   0  0  0  0  0  0
   -1.4402    1.8041    0.7532 C   0  0  0  0  0  0
   -2.8005    2.0310    0.7421 C   0  0  0  0  0  0
   -3.6341    1.2228   -0.0109 C   0  0  0  0  0  0
   -3.1104    0.1817   -0.7571 C   0  0  0  0  0  0
   -1.7513   -0.0532   -0.7605 C   0  0  0  0  0  0
   -5.3708    1.5203   -0.0189 S   0  0  0  0  0  0
   -5.9084    0.2398   -0.3196 O   0  0  0  0  0  0
   -5.5875    2.1551    1.2338 O   0  0  0  0  0  0
   -5.5856    2.6765   -1.4002 C   0  0  0  0  0  0
    5.4981   -1.2931    0.0356 H   0  0  0  0  0  0
    7.8329   -0.4740    0.0121 H   0  0  0  0  0  0
    8.1852    2.0846   -0.0442 H   0  0  0  0  0  0
    1.8699   -2.9725   -1.2905 H   0  0  0  0  0  0
    0.6562   -5.1110   -1.2347 H   0  0  0  0  0  0
   -2.1964   -3.4383    1.4668 H   0  0  0  0  0  0
   -0.9904   -1.2951    1.4264 H   0  0  0  0  0  0
   -0.7909    2.4354    1.3416 H   0  0  0  0  0  0
   -3.2163    2.8413    1.3227 H   0  0  0  0  0  0
   -3.7669   -0.4453   -1.3421 H   0  0  0  0  0  0
   -1.3439   -0.8659   -1.3436 H   0  0  0  0  0  0
   -6.6404    2.9330   -1.4986 H   0  0  0  0  0  0
   -5.0078    3.5810   -1.2100 H   0  0  0  0  0  0
   -5.2375    2.2101   -2.3218 H   0  0  0  0  0  0
  1  2  2  0  0  0
  1  5  1  0  0  0
  1 18  1  0  0  0
  2  3  1  0  0  0
  2 11  1  0  0  0
  3  4  2  0  0  0
  4  5  1  0  0  0
  4  6  1  0  0  0
  6  7  2  0  0  0
  6 10  1  0  0  0
  7  8  1  0  0  0
  7 28  1  0  0  0
  8  9  2  0  0  0
  8 29  1  0  0  0
  9 10  1  0  0  0
  9 30  1  0  0  0
 11 12  1  0  0  0
 11 16  2  0  0  0
 12 13  2  0  0  0
 12 31  1  0  0  0
 13 14  1  0  0  0
 13 32  1  0  0  0
 14 15  2  0  0  0
 14 17  1  0  0  0
 15 16  1  0  0  0
 15 33  1  0  0  0
 16 34  1  0  0  0
 18 19  1  0  0  0
 18 23  2  0  0  0
 19 20  2  0  0  0
 19 35  1  0  0  0
 20 21  1  0  0  0
 20 36  1  0  0  0
 21 22  2  0  0  0
 21 24  1  0  0  0
 22 23  1  0  0  0
 22 37  1  0  0  0
 23 38  1  0  0  0
 24 25  2  0  0  0
 24 26  2  0  0  0
 24 27  1  0  0  0
 27 39  1  0  0  0
 27 40  1  0  0  0
 27 41  1  0  0  0
M  END
>  <Activity>
7.67778

>  <set>
1

>  <Min_dist>
999.9

>  <Avg_dist>
999.9

$$$$
11-25
  Cerius2 12110214513D 1   1.00000                          
 
 43 46  0  0  0  0  0  0  0  0999 V2000
    0.5823    0.5899    0.0065 C   0  0  0  0  0  0
    1.3201   -0.5936    0.0311 C   0  0  0  0  0  0
    2.6348   -0.5204    0.0261 N   0  0  0  0  0  0
    3.2645    0.6435   -0.0015 C   0  0  0  0  0  0
    1.9004    1.7981   -0.0238 S   0  0  0  0  0  0
    4.7170    0.9171   -0.0109 C   0  0  0  0  0  0
    5.6399   -0.1357    0.0102 C   0  0  0  0  0  0
    6.9882    0.1740    0.0003 C   0  0  0  0  0  0
    7.3780    1.5012   -0.0299 C   0  0  0  0  0  0
    6.4860    2.4728   -0.0488 N   0  0  0  0  0  0
    5.1917    2.2288   -0.0468 C   0  0  0  0  0  0
    0.6374   -1.9082    0.0627 C   0  0  0  0  0  0
    1.1364   -2.9738   -0.6860 C   0  0  0  0  0  0
    0.4972   -4.1958   -0.6533 C   0  0  0  0  0  0
   -0.6391   -4.3654    0.1213 C   0  0  0  0  0  0
   -1.1389   -3.3096    0.8666 C   0  0  0  0  0  0
   -0.5030   -2.0856    0.8457 C   0  0  0  0  0  0
   -1.2619   -5.5639    0.1498 F   0  0  0  0  0  0
   -0.8799    0.7895    0.0007 C   0  0  0  0  0  0
   -1.4505    1.8201    0.7514 C   0  0  0  0  0  0
   -2.8178    2.0010    0.7409 C   0  0  0  0  0  0
   -3.6240    1.1646   -0.0111 C   0  0  0  0  0  0
   -3.0656    0.1413   -0.7569 C   0  0  0  0  0  0
   -1.6994   -0.0477   -0.7603 C   0  0  0  0  0  0
   -5.3697    1.4032   -0.0186 S   0  0  0  0  0  0
   -5.8638    0.1050   -0.3181 O   0  0  0  0  0  0
   -5.6072    2.0312    1.2338 O   0  0  0  0  0  0
   -5.6241    2.5505   -1.4005 C   0  0  0  0  0  0
    5.3077   -1.1631    0.0340 H   0  0  0  0  0  0
    7.7287   -0.6119    0.0163 H   0  0  0  0  0  0
    8.4300    1.7457   -0.0377 H   0  0  0  0  0  0
    4.4919    3.0512   -0.0627 H   0  0  0  0  0  0
    2.0216   -2.8424   -1.2907 H   0  0  0  0  0  0
    0.8828   -5.0216   -1.2328 H   0  0  0  0  0  0
   -2.0251   -3.4466    1.4686 H   0  0  0  0  0  0
   -0.8931   -1.2633    1.4272 H   0  0  0  0  0  0
   -0.8226    2.4734    1.3390 H   0  0  0  0  0  0
   -3.2604    2.7971    1.3211 H   0  0  0  0  0  0
   -3.7008   -0.5082   -1.3409 H   0  0  0  0  0  0
   -1.2649   -0.8465   -1.3430 H   0  0  0  0  0  0
   -6.6870    2.7711   -1.4986 H   0  0  0  0  0  0
   -5.0772    3.4742   -1.2112 H   0  0  0  0  0  0
   -5.2609    2.0955   -2.3220 H   0  0  0  0  0  0
  1  2  2  0  0  0
  1  5  1  0  0  0
  1 19  1  0  0  0
  2  3  1  0  0  0
  2 12  1  0  0  0
  3  4  2  0  0  0
  4  5  1  0  0  0
  4  6  1  0  0  0
  6  7  1  0  0  0
  6 11  2  0  0  0
  7  8  2  0  0  0
  7 29  1  0  0  0
  8  9  1  0  0  0
  8 30  1  0  0  0
  9 10  2  0  0  0
  9 31  1  0  0  0
 10 11  1  0  0  0
 11 32  1  0  0  0
 12 13  1  0  0  0
 12 17  2  0  0  0
 13 14  2  0  0  0
 13 33  1  0  0  0
 14 15  1  0  0  0
 14 34  1  0  0  0
 15 16  2  0  0  0
 15 18  1  0  0  0
 16 17  1  0  0  0
 16 35  1  0  0  0
 17 36  1  0  0  0
 19 20  1  0  0  0
 19 24  2  0  0  0
 20 21  2  0  0  0
 20 37  1  0  0  0
 21 22  1  0  0  0
 21 38  1  0  0  0
 22 23  2  0  0  0
 22 25  1  0  0  0
 23 24  1  0  0  0
 23 39  1  0  0  0
 24 40  1  0  0  0
 25 26  2  0  0  0
 25 27  2  0  0  0
 25 28  1  0  0  0
 28 41  1  0  0  0
 28 42  1  0  0  0
 28 43  1  0  0  0
M  END
>  <Activity>
6.36653

>  <set>
1

>  <Min_dist>
999.9

>  <Avg_dist>
999.9

$$$$
11-26
  Cerius2 12110214513D 1   1.00000                          
 
 43 46  0  0  0  0  0  0  0  0999 V2000
    0.5763    0.5961    0.0058 C   0  0  0  0  0  0
    1.3170   -0.5869    0.0307 C   0  0  0  0  0  0
    2.6304   -0.5107    0.0259 N   0  0  0  0  0  0
    3.2582    0.6542   -0.0017 C   0  0  0  0  0  0
    1.8923    1.8066   -0.0245 S   0  0  0  0  0  0
    4.7102    0.9301   -0.0109 C   0  0  0  0  0  0
    5.6415   -0.1152    0.0104 C   0  0  0  0  0  0
    6.9870    0.1879    0.0009 C   0  0  0  0  0  0
    7.3992    1.4410   -0.0278 N   0  0  0  0  0  0
    6.5559    2.4555   -0.0486 C   0  0  0  0  0  0
    5.1929    2.2438   -0.0470 C   0  0  0  0  0  0
    0.6370   -1.9029    0.0624 C   0  0  0  0  0  0
    1.1384   -2.9675   -0.6861 C   0  0  0  0  0  0
    0.5017   -4.1909   -0.6533 C   0  0  0  0  0  0
   -0.6340   -4.3629    0.1215 C   0  0  0  0  0  0
   -1.1362   -3.3081    0.8665 C   0  0  0  0  0  0
   -0.5031   -2.0826    0.8452 C   0  0  0  0  0  0
   -1.2540   -5.5629    0.1503 F   0  0  0  0  0  0
   -0.8864    0.7930   -0.0004 C   0  0  0  0  0  0
   -1.4591    1.8225    0.7502 C   0  0  0  0  0  0
   -2.8268    2.0006    0.7397 C   0  0  0  0  0  0
   -3.6313    1.1620   -0.0115 C   0  0  0  0  0  0
   -3.0709    0.1400   -0.7574 C   0  0  0  0  0  0
   -1.7041   -0.0459   -0.7613 C   0  0  0  0  0  0
   -5.3776    1.3962   -0.0179 S   0  0  0  0  0  0
   -5.8687    0.0967   -0.3168 O   0  0  0  0  0  0
   -5.6159    2.0239    1.2345 O   0  0  0  0  0  0
   -5.6358    2.5426   -1.3999 C   0  0  0  0  0  0
    5.3112   -1.1432    0.0343 H   0  0  0  0  0  0
    7.7131   -0.6114    0.0176 H   0  0  0  0  0  0
    6.9380    3.4654   -0.0714 H   0  0  0  0  0  0
    4.5084    3.0791   -0.0640 H   0  0  0  0  0  0
    2.0234   -2.8343   -1.2906 H   0  0  0  0  0  0
    0.8890   -5.0159   -1.2329 H   0  0  0  0  0  0
   -2.0222   -3.4468    1.4683 H   0  0  0  0  0  0
   -0.8951   -1.2611    1.4264 H   0  0  0  0  0  0
   -0.8324    2.4773    1.3375 H   0  0  0  0  0  0
   -3.2709    2.7962    1.3195 H   0  0  0  0  0  0
   -3.7047   -0.5110   -1.3411 H   0  0  0  0  0  0
   -1.2680   -0.8436   -1.3442 H   0  0  0  0  0  0
   -6.6993    2.7605   -1.4973 H   0  0  0  0  0  0
   -5.0911    3.4677   -1.2112 H   0  0  0  0  0  0
   -5.2720    2.0883   -2.3215 H   0  0  0  0  0  0
  1  2  2  0  0  0
  1  5  1  0  0  0
  1 19  1  0  0  0
  2  3  1  0  0  0
  2 12  1  0  0  0
  3  4  2  0  0  0
  4  5  1  0  0  0
  4  6  1  0  0  0
  6  7  1  0  0  0
  6 11  2  0  0  0
  7  8  2  0  0  0
  7 29  1  0  0  0
  8  9  1  0  0  0
  8 30  1  0  0  0
  9 10  2  0  0  0
 10 11  1  0  0  0
 10 31  1  0  0  0
 11 32  1  0  0  0
 12 13  1  0  0  0
 12 17  2  0  0  0
 13 14  2  0  0  0
 13 33  1  0  0  0
 14 15  1  0  0  0
 14 34  1  0  0  0
 15 16  2  0  0  0
 15 18  1  0  0  0
 16 17  1  0  0  0
 16 35  1  0  0  0
 17 36  1  0  0  0
 19 20  1  0  0  0
 19 24  2  0  0  0
 20 21  2  0  0  0
 20 37  1  0  0  0
 21 22  1  0  0  0
 21 38  1  0  0  0
 22 23  2  0  0  0
 22 25  1  0  0  0
 23 24  1  0  0  0
 23 39  1  0  0  0
 24 40  1  0  0  0
 25 26  2  0  0  0
 25 27  2  0  0  0
 25 28  1  0  0  0
 28 41  1  0  0  0
 28 42  1  0  0  0
 28 43  1  0  0  0
M  END
>  <Activity>
5.79588

>  <set>
1

>  <Min_dist>
999.9

>  <Avg_dist>
999.9

$$$$
11-30
  Cerius2 12110214513D 1   1.00000                          
 
 44 47  0  0  0  0  0  0  0  0999 V2000
    0.3409    0.2064   -0.0331 C   0  0  0  0  0  0
    0.9642   -1.0410   -0.0633 C   0  0  0  0  0  0
    2.2802   -1.0917   -0.0535 N   0  0  0  0  0  0
    3.0162    0.0077   -0.0159 C   0  0  0  0  0  0
    1.7665    1.2852    0.0099 S   0  0  0  0  0  0
    4.4877    0.1436    0.0010 C   0  0  0  0  0  0
    5.2972   -0.9935   -0.0246 C   0  0  0  0  0  0
    6.6699   -0.8598   -0.0091 C   0  0  0  0  0  0
    7.2459    0.3979    0.0317 C   0  0  0  0  0  0
    6.4508    1.5293    0.0572 C   0  0  0  0  0  0
    5.0750    1.4104    0.0368 C   0  0  0  0  0  0
    4.0780    2.8312    0.0689 Cl  0  0  0  0  0  0
    0.1612   -2.2853   -0.1052 C   0  0  0  0  0  0
    0.5680   -3.3544   -0.9036 C   0  0  0  0  0  0
   -0.1828   -4.5114   -0.9391 C   0  0  0  0  0  0
   -1.3378   -4.6138   -0.1848 C   0  0  0  0  0  0
   -1.7480   -3.5561    0.6105 C   0  0  0  0  0  0
   -1.0006   -2.3942    0.6576 C   0  0  0  0  0  0
   -2.8770   -3.6623    1.3448 F   0  0  0  0  0  0
   -1.0961    0.5427   -0.0409 C   0  0  0  0  0  0
   -1.5776    1.5832    0.7571 C   0  0  0  0  0  0
   -2.9218    1.8923    0.7444 C   0  0  0  0  0  0
   -3.7927    1.1742   -0.0560 C   0  0  0  0  0  0
   -3.3227    0.1422   -0.8491 C   0  0  0  0  0  0
   -1.9802   -0.1741   -0.8508 C   0  0  0  0  0  0
   -5.5084    1.5754   -0.0649 S   0  0  0  0  0  0
   -6.1175    0.3460   -0.4349 O   0  0  0  0  0  0
   -5.7022    2.1587    1.2163 O   0  0  0  0  0  0
   -5.6372    2.8099   -1.3878 C   0  0  0  0  0  0
    4.8495   -1.9758   -0.0560 H   0  0  0  0  0  0
    7.2969   -1.7390   -0.0285 H   0  0  0  0  0  0
    8.3214    0.4964    0.0440 H   0  0  0  0  0  0
    6.9068    2.5078    0.0893 H   0  0  0  0  0  0
    1.4693   -3.2764   -1.4935 H   0  0  0  0  0  0
    0.1319   -5.3390   -1.5575 H   0  0  0  0  0  0
   -1.9222   -5.5215   -0.2163 H   0  0  0  0  0  0
   -1.3201   -1.5698    1.2779 H   0  0  0  0  0  0
   -0.8991    2.1440    1.3829 H   0  0  0  0  0  0
   -3.2954    2.6965    1.3609 H   0  0  0  0  0  0
   -4.0081   -0.4143   -1.4711 H   0  0  0  0  0  0
   -1.6146   -0.9795   -1.4705 H   0  0  0  0  0  0
   -6.6736    3.1339   -1.4828 H   0  0  0  0  0  0
   -5.0091    3.6676   -1.1468 H   0  0  0  0  0  0
   -5.3063    2.3701   -2.3286 H   0  0  0  0  0  0
  1  2  2  0  0  0
  1  5  1  0  0  0
  1 20  1  0  0  0
  2  3  1  0  0  0
  2 13  1  0  0  0
  3  4  2  0  0  0
  4  5  1  0  0  0
  4  6  1  0  0  0
  6  7  1  0  0  0
  6 11  2  0  0  0
  7  8  2  0  0  0
  7 30  1  0  0  0
  8  9  1  0  0  0
  8 31  1  0  0  0
  9 10  2  0  0  0
  9 32  1  0  0  0
 10 11  1  0  0  0
 10 33  1  0  0  0
 11 12  1  0  0  0
 13 14  1  0  0  0
 13 18  2  0  0  0
 14 15  2  0  0  0
 14 34  1  0  0  0
 15 16  1  0  0  0
 15 35  1  0  0  0
 16 17  2  0  0  0
 16 36  1  0  0  0
 17 18  1  0  0  0
 17 19  1  0  0  0
 18 37  1  0  0  0
 20 21  1  0  0  0
 20 25  2  0  0  0
 21 22  2  0  0  0
 21 38  1  0  0  0
 22 23  1  0  0  0
 22 39  1  0  0  0
 23 24  2  0  0  0
 23 26  1  0  0  0
 24 25  1  0  0  0
 24 40  1  0  0  0
 25 41  1  0  0  0
 26 27  2  0  0  0
 26 28  2  0  0  0
 26 29  1  0  0  0
 29 42  1  0  0  0
 29 43  1  0  0  0
 29 44  1  0  0  0
M  END
>  <Activity>
7.79588

>  <set>
1

>  <Min_dist>
999.9

>  <Avg_dist>
999.9

$$$$
11-32
  Cerius2 12110214513D 1   1.00000                          
 
 44 47  0  0  0  0  0  0  0  0999 V2000
    0.3687    0.3348   -0.0421 C   0  0  0  0  0  0
    0.9752   -0.9211   -0.0345 C   0  0  0  0  0  0
    2.2903   -0.9892   -0.0309 N   0  0  0  0  0  0
    3.0412    0.1011   -0.0343 C   0  0  0  0  0  0
    1.8086    1.3953   -0.0437 S   0  0  0  0  0  0
    4.5144    0.2176   -0.0303 C   0  0  0  0  0  0
    5.3086   -0.9304   -0.0222 C   0  0  0  0  0  0
    6.6830   -0.8147   -0.0185 C   0  0  0  0  0  0
    7.2759    0.4358   -0.0223 C   0  0  0  0  0  0
    6.4960    1.5780   -0.0299 C   0  0  0  0  0  0
    5.1186    1.4770   -0.0404 C   0  0  0  0  0  0
    4.1407    2.9113   -0.0505 Cl  0  0  0  0  0  0
    0.1556   -2.1552   -0.0300 C   0  0  0  0  0  0
    0.5429   -3.2553   -0.7945 C   0  0  0  0  0  0
   -0.2233   -4.4024   -0.7868 C   0  0  0  0  0  0
   -1.3769   -4.4641   -0.0211 C   0  0  0  0  0  0
   -1.7678   -3.3751    0.7402 C   0  0  0  0  0  0
   -1.0047   -2.2230    0.7444 C   0  0  0  0  0  0
   -1.3861   -1.1608    1.4871 F   0  0  0  0  0  0
   -2.1230   -5.5903   -0.0178 F   0  0  0  0  0  0
   -1.0636    0.6899   -0.0526 C   0  0  0  0  0  0
   -1.5263    1.7628    0.7133 C   0  0  0  0  0  0
   -2.8663    2.0890    0.6987 C   0  0  0  0  0  0
   -3.7519    1.3561   -0.0717 C   0  0  0  0  0  0
   -3.3006    0.2921   -0.8328 C   0  0  0  0  0  0
   -1.9623   -0.0416   -0.8328 C   0  0  0  0  0  0
   -5.4622    1.7793   -0.0832 S   0  0  0  0  0  0
   -6.0897    0.5464   -0.4080 O   0  0  0  0  0  0
   -5.6398    2.4075    1.1789 O   0  0  0  0  0  0
   -5.5840    2.9706   -1.4458 C   0  0  0  0  0  0
    4.8478   -1.9072   -0.0185 H   0  0  0  0  0  0
    7.2982   -1.7024   -0.0122 H   0  0  0  0  0  0
    8.3525    0.5202   -0.0190 H   0  0  0  0  0  0
    6.9650    2.5508   -0.0324 H   0  0  0  0  0  0
    1.4413   -3.2091   -1.3920 H   0  0  0  0  0  0
    0.0764   -5.2543   -1.3791 H   0  0  0  0  0  0
   -2.6678   -3.4280    1.3349 H   0  0  0  0  0  0
   -0.8363    2.3352    1.3156 H   0  0  0  0  0  0
   -3.2254    2.9181    1.2903 H   0  0  0  0  0  0
   -3.9974   -0.2756   -1.4318 H   0  0  0  0  0  0
   -1.6116   -0.8722   -1.4272 H   0  0  0  0  0  0
   -6.6167    3.3048   -1.5451 H   0  0  0  0  0  0
   -4.9432    3.8274   -1.2377 H   0  0  0  0  0  0
   -5.2652    2.4953   -2.3735 H   0  0  0  0  0  0
  1  2  2  0  0  0
  1  5  1  0  0  0
  1 21  1  0  0  0
  2  3  1  0  0  0
  2 13  1  0  0  0
  3  4  2  0  0  0
  4  5  1  0  0  0
  4  6  1  0  0  0
  6  7  1  0  0  0
  6 11  2  0  0  0
  7  8  2  0  0  0
  7 31  1  0  0  0
  8  9  1  0  0  0
  8 32  1  0  0  0
  9 10  2  0  0  0
  9 33  1  0  0  0
 10 11  1  0  0  0
 10 34  1  0  0  0
 11 12  1  0  0  0
 13 14  1  0  0  0
 13 18  2  0  0  0
 14 15  2  0  0  0
 14 35  1  0  0  0
 15 16  1  0  0  0
 15 36  1  0  0  0
 16 17  2  0  0  0
 16 20  1  0  0  0
 17 18  1  0  0  0
 17 37  1  0  0  0
 18 19  1  0  0  0
 21 22  1  0  0  0
 21 26  2  0  0  0
 22 23  2  0  0  0
 22 38  1  0  0  0
 23 24  1  0  0  0
 23 39  1  0  0  0
 24 25  2  0  0  0
 24 27  1  0  0  0
 25 26  1  0  0  0
 25 40  1  0  0  0
 26 41  1  0  0  0
 27 28  2  0  0  0
 27 29  2  0  0  0
 27 30  1  0  0  0
 30 42  1  0  0  0
 30 43  1  0  0  0
 30 44  1  0  0  0
M  END
>  <Activity>
7.67778

>  <set>
1

>  <Min_dist>
999.9

>  <Avg_dist>
999.9

$$$$
12-3A
  Cerius2 12110214513D 1   1.00000                          
 
 43 46  0  0  0  0  0  0  0  0999 V2000
    0.3295    0.2845    0.0149 C   0  0  0  0  0  0
    0.9521   -0.9634    0.0376 C   0  0  0  0  0  0
    2.2680   -1.0146    0.0332 N   0  0  0  0  0  0
    3.0047    0.0848    0.0078 C   0  0  0  0  0  0
    1.7556    1.3630   -0.0129 S   0  0  0  0  0  0
    4.4763    0.2202   -0.0011 C   0  0  0  0  0  0
    5.2852   -0.9174    0.0181 C   0  0  0  0  0  0
    6.6580   -0.7842    0.0092 C   0  0  0  0  0  0
    7.2348    0.4735   -0.0187 C   0  0  0  0  0  0
    6.4402    1.6054   -0.0373 C   0  0  0  0  0  0
    5.0642    1.4868   -0.0345 C   0  0  0  0  0  0
    4.0680    2.9083   -0.0579 Cl  0  0  0  0  0  0
    0.1484   -2.2076    0.0667 C   0  0  0  0  0  0
    0.5449   -3.3143   -0.6838 C   0  0  0  0  0  0
   -0.2069   -4.4706   -0.6535 C   0  0  0  0  0  0
   -1.3544   -4.5334    0.1205 C   0  0  0  0  0  0
   -1.7527   -3.4365    0.8675 C   0  0  0  0  0  0
   -1.0040   -2.2779    0.8490 C   0  0  0  0  0  0
   -2.0876   -5.6679    0.1466 F   0  0  0  0  0  0
   -1.1074    0.6211    0.0090 C   0  0  0  0  0  0
   -1.5786    1.6996    0.7615 C   0  0  0  0  0  0
   -2.9228    2.0085    0.7512 C   0  0  0  0  0  0
   -3.8040    1.2526   -0.0018 C   0  0  0  0  0  0
   -3.3444    0.1826   -0.7492 C   0  0  0  0  0  0
   -2.0019   -0.1337   -0.7537 C   0  0  0  0  0  0
   -5.5196    1.6542   -0.0084 S   0  0  0  0  0  0
   -6.1936    0.4625   -0.3890 O   0  0  0  0  0  0
   -5.7503    2.3827    1.1896 O   0  0  0  0  0  0
   -5.7720    2.7279   -1.2436 N   0  0  0  0  0  0
    4.8370   -1.8998    0.0402 H   0  0  0  0  0  0
    7.2846   -1.6638    0.0243 H   0  0  0  0  0  0
    8.3103    0.5716   -0.0255 H   0  0  0  0  0  0
    6.8967    2.5840   -0.0587 H   0  0  0  0  0  0
    1.4388   -3.2660   -1.2880 H   0  0  0  0  0  0
    0.0993   -5.3281   -1.2343 H   0  0  0  0  0  0
   -2.6481   -3.4902    1.4690 H   0  0  0  0  0  0
   -1.3151   -1.4236    1.4318 H   0  0  0  0  0  0
   -0.8920    2.2900    1.3502 H   0  0  0  0  0  0
   -3.2885    2.8420    1.3325 H   0  0  0  0  0  0
   -4.0379   -0.4035   -1.3340 H   0  0  0  0  0  0
   -1.6445   -0.9691   -1.3375 H   0  0  0  0  0  0
   -6.6630    3.0724   -1.4124 H   0  0  0  0  0  0
   -5.0289    3.0124   -1.7984 H   0  0  0  0  0  0
  1  2  2  0  0  0
  1  5  1  0  0  0
  1 20  1  0  0  0
  2  3  1  0  0  0
  2 13  1  0  0  0
  3  4  2  0  0  0
  4  5  1  0  0  0
  4  6  1  0  0  0
  6  7  1  0  0  0
  6 11  2  0  0  0
  7  8  2  0  0  0
  7 30  1  0  0  0
  8  9  1  0  0  0
  8 31  1  0  0  0
  9 10  2  0  0  0
  9 32  1  0  0  0
 10 11  1  0  0  0
 10 33  1  0  0  0
 11 12  1  0  0  0
 13 14  1  0  0  0
 13 18  2  0  0  0
 14 15  2  0  0  0
 14 34  1  0  0  0
 15 16  1  0  0  0
 15 35  1  0  0  0
 16 17  2  0  0  0
 16 19  1  0  0  0
 17 18  1  0  0  0
 17 36  1  0  0  0
 18 37  1  0  0  0
 20 21  1  0  0  0
 20 25  2  0  0  0
 21 22  2  0  0  0
 21 38  1  0  0  0
 22 23  1  0  0  0
 22 39  1  0  0  0
 23 24  2  0  0  0
 23 26  1  0  0  0
 24 25  1  0  0  0
 24 40  1  0  0  0
 25 41  1  0  0  0
 26 27  2  0  0  0
 26 28  2  0  0  0
 26 29  1  0  0  0
 29 42  1  0  0  0
 29 43  1  0  0  0
M  END
>  <Activity>
7.88606

>  <set>
1

>  <Min_dist>
999.9

>  <Avg_dist>
999.9

$$$$
12-5A
  Cerius2 12110214513D 1   1.00000                          
 
 36 38  0  0  0  0  0  0  0  0999 V2000
   -1.5407    0.9929    0.0161 C   0  0  0  0  0  0
   -2.5818    0.0687   -0.0279 C   0  0  0  0  0  0
   -3.8148    0.5443   -0.0064 N   0  0  0  0  0  0
   -4.0565    1.8310    0.0537 C   0  0  0  0  0  0
   -2.4640    2.5211    0.0871 S   0  0  0  0  0  0
   -5.3876    2.5369    0.0852 C   0  0  0  0  0  0
   -2.3181   -1.3872   -0.0965 C   0  0  0  0  0  0
   -3.1066   -2.2768    0.6330 C   0  0  0  0  0  0
   -2.8563   -3.6320    0.5647 C   0  0  0  0  0  0
   -1.8253   -4.1089   -0.2250 C   0  0  0  0  0  0
   -1.0396   -3.2315   -0.9509 C   0  0  0  0  0  0
   -1.2838   -1.8746   -0.8953 C   0  0  0  0  0  0
   -0.0809    0.7712    0.0118 C   0  0  0  0  0  0
    0.7548    1.6169   -0.7209 C   0  0  0  0  0  0
    2.1177    1.4043   -0.7200 C   0  0  0  0  0  0
    2.6572    0.3561    0.0044 C   0  0  0  0  0  0
    1.8351   -0.4856    0.7326 C   0  0  0  0  0  0
    0.4709   -0.2815    0.7449 C   0  0  0  0  0  0
    4.3993    0.0916   -0.0007 S   0  0  0  0  0  0
    4.5834   -1.2746    0.3441 O   0  0  0  0  0  0
    4.8807    0.7133   -1.1844 O   0  0  0  0  0  0
    5.0359    0.9625    1.2557 N   0  0  0  0  0  0
   -5.7096    2.6592    1.1194 H   0  0  0  0  0  0
   -5.2907    3.5162   -0.3834 H   0  0  0  0  0  0
   -6.1252    1.9457   -0.4575 H   0  0  0  0  0  0
   -3.9113   -1.9056    1.2504 H   0  0  0  0  0  0
   -3.4662   -4.3218    1.1290 H   0  0  0  0  0  0
   -1.6328   -5.1704   -0.2748 H   0  0  0  0  0  0
   -0.2362   -3.6097   -1.5656 H   0  0  0  0  0  0
   -0.6698   -1.1906   -1.4624 H   0  0  0  0  0  0
    0.3350    2.4351   -1.2870 H   0  0  0  0  0  0
    2.7652    2.0573   -1.2865 H   0  0  0  0  0  0
    2.2628   -1.3018    1.2958 H   0  0  0  0  0  0
   -0.1696   -0.9390    1.3140 H   0  0  0  0  0  0
    5.9915    0.9470    1.4215 H   0  0  0  0  0  0
    4.4532    1.4881    1.8259 H   0  0  0  0  0  0
  1  2  2  0  0  0
  1  5  1  0  0  0
  1 13  1  0  0  0
  2  3  1  0  0  0
  2  7  1  0  0  0
  3  4  2  0  0  0
  4  5  1  0  0  0
  4  6  1  0  0  0
  6 23  1  0  0  0
  6 24  1  0  0  0
  6 25  1  0  0  0
  7  8  1  0  0  0
  7 12  2  0  0  0
  8  9  2  0  0  0
  8 26  1  0  0  0
  9 10  1  0  0  0
  9 27  1  0  0  0
 10 11  2  0  0  0
 10 28  1  0  0  0
 11 12  1  0  0  0
 11 29  1  0  0  0
 12 30  1  0  0  0
 13 14  1  0  0  0
 13 18  2  0  0  0
 14 15  2  0  0  0
 14 31  1  0  0  0
 15 16  1  0  0  0
 15 32  1  0  0  0
 16 17  2  0  0  0
 16 19  1  0  0  0
 17 18  1  0  0  0
 17 33  1  0  0  0
 18 34  1  0  0  0
 19 20  2  0  0  0
 19 21  2  0  0  0
 19 22  1  0  0  0
 22 35  1  0  0  0
 22 36  1  0  0  0
M  END
>  <Activity>
7.42022

>  <set>
1

>  <Min_dist>
999.9

>  <Avg_dist>
999.9

$$$$
12-5B
  Cerius2 12110214513D 1   1.00000                          
 
 36 38  0  0  0  0  0  0  0  0999 V2000
   -1.0688    1.7881    0.0075 C   0  0  0  0  0  0
   -2.2708    1.0848   -0.0103 C   0  0  0  0  0  0
   -3.3867    1.7928    0.0013 N   0  0  0  0  0  0
   -3.3716    3.1031    0.0284 C   0  0  0  0  0  0
   -1.6748    3.4688    0.0406 S   0  0  0  0  0  0
   -4.5387    4.0564    0.0445 C   0  0  0  0  0  0
   -2.2974   -0.3959   -0.0414 C   0  0  0  0  0  0
   -3.2396   -1.0951    0.7127 C   0  0  0  0  0  0
   -3.2598   -2.4742    0.6800 C   0  0  0  0  0  0
   -2.3467   -3.1642   -0.0993 C   0  0  0  0  0  0
   -1.4089   -2.4752   -0.8496 C   0  0  0  0  0  0
   -1.3839   -1.0959   -0.8295 C   0  0  0  0  0  0
   -2.3775   -4.8995   -0.1353 Cl  0  0  0  0  0  0
    0.3194    1.2850    0.0060 C   0  0  0  0  0  0
    1.2991    1.9320   -0.7501 C   0  0  0  0  0  0
    2.5941    1.4569   -0.7465 C   0  0  0  0  0  0
    2.9232    0.3417    0.0036 C   0  0  0  0  0  0
    1.9574   -0.3046    0.7547 C   0  0  0  0  0  0
    0.6598    0.1634    0.7652 C   0  0  0  0  0  0
    4.5798   -0.2587    0.0018 S   0  0  0  0  0  0
    4.4955   -1.6255    0.3811 O   0  0  0  0  0  0
    5.1652    0.2272   -1.1984 O   0  0  0  0  0  0
    5.3832    0.5016    1.2342 N   0  0  0  0  0  0
   -4.8230    4.2653    1.0759 H   0  0  0  0  0  0
   -4.2556    4.9857   -0.4497 H   0  0  0  0  0  0
   -5.3817    3.6076   -0.4809 H   0  0  0  0  0  0
   -3.9518   -0.5579    1.3215 H   0  0  0  0  0  0
   -3.9890   -3.0165    1.2636 H   0  0  0  0  0  0
   -0.6985   -3.0184   -1.4551 H   0  0  0  0  0  0
   -0.6523   -0.5595   -1.4154 H   0  0  0  0  0  0
    1.0435    2.8021   -1.3366 H   0  0  0  0  0  0
    3.3528    1.9563   -1.3308 H   0  0  0  0  0  0
    2.2210   -1.1747    1.3375 H   0  0  0  0  0  0
   -0.0930   -0.3417    1.3522 H   0  0  0  0  0  0
    6.3185    0.3035    1.3984 H   0  0  0  0  0  0
    4.9186    1.1450    1.7919 H   0  0  0  0  0  0
  1  2  2  0  0  0
  1  5  1  0  0  0
  1 14  1  0  0  0
  2  3  1  0  0  0
  2  7  1  0  0  0
  3  4  2  0  0  0
  4  5  1  0  0  0
  4  6  1  0  0  0
  6 24  1  0  0  0
  6 25  1  0  0  0
  6 26  1  0  0  0
  7  8  1  0  0  0
  7 12  2  0  0  0
  8  9  2  0  0  0
  8 27  1  0  0  0
  9 10  1  0  0  0
  9 28  1  0  0  0
 10 11  2  0  0  0
 10 13  1  0  0  0
 11 12  1  0  0  0
 11 29  1  0  0  0
 12 30  1  0  0  0
 14 15  1  0  0  0
 14 19  2  0  0  0
 15 16  2  0  0  0
 15 31  1  0  0  0
 16 17  1  0  0  0
 16 32  1  0  0  0
 17 18  2  0  0  0
 17 20  1  0  0  0
 18 19  1  0  0  0
 18 33  1  0  0  0
 19 34  1  0  0  0
 20 21  2  0  0  0
 20 22  2  0  0  0
 20 23  1  0  0  0
 23 35  1  0  0  0
 23 36  1  0  0  0
M  END
>  <Activity>
8.30103

>  <set>
1

>  <Min_dist>
999.9

>  <Avg_dist>
999.9

$$$$
11-33
  Cerius2 12110214513D 1   1.00000                          
 
 43 46  0  0  0  0  0  0  0  0999 V2000
   -0.1513   -0.7272   -0.9729 C   0  0  0  0  0  0
    0.6529   -1.0441    0.3077 C   0  0  0  0  0  0
    1.7901   -0.1703    0.4842 N   0  0  0  0  0  0
    2.0742    0.7681   -0.3622 C   0  0  0  0  0  0
    0.8264    0.6788   -1.6307 S   0  0  0  0  0  0
    3.2050    1.7206   -0.2901 C   0  0  0  0  0  0
    3.3765    2.6810   -1.2871 C   0  0  0  0  0  0
    4.4322    3.5659   -1.2145 C   0  0  0  0  0  0
    5.3212    3.5026   -0.1558 C   0  0  0  0  0  0
    5.1578    2.5534    0.8362 C   0  0  0  0  0  0
    4.1009    1.6652    0.7786 C   0  0  0  0  0  0
    3.8966    0.4738    2.0245 Cl  0  0  0  0  0  0
    1.1401   -2.4684    0.2362 C   0  0  0  0  0  0
    0.8834   -3.5015    1.0753 C   0  0  0  0  0  0
    1.4446   -4.7364    0.8094 C   0  0  0  0  0  0
    2.2349   -4.8778   -0.2827 C   0  0  0  0  0  0
    2.1987   -3.2347   -0.9800 S   0  0  0  0  0  0
   -1.5603   -0.3063   -0.6433 C   0  0  0  0  0  0
   -2.6305   -1.0354   -1.1272 C   0  0  0  0  0  0
   -3.9229   -0.6493   -0.8249 C   0  0  0  0  0  0
   -4.1452    0.4656   -0.0384 C   0  0  0  0  0  0
   -3.0750    1.1941    0.4462 C   0  0  0  0  0  0
   -1.7825    0.8055    0.1475 C   0  0  0  0  0  0
   -5.7927    0.9583    0.3459 S   0  0  0  0  0  0
   -5.6587    2.3545    0.5743 O   0  0  0  0  0  0
   -6.5394    0.4401   -0.7463 O   0  0  0  0  0  0
   -6.1448    0.0605    1.8823 C   0  0  0  0  0  0
   -0.1443   -1.5708   -1.6630 H   0  0  0  0  0  0
   -0.0055   -0.9435    1.1705 H   0  0  0  0  0  0
    2.6842    2.7315   -2.1144 H   0  0  0  0  0  0
    4.5656    4.3097   -1.9861 H   0  0  0  0  0  0
    6.1464    4.1974   -0.1044 H   0  0  0  0  0  0
    5.8549    2.5090    1.6599 H   0  0  0  0  0  0
    0.2502   -3.3617    1.9390 H   0  0  0  0  0  0
    1.2564   -5.5759    1.4622 H   0  0  0  0  0  0
    2.7497   -5.7573   -0.6404 H   0  0  0  0  0  0
   -2.4568   -1.9064   -1.7416 H   0  0  0  0  0  0
   -4.7590   -1.2185   -1.2035 H   0  0  0  0  0  0
   -3.2487    2.0653    1.0604 H   0  0  0  0  0  0
   -0.9464    1.3747    0.5261 H   0  0  0  0  0  0
   -7.1555    0.2948    2.2166 H   0  0  0  0  0  0
   -6.0604   -1.0115    1.7041 H   0  0  0  0  0  0
   -5.4301    0.3587    2.6493 H   0  0  0  0  0  0
  1  2  1  0  0  0
  1  5  1  0  0  0
  1 18  1  0  0  0
  1 28  1  0  0  0
  2  3  1  0  0  0
  2 13  1  0  0  0
  2 29  1  0  0  0
  3  4  2  0  0  0
  4  5  1  0  0  0
  4  6  1  0  0  0
  6  7  1  0  0  0
  6 11  2  0  0  0
  7  8  2  0  0  0
  7 30  1  0  0  0
  8  9  1  0  0  0
  8 31  1  0  0  0
  9 10  2  0  0  0
  9 32  1  0  0  0
 10 11  1  0  0  0
 10 33  1  0  0  0
 11 12  1  0  0  0
 13 14  2  0  0  0
 13 17  1  0  0  0
 14 15  1  0  0  0
 14 34  1  0  0  0
 15 16  2  0  0  0
 15 35  1  0  0  0
 16 17  1  0  0  0
 16 36  1  0  0  0
 18 19  1  0  0  0
 18 23  2  0  0  0
 19 20  2  0  0  0
 19 37  1  0  0  0
 20 21  1  0  0  0
 20 38  1  0  0  0
 21 22  2  0  0  0
 21 24  1  0  0  0
 22 23  1  0  0  0
 22 39  1  0  0  0
 23 40  1  0  0  0
 24 25  2  0  0  0
 24 26  2  0  0  0
 24 27  1  0  0  0
 27 41  1  0  0  0
 27 42  1  0  0  0
 27 43  1  0  0  0
M  END
>  <Activity>
7.24413

>  <set>
1

>  <Min_dist>
999.9

>  <Avg_dist>
999.9

$$$$
13-7C
  Cerius2 12110214513D 1   1.00000                          
 
 44 46  0  0  0  0  0  0  0  0999 V2000
    0.9025   -3.9245    0.0115 C   0  0  0  0  0  0
    0.5699   -3.2071   -1.1260 C   0  0  0  0  0  0
    0.7721   -1.8427   -1.1673 C   0  0  0  0  0  0
    1.3112   -1.1866   -0.0625 C   0  0  0  0  0  0
    1.6439   -1.9121    1.0797 C   0  0  0  0  0  0
    1.4388   -3.2763    1.1121 C   0  0  0  0  0  0
    1.5309    0.2804   -0.1024 C   0  0  0  0  0  0
    0.5246    1.2788   -0.1089 C   0  0  0  0  0  0
    1.1204    2.4505   -0.1478 N   0  0  0  0  0  0
    2.5047    2.2426   -0.1671 N   0  0  0  0  0  0
    2.7367    0.9140   -0.1335 C   0  0  0  0  0  0
    4.0889    0.2488   -0.1393 C   0  0  0  0  0  0
    5.0234    1.0864    0.4792 F   0  0  0  0  0  0
    4.0157   -0.9625    0.5569 F   0  0  0  0  0  0
    4.4831    0.0049   -1.4593 F   0  0  0  0  0  0
    3.5279    3.2901   -0.2113 C   0  0  0  0  0  0
    3.9101    3.6902    1.2151 C   0  0  0  0  0  0
   -0.9394    1.0438   -0.0778 C   0  0  0  0  0  0
   -1.4723    0.0591    0.7522 C   0  0  0  0  0  0
   -2.8355   -0.1549    0.7773 C   0  0  0  0  0  0
   -3.6724    0.6055   -0.0195 C   0  0  0  0  0  0
   -3.1490    1.5841   -0.8451 C   0  0  0  0  0  0
   -1.7880    1.8107   -0.8742 C   0  0  0  0  0  0
   -5.4117    0.3259    0.0170 S   0  0  0  0  0  0
   -5.8288    0.7677   -1.2675 O   0  0  0  0  0  0
   -5.5037   -1.0354    0.4141 O   0  0  0  0  0  0
   -5.9826    1.4441    1.3263 C   0  0  0  0  0  0
    0.6981   -5.2594    0.0495 F   0  0  0  0  0  0
    0.1521   -3.7164   -1.9818 H   0  0  0  0  0  0
    0.5132   -1.2842   -2.0547 H   0  0  0  0  0  0
    2.0623   -1.4076    1.9381 H   0  0  0  0  0  0
    1.6963   -3.8394    1.9969 H   0  0  0  0  0  0
    4.4092    2.9155   -0.7320 H   0  0  0  0  0  0
    3.1357    4.1591   -0.7397 H   0  0  0  0  0  0
    4.6714    4.4696    1.1823 H   0  0  0  0  0  0
    3.0289    4.0648    1.7359 H   0  0  0  0  0  0
    4.3023    2.8213    1.7435 H   0  0  0  0  0  0
   -0.8197   -0.5356    1.3742 H   0  0  0  0  0  0
   -3.2495   -0.9176    1.4201 H   0  0  0  0  0  0
   -3.8071    2.1748   -1.4651 H   0  0  0  0  0  0
   -1.3804    2.5753   -1.5190 H   0  0  0  0  0  0
   -7.0631    1.3524    1.4369 H   0  0  0  0  0  0
   -5.4975    1.1806    2.2662 H   0  0  0  0  0  0
   -5.7302    2.4711    1.0626 H   0  0  0  0  0  0
  1  2  1  0  0  0
  1  6  2  0  0  0
  1 28  1  0  0  0
  2  3  2  0  0  0
  2 29  1  0  0  0
  3  4  1  0  0  0
  3 30  1  0  0  0
  4  5  2  0  0  0
  4  7  1  0  0  0
  5  6  1  0  0  0
  5 31  1  0  0  0
  6 32  1  0  0  0
  7  8  1  0  0  0
  7 11  2  0  0  0
  8  9  2  0  0  0
  8 18  1  0  0  0
  9 10  1  0  0  0
 10 11  1  0  0  0
 10 16  1  0  0  0
 11 12  1  0  0  0
 12 13  1  0  0  0
 12 14  1  0  0  0
 12 15  1  0  0  0
 16 17  1  0  0  0
 16 33  1  0  0  0
 16 34  1  0  0  0
 17 35  1  0  0  0
 17 36  1  0  0  0
 17 37  1  0  0  0
 18 19  1  0  0  0
 18 23  2  0  0  0
 19 20  2  0  0  0
 19 38  1  0  0  0
 20 21  1  0  0  0
 20 39  1  0  0  0
 21 22  2  0  0  0
 21 24  1  0  0  0
 22 23  1  0  0  0
 22 40  1  0  0  0
 23 41  1  0  0  0
 24 25  2  0  0  0
 24 26  2  0  0  0
 24 27  1  0  0  0
 27 42  1  0  0  0
 27 43  1  0  0  0
 27 44  1  0  0  0
M  END
>  <Activity>
6.88606

>  <set>
1

>  <Min_dist>
999.9

>  <Avg_dist>
999.9

$$$$
13-10
  Cerius2 12110214513D 1   1.00000                          
 
 43 45  0  0  0  0  0  0  0  0999 V2000
    0.9305   -3.9248   -0.0025 C   0  0  0  0  0  0
    0.5984   -3.2042   -1.1381 C   0  0  0  0  0  0
    0.7989   -1.8394   -1.1748 C   0  0  0  0  0  0
    1.3357   -1.1861   -0.0672 C   0  0  0  0  0  0
    1.6679   -1.9148    1.0731 C   0  0  0  0  0  0
    1.4645   -3.2794    1.1009 C   0  0  0  0  0  0
    1.5536    0.2812   -0.1022 C   0  0  0  0  0  0
    0.5461    1.2784   -0.1068 C   0  0  0  0  0  0
    1.1404    2.4510   -0.1412 N   0  0  0  0  0  0
    2.5250    2.2449   -0.1595 N   0  0  0  0  0  0
    2.7587    0.9165   -0.1298 C   0  0  0  0  0  0
    4.1117    0.2531   -0.1359 C   0  0  0  0  0  0
    5.0443    1.0899    0.4864 F   0  0  0  0  0  0
    4.0392   -0.9605    0.5564 F   0  0  0  0  0  0
    4.5079    0.0138   -1.4561 F   0  0  0  0  0  0
    3.5469    3.2939   -0.1990 C   0  0  0  0  0  0
    3.9267    3.6900    1.2292 C   0  0  0  0  0  0
   -0.9177    1.0414   -0.0784 C   0  0  0  0  0  0
   -1.4504    0.0534    0.7478 C   0  0  0  0  0  0
   -2.8133   -0.1624    0.7705 C   0  0  0  0  0  0
   -3.6502    0.5993   -0.0250 C   0  0  0  0  0  0
   -3.1270    1.5813   -0.8469 C   0  0  0  0  0  0
   -1.7662    1.8097   -0.8734 C   0  0  0  0  0  0
   -5.3892    0.3174    0.0084 S   0  0  0  0  0  0
   -5.8859    0.8226   -1.2234 O   0  0  0  0  0  0
   -5.5556   -1.0131    0.4787 O   0  0  0  0  0  0
   -6.0265    1.2934    1.1847 N   0  0  0  0  0  0
    0.7278   -5.2601    0.0311 F   0  0  0  0  0  0
    0.1824   -3.7113   -1.9961 H   0  0  0  0  0  0
    0.5404   -1.2785   -2.0608 H   0  0  0  0  0  0
    2.0845   -1.4125    1.9336 H   0  0  0  0  0  0
    1.7216   -3.8450    1.9843 H   0  0  0  0  0  0
    4.4293    2.9220   -0.7198 H   0  0  0  0  0  0
    3.1542    4.1640   -0.7251 H   0  0  0  0  0  0
    4.6870    4.4704    1.1997 H   0  0  0  0  0  0
    3.0443    4.0618    1.7500 H   0  0  0  0  0  0
    4.3194    2.8198    1.7553 H   0  0  0  0  0  0
   -0.7978   -0.5424    1.3687 H   0  0  0  0  0  0
   -3.2272   -0.9277    1.4103 H   0  0  0  0  0  0
   -3.7851    2.1731   -1.4658 H   0  0  0  0  0  0
   -1.3589    2.5769   -1.5153 H   0  0  0  0  0  0
   -6.9807    1.2833    1.3589 H   0  0  0  0  0  0
   -5.4456    1.8752    1.6995 H   0  0  0  0  0  0
  1  2  1  0  0  0
  1  6  2  0  0  0
  1 28  1  0  0  0
  2  3  2  0  0  0
  2 29  1  0  0  0
  3  4  1  0  0  0
  3 30  1  0  0  0
  4  5  2  0  0  0
  4  7  1  0  0  0
  5  6  1  0  0  0
  5 31  1  0  0  0
  6 32  1  0  0  0
  7  8  1  0  0  0
  7 11  2  0  0  0
  8  9  2  0  0  0
  8 18  1  0  0  0
  9 10  1  0  0  0
 10 11  1  0  0  0
 10 16  1  0  0  0
 11 12  1  0  0  0
 12 13  1  0  0  0
 12 14  1  0  0  0
 12 15  1  0  0  0
 16 17  1  0  0  0
 16 33  1  0  0  0
 16 34  1  0  0  0
 17 35  1  0  0  0
 17 36  1  0  0  0
 17 37  1  0  0  0
 18 19  1  0  0  0
 18 23  2  0  0  0
 19 20  2  0  0  0
 19 38  1  0  0  0
 20 21  1  0  0  0
 20 39  1  0  0  0
 21 22  2  0  0  0
 21 24  1  0  0  0
 22 23  1  0  0  0
 22 40  1  0  0  0
 23 41  1  0  0  0
 24 25  2  0  0  0
 24 26  2  0  0  0
 24 27  1  0  0  0
 27 42  1  0  0  0
 27 43  1  0  0  0
M  END
>  <Activity>
7.48149

>  <set>
1

>  <Min_dist>
999.9

>  <Avg_dist>
999.9

$$$$
14-7
  Cerius2 12110214513D 1   1.00000                          
 
 41 44  0  0  0  0  0  0  0  0999 V2000
    2.0136   -0.2325    0.0154 C   0  0  0  0  0  0
    1.0825   -1.2332   -0.0161 C   0  0  0  0  0  0
    1.7040   -2.4278   -0.0495 O   0  0  0  0  0  0
    3.0449   -2.2795   -0.0419 C   0  0  0  0  0  0
    3.3238   -0.9038   -0.0010 C   0  0  0  0  0  0
    4.6434   -0.4558    0.0153 C   0  0  0  0  0  0
    5.6733   -1.3704   -0.0089 C   0  0  0  0  0  0
    5.3994   -2.7299   -0.0498 C   0  0  0  0  0  0
    4.0984   -3.1853   -0.0662 C   0  0  0  0  0  0
   -0.3795   -1.0349   -0.0131 C   0  0  0  0  0  0
   -0.9631   -0.1020   -0.8739 C   0  0  0  0  0  0
   -2.3305    0.0777   -0.8660 C   0  0  0  0  0  0
   -3.1241   -0.6630   -0.0078 C   0  0  0  0  0  0
   -2.5530   -1.5888    0.8476 C   0  0  0  0  0  0
   -1.1875   -1.7833    0.8465 C   0  0  0  0  0  0
   -4.8700   -0.4258   -0.0039 S   0  0  0  0  0  0
   -5.2378   -0.8145    1.3126 O   0  0  0  0  0  0
   -5.0072    0.9122   -0.4622 O   0  0  0  0  0  0
   -5.4520   -1.6189   -1.2402 C   0  0  0  0  0  0
    1.7573    1.2249    0.0520 C   0  0  0  0  0  0
    1.1533    1.8016    1.1698 C   0  0  0  0  0  0
    0.9166    3.1602    1.1988 C   0  0  0  0  0  0
    1.2772    3.9519    0.1203 C   0  0  0  0  0  0
    1.8769    3.3841   -0.9924 C   0  0  0  0  0  0
    2.1240    2.0275   -1.0288 C   0  0  0  0  0  0
    1.0428    5.2820    0.1535 F   0  0  0  0  0  0
    4.8573    0.6023    0.0464 H   0  0  0  0  0  0
    6.6975   -1.0280    0.0036 H   0  0  0  0  0  0
    6.2140   -3.4388   -0.0689 H   0  0  0  0  0  0
    3.8979   -4.2460   -0.0975 H   0  0  0  0  0  0
   -0.3448    0.4773   -1.5437 H   0  0  0  0  0  0
   -2.7830    0.7985   -1.5309 H   0  0  0  0  0  0
   -3.1784   -2.1632    1.5149 H   0  0  0  0  0  0
   -0.7432   -2.5064    1.5144 H   0  0  0  0  0  0
   -6.5372   -1.5576   -1.3216 H   0  0  0  0  0  0
   -5.0017   -1.3900   -2.2061 H   0  0  0  0  0  0
   -5.1667   -2.6259   -0.9358 H   0  0  0  0  0  0
    0.8712    1.1853    2.0106 H   0  0  0  0  0  0
    0.4491    3.6076    2.0635 H   0  0  0  0  0  0
    2.1554    4.0054   -1.8307 H   0  0  0  0  0  0
    2.5919    1.5859   -1.8963 H   0  0  0  0  0  0
  1  2  2  0  0  0
  1  5  1  0  0  0
  1 20  1  0  0  0
  2  3  1  0  0  0
  2 10  1  0  0  0
  3  4  1  0  0  0
  4  5  2  0  0  0
  4  9  1  0  0  0
  5  6  1  0  0  0
  6  7  2  0  0  0
  6 27  1  0  0  0
  7  8  1  0  0  0
  7 28  1  0  0  0
  8  9  2  0  0  0
  8 29  1  0  0  0
  9 30  1  0  0  0
 10 11  1  0  0  0
 10 15  2  0  0  0
 11 12  2  0  0  0
 11 31  1  0  0  0
 12 13  1  0  0  0
 12 32  1  0  0  0
 13 14  2  0  0  0
 13 16  1  0  0  0
 14 15  1  0  0  0
 14 33  1  0  0  0
 15 34  1  0  0  0
 16 17  2  0  0  0
 16 18  2  0  0  0
 16 19  1  0  0  0
 19 35  1  0  0  0
 19 36  1  0  0  0
 19 37  1  0  0  0
 20 21  1  0  0  0
 20 25  2  0  0  0
 21 22  2  0  0  0
 21 38  1  0  0  0
 22 23  1  0  0  0
 22 39  1  0  0  0
 23 24  2  0  0  0
 23 26  1  0  0  0
 24 25  1  0  0  0
 24 40  1  0  0  0
 25 41  1  0  0  0
M  END
>  <Activity>
7.69897

>  <set>
1

>  <Min_dist>
999.9

>  <Avg_dist>
999.9

$$$$
14-13
  Cerius2 12110214513D 1   1.00000                          
 
 42 45  0  0  0  0  0  0  0  0999 V2000
    2.0347    0.3017    0.0083 C   0  0  0  0  0  0
    1.0906    1.2696   -0.0209 C   0  0  0  0  0  0
    1.7966    2.6048   -0.0542 C   0  0  0  0  0  0
    3.2721    2.2879   -0.0407 C   0  0  0  0  0  0
    3.3862    0.8971   -0.0031 C   0  0  0  0  0  0
    4.6573    0.3169    0.0177 C   0  0  0  0  0  0
    5.7796    1.1184    0.0010 C   0  0  0  0  0  0
    5.6542    2.4956   -0.0359 C   0  0  0  0  0  0
    4.3982    3.0786   -0.0577 C   0  0  0  0  0  0
   -0.3650    1.0597   -0.0202 C   0  0  0  0  0  0
   -1.1508    1.5856    1.0107 C   0  0  0  0  0  0
   -2.5149    1.3847    1.0038 C   0  0  0  0  0  0
   -3.1069    0.6646   -0.0192 C   0  0  0  0  0  0
   -2.3364    0.1410   -1.0429 C   0  0  0  0  0  0
   -0.9718    0.3379   -1.0535 C   0  0  0  0  0  0
   -4.8508    0.4126   -0.0182 S   0  0  0  0  0  0
   -5.0748   -0.7396   -0.8191 O   0  0  0  0  0  0
   -5.2624    0.5677    1.3330 O   0  0  0  0  0  0
   -5.5339    1.6747   -0.8444 N   0  0  0  0  0  0
    1.7531   -1.1503    0.0518 C   0  0  0  0  0  0
    2.2125   -1.9836   -0.9691 C   0  0  0  0  0  0
    1.9472   -3.3363   -0.9237 C   0  0  0  0  0  0
    1.2253   -3.8682    0.1331 C   0  0  0  0  0  0
    0.7664   -3.0450    1.1492 C   0  0  0  0  0  0
    1.0320   -1.6921    1.1169 C   0  0  0  0  0  0
    0.9677   -5.1938    0.1726 F   0  0  0  0  0  0
    1.5362    3.1455   -0.9641 H   0  0  0  0  0  0
    1.5301    3.1934    0.8235 H   0  0  0  0  0  0
    4.7606   -0.7577    0.0472 H   0  0  0  0  0  0
    6.7614    0.6685    0.0171 H   0  0  0  0  0  0
    6.5373    3.1171   -0.0485 H   0  0  0  0  0  0
    4.3025    4.1540   -0.0869 H   0  0  0  0  0  0
   -0.6902    2.1471    1.8100 H   0  0  0  0  0  0
   -3.1229    1.7901    1.7990 H   0  0  0  0  0  0
   -2.8058   -0.4198   -1.8376 H   0  0  0  0  0  0
   -0.3719   -0.0713   -1.8529 H   0  0  0  0  0  0
   -6.4967    1.7179   -0.9545 H   0  0  0  0  0  0
   -4.9713    2.3709   -1.2182 H   0  0  0  0  0  0
    2.7744   -1.5700   -1.7934 H   0  0  0  0  0  0
    2.3022   -3.9820   -1.7132 H   0  0  0  0  0  0
    0.2041   -3.4645    1.9703 H   0  0  0  0  0  0
    0.6742   -1.0515    1.9094 H   0  0  0  0  0  0
  1  2  2  0  0  0
  1  5  1  0  0  0
  1 20  1  0  0  0
  2  3  1  0  0  0
  2 10  1  0  0  0
  3  4  1  0  0  0
  3 27  1  0  0  0
  3 28  1  0  0  0
  4  5  1  0  0  0
  4  9  2  0  0  0
  5  6  2  0  0  0
  6  7  1  0  0  0
  6 29  1  0  0  0
  7  8  2  0  0  0
  7 30  1  0  0  0
  8  9  1  0  0  0
  8 31  1  0  0  0
  9 32  1  0  0  0
 10 11  1  0  0  0
 10 15  2  0  0  0
 11 12  2  0  0  0
 11 33  1  0  0  0
 12 13  1  0  0  0
 12 34  1  0  0  0
 13 14  2  0  0  0
 13 16  1  0  0  0
 14 15  1  0  0  0
 14 35  1  0  0  0
 15 36  1  0  0  0
 16 17  2  0  0  0
 16 18  2  0  0  0
 16 19  1  0  0  0
 19 37  1  0  0  0
 19 38  1  0  0  0
 20 21  1  0  0  0
 20 25  2  0  0  0
 21 22  2  0  0  0
 21 39  1  0  0  0
 22 23  1  0  0  0
 22 40  1  0  0  0
 23 24  2  0  0  0
 23 26  1  0  0  0
 24 25  1  0  0  0
 24 41  1  0  0  0
 25 42  1  0  0  0
M  END
>  <Activity>
8.30103

>  <set>
1

>  <Min_dist>
999.9

>  <Avg_dist>
999.9

$$$$
14-15
  Cerius2 12110214513D 1   1.00000                          
 
 44 47  0  0  0  0  0  0  0  0999 V2000
    1.9247    0.7197    0.0248 C   0  0  0  0  0  0
    0.9253    1.6525    0.0411 C   0  0  0  0  0  0
    1.4612    2.8886    0.0509 O   0  0  0  0  0  0
    2.8091    2.8350    0.0418 C   0  0  0  0  0  0
    3.1843    1.4818    0.0250 C   0  0  0  0  0  0
    4.5321    1.1278    0.0126 C   0  0  0  0  0  0
    5.4950    2.1130    0.0171 C   0  0  0  0  0  0
    5.1260    3.4503    0.0341 C   0  0  0  0  0  0
    3.7962    3.8131    0.0460 C   0  0  0  0  0  0
   -0.5190    1.3516    0.0463 C   0  0  0  0  0  0
   -1.0336    0.3957    0.9258 C   0  0  0  0  0  0
   -2.3849    0.1195    0.9250 C   0  0  0  0  0  0
   -3.2303    0.7863    0.0557 C   0  0  0  0  0  0
   -2.7276    1.7343   -0.8181 C   0  0  0  0  0  0
   -1.3794    2.0253   -0.8242 C   0  0  0  0  0  0
   -4.9551    0.4260    0.0611 S   0  0  0  0  0  0
   -5.4363    0.8228   -1.2158 O   0  0  0  0  0  0
   -5.0758   -0.8760    0.6174 O   0  0  0  0  0  0
   -5.6710    1.4485    1.1493 N   0  0  0  0  0  0
    1.7718   -0.7526    0.0155 C   0  0  0  0  0  0
    1.2077   -1.3902   -1.0906 C   0  0  0  0  0  0
    1.0674   -2.7634   -1.0954 C   0  0  0  0  0  0
    1.4875   -3.5101    0.0000 C   0  0  0  0  0  0
    2.0480   -2.8781    1.1004 C   0  0  0  0  0  0
    2.1965   -1.5065    1.1096 C   0  0  0  0  0  0
    1.3482   -4.8624   -0.0074 O   0  0  0  0  0  0
    1.8634   -5.3375    1.2379 C   0  0  0  0  0  0
    0.5212   -3.3824   -2.1648 F   0  0  0  0  0  0
    4.8201    0.0870    0.0000 H   0  0  0  0  0  0
    6.5408    1.8434    0.0075 H   0  0  0  0  0  0
    5.8886    4.2151    0.0382 H   0  0  0  0  0  0
    3.5214    4.8575    0.0593 H   0  0  0  0  0  0
   -0.3749   -0.1259    1.6043 H   0  0  0  0  0  0
   -2.7842   -0.6191    1.6043 H   0  0  0  0  0  0
   -3.3932    2.2505   -1.4941 H   0  0  0  0  0  0
   -0.9885    2.7654   -1.5067 H   0  0  0  0  0  0
   -6.6286    1.4054    1.2978 H   0  0  0  0  0  0
   -5.1328    2.0904    1.6384 H   0  0  0  0  0  0
    0.8811   -0.8102   -1.9410 H   0  0  0  0  0  0
    2.3725   -3.4612    1.9496 H   0  0  0  0  0  0
    2.6331   -1.0160    1.9671 H   0  0  0  0  0  0
    1.7725   -6.4230    1.2783 H   0  0  0  0  0  0
    2.9129   -5.0572    1.3276 H   0  0  0  0  0  0
    1.2977   -4.8948    2.0577 H   0  0  0  0  0  0
  1  2  2  0  0  0
  1  5  1  0  0  0
  1 20  1  0  0  0
  2  3  1  0  0  0
  2 10  1  0  0  0
  3  4  1  0  0  0
  4  5  2  0  0  0
  4  9  1  0  0  0
  5  6  1  0  0  0
  6  7  2  0  0  0
  6 29  1  0  0  0
  7  8  1  0  0  0
  7 30  1  0  0  0
  8  9  2  0  0  0
  8 31  1  0  0  0
  9 32  1  0  0  0
 10 11  1  0  0  0
 10 15  2  0  0  0
 11 12  2  0  0  0
 11 33  1  0  0  0
 12 13  1  0  0  0
 12 34  1  0  0  0
 13 14  2  0  0  0
 13 16  1  0  0  0
 14 15  1  0  0  0
 14 35  1  0  0  0
 15 36  1  0  0  0
 16 17  2  0  0  0
 16 18  2  0  0  0
 16 19  1  0  0  0
 19 37  1  0  0  0
 19 38  1  0  0  0
 20 21  1  0  0  0
 20 25  2  0  0  0
 21 22  2  0  0  0
 21 39  1  0  0  0
 22 23  1  0  0  0
 22 28  1  0  0  0
 23 24  2  0  0  0
 23 26  1  0  0  0
 24 25  1  0  0  0
 24 40  1  0  0  0
 25 41  1  0  0  0
 26 27  1  0  0  0
 27 42  1  0  0  0
 27 43  1  0  0  0
 27 44  1  0  0  0
M  END
>  <Activity>
8.30103

>  <set>
1

>  <Min_dist>
999.9

>  <Avg_dist>
999.9

$$$$
1-4
  Cerius2 12110214513D 1   1.00000                          
 
 36 38  0  0  0  0  0  0  0  0999 V2000
    2.4834    1.4722   -0.0082 N   0  0  0  0  0  0
    1.2566    2.0889    0.0169 C   0  0  0  0  0  0
    1.4660    3.4350    0.0499 C   0  0  0  0  0  0
    2.8550    3.6437    0.0449 C   0  0  0  0  0  0
    3.4529    2.4330    0.0093 C   0  0  0  0  0  0
   -0.0579    1.4125    0.0094 C   0  0  0  0  0  0
   -0.1687    0.0911    0.4449 C   0  0  0  0  0  0
   -1.3984   -0.5343    0.4353 C   0  0  0  0  0  0
   -2.5202    0.1455   -0.0048 C   0  0  0  0  0  0
   -2.4172    1.4555   -0.4379 C   0  0  0  0  0  0
   -1.1945    2.0944   -0.4280 C   0  0  0  0  0  0
   -4.0868   -0.6609   -0.0144 S   0  0  0  0  0  0
   -4.7903    0.0296   -1.0379 O   0  0  0  0  0  0
   -3.7344   -2.0324   -0.1335 O   0  0  0  0  0  0
   -4.7562   -0.2830    1.6287 C   0  0  0  0  0  0
    2.7033    0.0878   -0.0402 C   0  0  0  0  0  0
    3.4710   -0.5170    0.9458 C   0  0  0  0  0  0
    3.6865   -1.8808    0.9125 C   0  0  0  0  0  0
    3.1377   -2.6448   -0.1037 C   0  0  0  0  0  0
    2.3719   -2.0433   -1.0883 C   0  0  0  0  0  0
    2.1487   -0.6807   -1.0547 C   0  0  0  0  0  0
    3.3499   -3.9787   -0.1348 F   0  0  0  0  0  0
    0.7044    4.2003    0.0753 H   0  0  0  0  0  0
    3.3553    4.6006    0.0652 H   0  0  0  0  0  0
    4.5181    2.2551   -0.0030 H   0  0  0  0  0  0
    0.7063   -0.4407    0.7884 H   0  0  0  0  0  0
   -1.4854   -1.5568    0.7717 H   0  0  0  0  0  0
   -3.2968    1.9805   -0.7802 H   0  0  0  0  0  0
   -1.1155    3.1170   -0.7663 H   0  0  0  0  0  0
   -5.7399   -0.7404    1.7343 H   0  0  0  0  0  0
   -4.0875   -0.6787    2.3932 H   0  0  0  0  0  0
   -4.8433    0.7972    1.7459 H   0  0  0  0  0  0
    3.8998    0.0786    1.7381 H   0  0  0  0  0  0
    4.2837   -2.3516    1.6794 H   0  0  0  0  0  0
    1.9453   -2.6407   -1.8804 H   0  0  0  0  0  0
    1.5512   -0.2120   -1.8225 H   0  0  0  0  0  0
  1  2  1  0  0  0
  1  5  1  0  0  0
  1 16  1  0  0  0
  2  3  2  0  0  0
  2  6  1  0  0  0
  3  4  1  0  0  0
  3 23  1  0  0  0
  4  5  2  0  0  0
  4 24  1  0  0  0
  5 25  1  0  0  0
  6  7  1  0  0  0
  6 11  2  0  0  0
  7  8  2  0  0  0
  7 26  1  0  0  0
  8  9  1  0  0  0
  8 27  1  0  0  0
  9 10  2  0  0  0
  9 12  1  0  0  0
 10 11  1  0  0  0
 10 28  1  0  0  0
 11 29  1  0  0  0
 12 13  2  0  0  0
 12 14  2  0  0  0
 12 15  1  0  0  0
 15 30  1  0  0  0
 15 31  1  0  0  0
 15 32  1  0  0  0
 16 17  1  0  0  0
 16 21  2  0  0  0
 17 18  2  0  0  0
 17 33  1  0  0  0
 18 19  1  0  0  0
 18 34  1  0  0  0
 19 20  2  0  0  0
 19 22  1  0  0  0
 20 21  1  0  0  0
 20 35  1  0  0  0
 21 36  1  0  0  0
M  END
>  <Activity>
4.9914

>  <set>
2

>  <Min_dist>
0.125

>  <Avg_dist>
0.526213

$$$$
1-8
  Cerius2 12110214513D 1   1.00000                          
 
 44 46  0  0  0  0  0  0  0  0999 V2000
    1.8157    1.9712    0.0146 N   0  0  0  0  0  0
    0.5193    2.4275    0.0032 C   0  0  0  0  0  0
    0.5559    3.7891    0.0011 C   0  0  0  0  0  0
    1.9076    4.1732    0.0115 C   0  0  0  0  0  0
    2.6551    3.0489    0.0196 C   0  0  0  0  0  0
    4.1610    2.9924    0.0324 C   0  0  0  0  0  0
   -0.6984    1.5895   -0.0053 C   0  0  0  0  0  0
   -1.8084    1.9582    0.7564 C   0  0  0  0  0  0
   -2.9417    1.1717    0.7441 C   0  0  0  0  0  0
   -2.9795    0.0196   -0.0211 C   0  0  0  0  0  0
   -1.8827   -0.3516   -0.7785 C   0  0  0  0  0  0
   -0.7453    0.4290   -0.7796 C   0  0  0  0  0  0
   -4.4308   -0.9797   -0.0308 S   0  0  0  0  0  0
   -3.9238   -2.2685   -0.3489 O   0  0  0  0  0  0
   -5.0209   -0.6903    1.2291 O   0  0  0  0  0  0
   -5.4006   -0.2866   -1.3981 C   0  0  0  0  0  0
    2.2086    0.6314    0.0254 C   0  0  0  0  0  0
    2.9895    0.1293   -1.0112 C   0  0  0  0  0  0
    3.3791   -1.1904   -1.0049 C   0  0  0  0  0  0
    2.9885   -2.0283    0.0468 C   0  0  0  0  0  0
    2.2027   -1.5185    1.0876 C   0  0  0  0  0  0
    1.8227   -0.1961    1.0755 C   0  0  0  0  0  0
    3.4015   -3.4381    0.0579 C   0  0  0  0  0  0
    4.0818   -3.8778   -0.8448 O   0  0  0  0  0  0
    2.9798   -4.3379    1.1908 C   0  0  0  0  0  0
   -0.2970    4.4516   -0.0071 H   0  0  0  0  0  0
    2.2816    5.1864    0.0122 H   0  0  0  0  0  0
    4.5154    2.9808    1.0632 H   0  0  0  0  0  0
    4.4951    2.0884   -0.4768 H   0  0  0  0  0  0
    4.5618    3.8671   -0.4798 H   0  0  0  0  0  0
   -1.7800    2.8571    1.3544 H   0  0  0  0  0  0
   -3.8011    1.4556    1.3333 H   0  0  0  0  0  0
   -1.9186   -1.2523   -1.3733 H   0  0  0  0  0  0
    0.1101    0.1384   -1.3714 H   0  0  0  0  0  0
   -6.3356   -0.8382   -1.4965 H   0  0  0  0  0  0
   -5.6171    0.7621   -1.1950 H   0  0  0  0  0  0
   -4.8319   -0.3674   -2.3245 H   0  0  0  0  0  0
    3.2899    0.7763   -1.8220 H   0  0  0  0  0  0
    3.9849   -1.5793   -1.8100 H   0  0  0  0  0  0
    1.8991   -2.1611    1.9008 H   0  0  0  0  0  0
    1.2166    0.1981    1.8778 H   0  0  0  0  0  0
    3.3777   -5.3393    1.0269 H   0  0  0  0  0  0
    3.3651   -3.9432    2.1310 H   0  0  0  0  0  0
    1.8915   -4.3819    1.2341 H   0  0  0  0  0  0
  1  2  1  0  0  0
  1  5  1  0  0  0
  1 17  1  0  0  0
  2  3  2  0  0  0
  2  7  1  0  0  0
  3  4  1  0  0  0
  3 26  1  0  0  0
  4  5  2  0  0  0
  4 27  1  0  0  0
  5  6  1  0  0  0
  6 28  1  0  0  0
  6 29  1  0  0  0
  6 30  1  0  0  0
  7  8  1  0  0  0
  7 12  2  0  0  0
  8  9  2  0  0  0
  8 31  1  0  0  0
  9 10  1  0  0  0
  9 32  1  0  0  0
 10 11  2  0  0  0
 10 13  1  0  0  0
 11 12  1  0  0  0
 11 33  1  0  0  0
 12 34  1  0  0  0
 13 14  2  0  0  0
 13 15  2  0  0  0
 13 16  1  0  0  0
 16 35  1  0  0  0
 16 36  1  0  0  0
 16 37  1  0  0  0
 17 18  1  0  0  0
 17 22  2  0  0  0
 18 19  2  0  0  0
 18 38  1  0  0  0
 19 20  1  0  0  0
 19 39  1  0  0  0
 20 21  2  0  0  0
 20 23  1  0  0  0
 21 22  1  0  0  0
 21 40  1  0  0  0
 22 41  1  0  0  0
 23 24  2  0  0  0
 23 25  1  0  0  0
 25 42  1  0  0  0
 25 43  1  0  0  0
 25 44  1  0  0  0
M  END
>  <Activity>
5.54212

>  <set>
2

>  <Min_dist>
0.122807

>  <Avg_dist>
0.544103

$$$$
1-20
  Cerius2 12110214513D 1   1.00000                          
 
 35 37  0  0  0  0  0  0  0  0999 V2000
   -1.2811    2.1049   -0.0387 N   0  0  0  0  0  0
   -2.4910    1.4571    0.0123 C   0  0  0  0  0  0
   -3.4717    2.4029    0.0178 C   0  0  0  0  0  0
   -2.8438    3.6589   -0.0310 C   0  0  0  0  0  0
   -1.5099    3.4510   -0.0647 C   0  0  0  0  0  0
   -2.6935   -0.0068    0.0533 C   0  0  0  0  0  0
   -1.6743   -0.8422    0.5133 C   0  0  0  0  0  0
   -1.8685   -2.2073    0.5494 C   0  0  0  0  0  0
   -3.0728   -2.7497    0.1301 C   0  0  0  0  0  0
   -4.0879   -1.9249   -0.3279 C   0  0  0  0  0  0
   -3.9066   -0.5580   -0.3624 C   0  0  0  0  0  0
   -3.2578   -4.0874    0.1676 F   0  0  0  0  0  0
   -0.0228    1.4883   -0.0550 C   0  0  0  0  0  0
    0.9176    1.8006    0.9175 C   0  0  0  0  0  0
    2.1569    1.1912    0.8987 C   0  0  0  0  0  0
    2.4616    0.2709   -0.0874 C   0  0  0  0  0  0
    1.5272   -0.0419   -1.0576 C   0  0  0  0  0  0
    0.2840    0.5596   -1.0405 C   0  0  0  0  0  0
    4.0437   -0.5044   -0.1079 S   0  0  0  0  0  0
    4.2441   -0.9372   -1.4465 O   0  0  0  0  0  0
    4.9077    0.3622    0.6143 O   0  0  0  0  0  0
    3.9303   -1.8851    0.7992 N   0  0  0  0  0  0
   -4.5356    2.2208    0.0531 H   0  0  0  0  0  0
   -3.3392    4.6185   -0.0405 H   0  0  0  0  0  0
   -0.7521    4.2194   -0.1051 H   0  0  0  0  0  0
   -0.7352   -0.4206    0.8399 H   0  0  0  0  0  0
   -1.0805   -2.8546    0.9048 H   0  0  0  0  0  0
   -5.0244   -2.3529   -0.6538 H   0  0  0  0  0  0
   -4.6984    0.0839   -0.7192 H   0  0  0  0  0  0
    0.6804    2.5195    1.6877 H   0  0  0  0  0  0
    2.8890    1.4340    1.6548 H   0  0  0  0  0  0
    1.7683   -0.7605   -1.8269 H   0  0  0  0  0  0
   -0.4455    0.3146   -1.7983 H   0  0  0  0  0  0
    4.7055   -2.4574    0.9105 H   0  0  0  0  0  0
    3.0886   -2.1216    1.2194 H   0  0  0  0  0  0
  1  2  1  0  0  0
  1  5  1  0  0  0
  1 13  1  0  0  0
  2  3  2  0  0  0
  2  6  1  0  0  0
  3  4  1  0  0  0
  3 23  1  0  0  0
  4  5  2  0  0  0
  4 24  1  0  0  0
  5 25  1  0  0  0
  6  7  1  0  0  0
  6 11  2  0  0  0
  7  8  2  0  0  0
  7 26  1  0  0  0
  8  9  1  0  0  0
  8 27  1  0  0  0
  9 10  2  0  0  0
  9 12  1  0  0  0
 10 11  1  0  0  0
 10 28  1  0  0  0
 11 29  1  0  0  0
 13 14  1  0  0  0
 13 18  2  0  0  0
 14 15  2  0  0  0
 14 30  1  0  0  0
 15 16  1  0  0  0
 15 31  1  0  0  0
 16 17  2  0  0  0
 16 19  1  0  0  0
 17 18  1  0  0  0
 17 32  1  0  0  0
 18 33  1  0  0  0
 19 20  2  0  0  0
 19 21  2  0  0  0
 19 22  1  0  0  0
 22 34  1  0  0  0
 22 35  1  0  0  0
M  END
>  <Activity>
7.85387

>  <set>
2

>  <Min_dist>
0.166667

>  <Avg_dist>
0.532372

$$$$
1-31
  Cerius2 12110214513D 1   1.00000                          
 
 45 47  0  0  0  0  0  0  0  0999 V2000
    0.7878    0.7749    0.3004 N   0  0  0  0  0  0
    0.1996   -0.4661    0.2910 C   0  0  0  0  0  0
    1.1878   -1.3979    0.4008 C   0  0  0  0  0  0
    2.4086   -0.7075    0.4790 C   0  0  0  0  0  0
    2.1384    0.6145    0.4157 C   0  0  0  0  0  0
    3.1563    1.7247    0.4638 C   0  0  0  0  0  0
    4.0058   -1.4354    0.6329 S   0  0  0  0  0  0
    4.5166   -0.8278    1.8116 O   0  0  0  0  0  0
    3.7262   -2.8267    0.5610 O   0  0  0  0  0  0
    4.8714   -0.8500   -0.8498 C   0  0  0  0  0  0
    6.1746   -1.3586   -0.8604 F   0  0  0  0  0  0
    4.1906   -1.2880   -1.9908 F   0  0  0  0  0  0
    4.9167    0.5483   -0.8419 F   0  0  0  0  0  0
   -1.2486   -0.7420    0.1814 C   0  0  0  0  0  0
   -2.1085    0.2244   -0.3426 C   0  0  0  0  0  0
   -3.4590   -0.0395   -0.4422 C   0  0  0  0  0  0
   -3.9613   -1.2589   -0.0240 C   0  0  0  0  0  0
   -3.1143   -2.2213    0.4963 C   0  0  0  0  0  0
   -1.7610   -1.9723    0.5960 C   0  0  0  0  0  0
   -5.6875   -1.5876   -0.1541 S   0  0  0  0  0  0
   -5.9031   -2.5492    0.8696 O   0  0  0  0  0  0
   -6.2604   -0.2882   -0.1024 O   0  0  0  0  0  0
   -5.8450   -2.3223   -1.8052 C   0  0  0  0  0  0
    0.1144    2.0008    0.2020 C   0  0  0  0  0  0
   -0.7043    2.4292    1.2381 C   0  0  0  0  0  0
   -1.3668    3.6370    1.1394 C   0  0  0  0  0  0
   -1.2151    4.4204    0.0075 C   0  0  0  0  0  0
   -0.3993    3.9945   -1.0272 C   0  0  0  0  0  0
    0.2701    2.7904   -0.9292 C   0  0  0  0  0  0
   -1.8643    5.6013   -0.0875 F   0  0  0  0  0  0
    1.0566   -2.4696    0.4234 H   0  0  0  0  0  0
    3.4853    1.9601   -0.5483 H   0  0  0  0  0  0
    2.7077    2.6096    0.9151 H   0  0  0  0  0  0
    4.0122    1.4073    1.0595 H   0  0  0  0  0  0
   -1.7177    1.1768   -0.6690 H   0  0  0  0  0  0
   -4.1256    0.7076   -0.8471 H   0  0  0  0  0  0
   -3.5128   -3.1711    0.8209 H   0  0  0  0  0  0
   -1.1009   -2.7243    1.0024 H   0  0  0  0  0  0
   -6.8896   -2.5690   -1.9950 H   0  0  0  0  0  0
   -5.4978   -1.6106   -2.5542 H   0  0  0  0  0  0
   -5.2421   -3.2289   -1.8585 H   0  0  0  0  0  0
   -0.8233    1.8182    2.1207 H   0  0  0  0  0  0
   -2.0037    3.9706    1.9452 H   0  0  0  0  0  0
   -0.2828    4.6064   -1.9094 H   0  0  0  0  0  0
    0.9066    2.4587   -1.7362 H   0  0  0  0  0  0
  1  2  1  0  0  0
  1  5  1  0  0  0
  1 24  1  0  0  0
  2  3  2  0  0  0
  2 14  1  0  0  0
  3  4  1  0  0  0
  3 31  1  0  0  0
  4  5  2  0  0  0
  4  7  1  0  0  0
  5  6  1  0  0  0
  6 32  1  0  0  0
  6 33  1  0  0  0
  6 34  1  0  0  0
  7  8  2  0  0  0
  7  9  2  0  0  0
  7 10  1  0  0  0
 10 11  1  0  0  0
 10 12  1  0  0  0
 10 13  1  0  0  0
 14 15  1  0  0  0
 14 19  2  0  0  0
 15 16  2  0  0  0
 15 35  1  0  0  0
 16 17  1  0  0  0
 16 36  1  0  0  0
 17 18  2  0  0  0
 17 20  1  0  0  0
 18 19  1  0  0  0
 18 37  1  0  0  0
 19 38  1  0  0  0
 20 21  2  0  0  0
 20 22  2  0  0  0
 20 23  1  0  0  0
 23 39  1  0  0  0
 23 40  1  0  0  0
 23 41  1  0  0  0
 24 25  1  0  0  0
 24 29  2  0  0  0
 25 26  2  0  0  0
 25 42  1  0  0  0
 26 27  1  0  0  0
 26 43  1  0  0  0
 27 28  2  0  0  0
 27 30  1  0  0  0
 28 29  1  0  0  0
 28 44  1  0  0  0
 29 45  1  0  0  0
M  END
>  <Activity>
7.22185

>  <set>
2

>  <Min_dist>
0.316456

>  <Avg_dist>
0.6026

$$$$
1-32
  Cerius2 12110214513D 1   1.00000                          
 
 41 43  0  0  0  0  0  0  0  0999 V2000
    2.2418   -0.2432   -0.0132 N   0  0  0  0  0  0
    1.2864   -1.2309    0.0114 C   0  0  0  0  0  0
    1.9059   -2.4385    0.0380 C   0  0  0  0  0  0
    3.3458   -2.1632    0.0289 C   0  0  0  0  0  0
    3.4742   -0.7855   -0.0031 C   0  0  0  0  0  0
    4.7732   -0.0218   -0.0232 C   0  0  0  0  0  0
    4.4301   -3.1478    0.0499 C   0  0  0  0  0  0
    4.1727   -4.3333    0.0777 O   0  0  0  0  0  0
   -0.1765   -1.0137    0.0096 C   0  0  0  0  0  0
   -1.0076   -1.8462   -0.7410 C   0  0  0  0  0  0
   -2.3715   -1.6383   -0.7384 C   0  0  0  0  0  0
   -2.9156   -0.6070    0.0063 C   0  0  0  0  0  0
   -2.0971    0.2222    0.7523 C   0  0  0  0  0  0
   -0.7322    0.0211    0.7632 C   0  0  0  0  0  0
   -4.6585   -0.3482    0.0042 S   0  0  0  0  0  0
   -4.7716    1.0376    0.2973 O   0  0  0  0  0  0
   -5.0559   -0.8901   -1.2479 O   0  0  0  0  0  0
   -5.2301   -1.3729    1.3876 C   0  0  0  0  0  0
    1.9719    1.1318   -0.0498 C   0  0  0  0  0  0
    2.4263    1.9567    0.9704 C   0  0  0  0  0  0
    2.1598    3.3113    0.9324 C   0  0  0  0  0  0
    1.4398    3.8469   -0.1224 C   0  0  0  0  0  0
    0.9854    3.0256   -1.1407 C   0  0  0  0  0  0
    1.2548    1.6715   -1.1091 C   0  0  0  0  0  0
    1.1800    5.1722   -0.1579 F   0  0  0  0  0  0
    1.4324   -3.4088    0.0616 H   0  0  0  0  0  0
    5.0846    0.1383   -1.0555 H   0  0  0  0  0  0
    4.6361    0.9414    0.4684 H   0  0  0  0  0  0
    5.5384   -0.5925    0.5028 H   0  0  0  0  0  0
    5.4587   -2.8186    0.0407 H   0  0  0  0  0  0
   -0.5840   -2.6514   -1.3230 H   0  0  0  0  0  0
   -3.0158   -2.2817   -1.3192 H   0  0  0  0  0  0
   -2.5279    1.0259    1.3310 H   0  0  0  0  0  0
   -0.0943    0.6690    1.3459 H   0  0  0  0  0  0
   -6.3128   -1.2873    1.4801 H   0  0  0  0  0  0
   -4.9622   -2.4134    1.2041 H   0  0  0  0  0  0
   -4.7587   -1.0336    2.3101 H   0  0  0  0  0  0
    2.9875    1.5393    1.7933 H   0  0  0  0  0  0
    2.5127    3.9532    1.7259 H   0  0  0  0  0  0
    0.4237    3.4451   -1.9623 H   0  0  0  0  0  0
    0.9005    1.0314   -1.9036 H   0  0  0  0  0  0
  1  2  1  0  0  0
  1  5  1  0  0  0
  1 19  1  0  0  0
  2  3  2  0  0  0
  2  9  1  0  0  0
  3  4  1  0  0  0
  3 26  1  0  0  0
  4  5  2  0  0  0
  4  7  1  0  0  0
  5  6  1  0  0  0
  6 27  1  0  0  0
  6 28  1  0  0  0
  6 29  1  0  0  0
  7  8  2  0  0  0
  7 30  1  0  0  0
  9 10  1  0  0  0
  9 14  2  0  0  0
 10 11  2  0  0  0
 10 31  1  0  0  0
 11 12  1  0  0  0
 11 32  1  0  0  0
 12 13  2  0  0  0
 12 15  1  0  0  0
 13 14  1  0  0  0
 13 33  1  0  0  0
 14 34  1  0  0  0
 15 16  2  0  0  0
 15 17  2  0  0  0
 15 18  1  0  0  0
 18 35  1  0  0  0
 18 36  1  0  0  0
 18 37  1  0  0  0
 19 20  1  0  0  0
 19 24  2  0  0  0
 20 21  2  0  0  0
 20 38  1  0  0  0
 21 22  1  0  0  0
 21 39  1  0  0  0
 22 23  2  0  0  0
 22 25  1  0  0  0
 23 24  1  0  0  0
 23 40  1  0  0  0
 24 41  1  0  0  0
M  END
>  <Activity>
5.4908

>  <set>
2

>  <Min_dist>
0.09589

>  <Avg_dist>
0.535481

$$$$
1-33
  Cerius2 12110214513D 1   1.00000                          
 
 40 42  0  0  0  0  0  0  0  0999 V2000
    2.2309    0.3200    0.0118 N   0  0  0  0  0  0
    1.2584    1.2916   -0.0135 C   0  0  0  0  0  0
    1.8641    2.5066   -0.0415 C   0  0  0  0  0  0
    3.2643    2.2788   -0.0333 C   0  0  0  0  0  0
    3.4514    0.9136   -0.0001 C   0  0  0  0  0  0
    4.7804    0.2035    0.0203 C   0  0  0  0  0  0
    4.2895    3.2783   -0.0557 C   0  0  0  0  0  0
    5.1029    4.0712   -0.0735 N   0  0  0  0  0  0
   -0.2011    1.0535   -0.0110 C   0  0  0  0  0  0
   -1.0439    1.8748    0.7391 C   0  0  0  0  0  0
   -2.4047    1.6476    0.7367 C   0  0  0  0  0  0
   -2.9342    0.6082   -0.0072 C   0  0  0  0  0  0
   -2.1042   -0.2097   -0.7530 C   0  0  0  0  0  0
   -0.7422    0.0100   -0.7634 C   0  0  0  0  0  0
   -4.6732    0.3245   -0.0043 S   0  0  0  0  0  0
   -4.7666   -1.0630   -0.2966 O   0  0  0  0  0  0
   -5.0779    0.8615    1.2475 O   0  0  0  0  0  0
   -5.2599    1.3400   -1.3883 C   0  0  0  0  0  0
    1.9990   -1.0619    0.0497 C   0  0  0  0  0  0
    2.4754   -1.8749   -0.9699 C   0  0  0  0  0  0
    2.2459   -3.2362   -0.9308 C   0  0  0  0  0  0
    1.5408   -3.7904    0.1245 C   0  0  0  0  0  0
    1.0649   -2.9811    1.1425 C   0  0  0  0  0  0
    1.2977   -1.6202    1.1100 C   0  0  0  0  0  0
    1.3166   -5.1221    0.1606 F   0  0  0  0  0  0
    1.3716    3.4675   -0.0655 H   0  0  0  0  0  0
    5.0984    0.0572    1.0525 H   0  0  0  0  0  0
    4.6825   -0.7649   -0.4704 H   0  0  0  0  0  0
    5.5216    0.8044   -0.5066 H   0  0  0  0  0  0
   -0.6317    2.6863    1.3205 H   0  0  0  0  0  0
   -3.0580    2.2823    1.3170 H   0  0  0  0  0  0
   -2.5237   -1.0196   -1.3313 H   0  0  0  0  0  0
   -0.0953   -0.6291   -1.3460 H   0  0  0  0  0  0
   -6.3413    1.2389   -1.4803 H   0  0  0  0  0  0
   -5.0069    2.3844   -1.2054 H   0  0  0  0  0  0
   -4.7840    1.0070   -2.3106 H   0  0  0  0  0  0
    3.0247   -1.4430   -1.7934 H   0  0  0  0  0  0
    2.6163   -3.8690   -1.7238 H   0  0  0  0  0  0
    0.5149   -3.4150    1.9644 H   0  0  0  0  0  0
    0.9267   -0.9894    1.9043 H   0  0  0  0  0  0
  1  2  1  0  0  0
  1  5  1  0  0  0
  1 19  1  0  0  0
  2  3  2  0  0  0
  2  9  1  0  0  0
  3  4  1  0  0  0
  3 26  1  0  0  0
  4  5  2  0  0  0
  4  7  1  0  0  0
  5  6  1  0  0  0
  6 27  1  0  0  0
  6 28  1  0  0  0
  6 29  1  0  0  0
  7  8  3  0  0  0
  9 10  1  0  0  0
  9 14  2  0  0  0
 10 11  2  0  0  0
 10 30  1  0  0  0
 11 12  1  0  0  0
 11 31  1  0  0  0
 12 13  2  0  0  0
 12 15  1  0  0  0
 13 14  1  0  0  0
 13 32  1  0  0  0
 14 33  1  0  0  0
 15 16  2  0  0  0
 15 17  2  0  0  0
 15 18  1  0  0  0
 18 34  1  0  0  0
 18 35  1  0  0  0
 18 36  1  0  0  0
 19 20  1  0  0  0
 19 24  2  0  0  0
 20 21  2  0  0  0
 20 37  1  0  0  0
 21 22  1  0  0  0
 21 38  1  0  0  0
 22 23  2  0  0  0
 22 25  1  0  0  0
 23 24  1  0  0  0
 23 39  1  0  0  0
 24 40  1  0  0  0
M  END
>  <Activity>
6.12494

>  <set>
2

>  <Min_dist>
0.239437

>  <Avg_dist>
0.546685

$$$$
1-34
  Cerius2 12110214513D 1   1.00000                          
 
 39 41  0  0  0  0  0  0  0  0999 V2000
    1.5255    0.5771   -0.0222 N   0  0  0  0  0  0
    0.8450   -0.6155    0.0011 C   0  0  0  0  0  0
    1.7641   -1.6214    0.0224 C   0  0  0  0  0  0
    3.0372   -1.0271    0.0117 C   0  0  0  0  0  0
    2.8655    0.3129   -0.0155 C   0  0  0  0  0  0
    3.9663    1.3419   -0.0355 C   0  0  0  0  0  0
    4.6937   -1.9389    0.0324 Br  0  0  0  0  0  0
   -0.6242   -0.7791    0.0029 C   0  0  0  0  0  0
   -1.2173   -1.7946   -0.7489 C   0  0  0  0  0  0
   -2.5890   -1.9418   -0.7429 C   0  0  0  0  0  0
   -3.3765   -1.0852    0.0058 C   0  0  0  0  0  0
   -2.7950   -0.0762    0.7528 C   0  0  0  0  0  0
   -1.4240    0.0778    0.7608 C   0  0  0  0  0  0
   -5.1277   -1.2797    0.0073 S   0  0  0  0  0  0
   -5.5900    0.0307    0.3046 O   0  0  0  0  0  0
   -5.3766   -1.9022   -1.2456 O   0  0  0  0  0  0
   -5.4156   -2.4195    1.3889 C   0  0  0  0  0  0
    0.9425    1.8518   -0.0537 C   0  0  0  0  0  0
    1.1948    2.7569    0.9684 C   0  0  0  0  0  0
    0.6200    4.0123    0.9353 C   0  0  0  0  0  0
   -0.2075    4.3684   -0.1164 C   0  0  0  0  0  0
   -0.4603    3.4670   -1.1367 C   0  0  0  0  0  0
    0.1169    2.2126   -1.1099 C   0  0  0  0  0  0
   -0.7692    5.5967   -0.1467 F   0  0  0  0  0  0
    1.5528   -2.6803    0.0440 H   0  0  0  0  0  0
    4.2327    1.5690   -1.0677 H   0  0  0  0  0  0
    3.6234    2.2505    0.4595 H   0  0  0  0  0  0
    4.8390    0.9506    0.4873 H   0  0  0  0  0  0
   -0.6038   -2.4635   -1.3342 H   0  0  0  0  0  0
   -3.0492   -2.7271   -1.3241 H   0  0  0  0  0  0
   -3.4153    0.5894    1.3347 H   0  0  0  0  0  0
   -0.9712    0.8655    1.3446 H   0  0  0  0  0  0
   -6.4841   -2.6133    1.4834 H   0  0  0  0  0  0
   -4.8915   -3.3568    1.2019 H   0  0  0  0  0  0
   -5.0442   -1.9734    2.3114 H   0  0  0  0  0  0
    1.8398    2.4793    1.7889 H   0  0  0  0  0  0
    0.8157    4.7165    1.7304 H   0  0  0  0  0  0
   -1.1059    3.7466   -1.9561 H   0  0  0  0  0  0
   -0.0805    1.5098   -1.9058 H   0  0  0  0  0  0
  1  2  1  0  0  0
  1  5  1  0  0  0
  1 18  1  0  0  0
  2  3  2  0  0  0
  2  8  1  0  0  0
  3  4  1  0  0  0
  3 25  1  0  0  0
  4  5  2  0  0  0
  4  7  1  0  0  0
  5  6  1  0  0  0
  6 26  1  0  0  0
  6 27  1  0  0  0
  6 28  1  0  0  0
  8  9  1  0  0  0
  8 13  2  0  0  0
  9 10  2  0  0  0
  9 29  1  0  0  0
 10 11  1  0  0  0
 10 30  1  0  0  0
 11 12  2  0  0  0
 11 14  1  0  0  0
 12 13  1  0  0  0
 12 31  1  0  0  0
 13 32  1  0  0  0
 14 15  2  0  0  0
 14 16  2  0  0  0
 14 17  1  0  0  0
 17 33  1  0  0  0
 17 34  1  0  0  0
 17 35  1  0  0  0
 18 19  1  0  0  0
 18 23  2  0  0  0
 19 20  2  0  0  0
 19 36  1  0  0  0
 20 21  1  0  0  0
 20 37  1  0  0  0
 21 22  2  0  0  0
 21 24  1  0  0  0
 22 23  1  0  0  0
 22 38  1  0  0  0
 23 39  1  0  0  0
M  END
>  <Activity>
7.69897

>  <set>
2

>  <Min_dist>
0.1

>  <Avg_dist>
0.513105

$$$$
1-37
  Cerius2 12110214513D 1   1.00000                          
 
 48 50  0  0  0  0  0  0  0  0999 V2000
    1.2878    1.2152   -0.0272 N   0  0  0  0  0  0
    0.9288   -0.1102   -0.0083 C   0  0  0  0  0  0
    2.0715   -0.8525    0.0063 C   0  0  0  0  0  0
    3.1536    0.0429   -0.0040 C   0  0  0  0  0  0
    2.6504    1.2963   -0.0244 C   0  0  0  0  0  0
    3.4570    2.5691   -0.0417 C   0  0  0  0  0  0
    4.6142   -0.3281    0.0067 C   0  0  0  0  0  0
    4.7461   -1.7740    0.0290 O   0  0  0  0  0  0
    5.9647   -2.3366    0.0418 C   0  0  0  0  0  0
    6.9519   -1.6399    0.0347 O   0  0  0  0  0  0
    6.1016   -3.8372    0.0650 C   0  0  0  0  0  0
   -0.4520   -0.6380   -0.0044 C   0  0  0  0  0  0
   -0.7730   -1.7669   -0.7599 C   0  0  0  0  0  0
   -2.0636   -2.2543   -0.7519 C   0  0  0  0  0  0
   -3.0388   -1.6266    0.0028 C   0  0  0  0  0  0
   -2.7272   -0.5072    0.7538 C   0  0  0  0  0  0
   -1.4392   -0.0130    0.7592 C   0  0  0  0  0  0
   -4.6848   -2.2553    0.0069 S   0  0  0  0  0  0
   -5.4607   -1.1046    0.3118 O   0  0  0  0  0  0
   -4.7733   -2.9148   -1.2488 O   0  0  0  0  0  0
   -4.6723   -3.4371    1.3831 C   0  0  0  0  0  0
    0.4030    2.3027   -0.0515 C   0  0  0  0  0  0
    0.4229    3.2379    0.9744 C   0  0  0  0  0  0
   -0.4494    4.3084    0.9488 C   0  0  0  0  0  0
   -1.3437    4.4490   -0.0991 C   0  0  0  0  0  0
   -1.3654    3.5169   -1.1230 C   0  0  0  0  0  0
   -0.4901    2.4487   -1.1043 C   0  0  0  0  0  0
   -2.1965    5.4966   -0.1222 F   0  0  0  0  0  0
    2.1336   -1.9306    0.0228 H   0  0  0  0  0  0
    3.6546    2.8601   -1.0734 H   0  0  0  0  0  0
    2.8982    3.3602    0.4583 H   0  0  0  0  0  0
    4.4017    2.4076    0.4776 H   0  0  0  0  0  0
    5.0960    0.0669   -0.8877 H   0  0  0  0  0  0
    5.0898    0.0938    0.8920 H   0  0  0  0  0  0
    7.1580   -4.1056    0.0727 H   0  0  0  0  0  0
    5.6198   -4.2322    0.9594 H   0  0  0  0  0  0
    5.6260   -4.2592   -0.8204 H   0  0  0  0  0  0
   -0.0129   -2.2576   -1.3496 H   0  0  0  0  0  0
   -2.3134   -3.1276   -1.3362 H   0  0  0  0  0  0
   -3.4930   -0.0219    1.3407 H   0  0  0  0  0  0
   -1.1972    0.8609    1.3459 H   0  0  0  0  0  0
   -5.6574   -3.8937    1.4788 H   0  0  0  0  0  0
   -3.9300   -4.2116    1.1902 H   0  0  0  0  0  0
   -4.4221   -2.9160    2.3072 H   0  0  0  0  0  0
    1.1198    3.1282    1.7921 H   0  0  0  0  0  0
   -0.4342    5.0361    1.7466 H   0  0  0  0  0  0
   -2.0640    3.6279   -1.9391 H   0  0  0  0  0  0
   -0.5070    1.7222   -1.9032 H   0  0  0  0  0  0
  1  2  1  0  0  0
  1  5  1  0  0  0
  1 22  1  0  0  0
  2  3  2  0  0  0
  2 12  1  0  0  0
  3  4  1  0  0  0
  3 29  1  0  0  0
  4  5  2  0  0  0
  4  7  1  0  0  0
  5  6  1  0  0  0
  6 30  1  0  0  0
  6 31  1  0  0  0
  6 32  1  0  0  0
  7  8  1  0  0  0
  7 33  1  0  0  0
  7 34  1  0  0  0
  8  9  1  0  0  0
  9 10  2  0  0  0
  9 11  1  0  0  0
 11 35  1  0  0  0
 11 36  1  0  0  0
 11 37  1  0  0  0
 12 13  1  0  0  0
 12 17  2  0  0  0
 13 14  2  0  0  0
 13 38  1  0  0  0
 14 15  1  0  0  0
 14 39  1  0  0  0
 15 16  2  0  0  0
 15 18  1  0  0  0
 16 17  1  0  0  0
 16 40  1  0  0  0
 17 41  1  0  0  0
 18 19  2  0  0  0
 18 20  2  0  0  0
 18 21  1  0  0  0
 21 42  1  0  0  0
 21 43  1  0  0  0
 21 44  1  0  0  0
 22 23  1  0  0  0
 22 27  2  0  0  0
 23 24  2  0  0  0
 23 45  1  0  0  0
 24 25  1  0  0  0
 24 46  1  0  0  0
 25 26  2  0  0  0
 25 28  1  0  0  0
 26 27  1  0  0  0
 26 47  1  0  0  0
 27 48  1  0  0  0
M  END
>  <Activity>
6.3279

>  <set>
2

>  <Min_dist>
0.215909

>  <Avg_dist>
0.593772

$$$$
1-42
  Cerius2 12110214513D 1   1.00000                          
 
 45 47  0  0  0  0  0  0  0  0999 V2000
    1.3908    0.7038    0.4196 N   0  0  0  0  0  0
    0.7626   -0.5166    0.4650 C   0  0  0  0  0  0
    1.7149   -1.4695    0.6697 C   0  0  0  0  0  0
    2.9542   -0.8134    0.7511 C   0  0  0  0  0  0
    2.7304    0.5096    0.5958 C   0  0  0  0  0  0
    3.7820    1.5888    0.6134 C   0  0  0  0  0  0
    4.2934   -1.4680    0.9729 C   0  0  0  0  0  0
    4.9146   -1.8289   -0.3779 C   0  0  0  0  0  0
    6.1578   -2.4366   -0.1720 F   0  0  0  0  0  0
    4.0703   -2.7130   -1.0582 F   0  0  0  0  0  0
    5.0837   -0.6671   -1.1387 F   0  0  0  0  0  0
   -0.6890   -0.7543    0.3179 C   0  0  0  0  0  0
   -1.4972    0.2030   -0.2973 C   0  0  0  0  0  0
   -2.8512   -0.0251   -0.4314 C   0  0  0  0  0  0
   -3.4083   -1.1996    0.0423 C   0  0  0  0  0  0
   -2.6127   -2.1527    0.6531 C   0  0  0  0  0  0
   -1.2564   -1.9396    0.7884 C   0  0  0  0  0  0
   -5.1386   -1.4827   -0.1325 S   0  0  0  0  0  0
   -5.4225   -2.3705    0.9400 O   0  0  0  0  0  0
   -5.6697   -0.1656   -0.1833 O   0  0  0  0  0  0
   -5.2608   -2.3152   -1.7396 C   0  0  0  0  0  0
    0.7622    1.9412    0.2199 C   0  0  0  0  0  0
   -0.0785    2.4592    1.1956 C   0  0  0  0  0  0
   -0.6968    3.6781    0.9970 C   0  0  0  0  0  0
   -0.4788    4.3833   -0.1747 C   0  0  0  0  0  0
    0.3591    3.8679   -1.1493 C   0  0  0  0  0  0
    0.9844    2.6524   -0.9515 C   0  0  0  0  0  0
   -1.0848    5.5752   -0.3674 F   0  0  0  0  0  0
    1.5477   -2.5332    0.7539 H   0  0  0  0  0  0
    4.1547    1.7496   -0.3982 H   0  0  0  0  0  0
    3.3469    2.5139    0.9916 H   0  0  0  0  0  0
    4.6050    1.2837    1.2596 H   0  0  0  0  0  0
    4.9512   -0.7792    1.5029 H   0  0  0  0  0  0
    4.1616   -2.3732    1.5657 H   0  0  0  0  0  0
   -1.0637    1.1204   -0.6672 H   0  0  0  0  0  0
   -3.4778    0.7150   -0.9069 H   0  0  0  0  0  0
   -3.0537   -3.0674    1.0207 H   0  0  0  0  0  0
   -0.6365   -2.6843    1.2653 H   0  0  0  0  0  0
   -6.3056   -2.5411   -1.9531 H   0  0  0  0  0  0
   -4.8637   -1.6632   -2.5176 H   0  0  0  0  0  0
   -4.6868   -3.2414   -1.7136 H   0  0  0  0  0  0
   -0.2493    1.9092    2.1092 H   0  0  0  0  0  0
   -1.3509    4.0814    1.7558 H   0  0  0  0  0  0
    0.5273    4.4190   -2.0628 H   0  0  0  0  0  0
    1.6381    2.2510   -1.7117 H   0  0  0  0  0  0
  1  2  1  0  0  0
  1  5  1  0  0  0
  1 22  1  0  0  0
  2  3  2  0  0  0
  2 12  1  0  0  0
  3  4  1  0  0  0
  3 29  1  0  0  0
  4  5  2  0  0  0
  4  7  1  0  0  0
  5  6  1  0  0  0
  6 30  1  0  0  0
  6 31  1  0  0  0
  6 32  1  0  0  0
  7  8  1  0  0  0
  7 33  1  0  0  0
  7 34  1  0  0  0
  8  9  1  0  0  0
  8 10  1  0  0  0
  8 11  1  0  0  0
 12 13  1  0  0  0
 12 17  2  0  0  0
 13 14  2  0  0  0
 13 35  1  0  0  0
 14 15  1  0  0  0
 14 36  1  0  0  0
 15 16  2  0  0  0
 15 18  1  0  0  0
 16 17  1  0  0  0
 16 37  1  0  0  0
 17 38  1  0  0  0
 18 19  2  0  0  0
 18 20  2  0  0  0
 18 21  1  0  0  0
 21 39  1  0  0  0
 21 40  1  0  0  0
 21 41  1  0  0  0
 22 23  1  0  0  0
 22 27  2  0  0  0
 23 24  2  0  0  0
 23 42  1  0  0  0
 24 25  1  0  0  0
 24 43  1  0  0  0
 25 26  2  0  0  0
 25 28  1  0  0  0
 26 27  1  0  0  0
 26 44  1  0  0  0
 27 45  1  0  0  0
M  END
>  <Activity>
6.85387

>  <set>
2

>  <Min_dist>
0.113924

>  <Avg_dist>
0.53041

$$$$
2-20
  Cerius2 12110214513D 1   1.00000                          
 
 45 47  0  0  0  0  0  0  0  0999 V2000
    1.9638    1.3539   -0.0367 N   0  0  0  0  0  0
    0.7352    1.9617   -0.0777 C   0  0  0  0  0  0
    0.9364    3.3065   -0.1627 C   0  0  0  0  0  0
    2.3241    3.5221   -0.1738 C   0  0  0  0  0  0
    2.9274    2.3162   -0.0960 C   0  0  0  0  0  0
    4.4149    2.0753   -0.0774 C   0  0  0  0  0  0
   -0.5756    1.2787   -0.0368 C   0  0  0  0  0  0
   -1.6279    1.8250    0.6993 C   0  0  0  0  0  0
   -2.8485    1.1829    0.7329 C   0  0  0  0  0  0
   -3.0306   -0.0001    0.0390 C   0  0  0  0  0  0
   -1.9914   -0.5472   -0.6923 C   0  0  0  0  0  0
   -0.7675    0.0878   -0.7388 C   0  0  0  0  0  0
   -4.5928   -0.8137    0.0872 S   0  0  0  0  0  0
   -4.2483   -2.1715   -0.1512 O   0  0  0  0  0  0
   -5.1363   -0.3789    1.3261 O   0  0  0  0  0  0
   -5.4785   -0.0916   -1.3215 C   0  0  0  0  0  0
    2.2011   -0.0885    0.0609 C   0  0  0  0  0  0
    2.8501   -0.5872   -1.2318 C   0  0  0  0  0  0
    3.0979   -2.0935   -1.1299 C   0  0  0  0  0  0
    4.0283   -2.3786    0.0508 C   0  0  0  0  0  0
    3.3793   -1.8799    1.3435 C   0  0  0  0  0  0
    3.1315   -0.3735    1.2416 C   0  0  0  0  0  0
    4.2549   -3.7560    0.1440 F   0  0  0  0  0  0
    0.1704    4.0661   -0.2130 H   0  0  0  0  0  0
    2.8196    4.4798   -0.2340 H   0  0  0  0  0  0
    4.7563    1.9904    0.9543 H   0  0  0  0  0  0
    4.6402    1.1524   -0.6118 H   0  0  0  0  0  0
    4.9240    2.9089   -0.5611 H   0  0  0  0  0  0
   -1.4869    2.7482    1.2417 H   0  0  0  0  0  0
   -3.6636    1.6045    1.3025 H   0  0  0  0  0  0
   -2.1398   -1.4713   -1.2312 H   0  0  0  0  0  0
    0.0429   -0.3401   -1.3104 H   0  0  0  0  0  0
   -6.4742   -0.5300   -1.3881 H   0  0  0  0  0  0
   -5.5646    0.9861   -1.1828 H   0  0  0  0  0  0
   -4.9290   -0.2970   -2.2402 H   0  0  0  0  0  0
    1.2525   -0.6033    0.2133 H   0  0  0  0  0  0
    2.1872   -0.3841   -2.0729 H   0  0  0  0  0  0
    3.7987   -0.0724   -1.3842 H   0  0  0  0  0  0
    2.1493   -2.6083   -0.9775 H   0  0  0  0  0  0
    3.5602   -2.4488   -2.0508 H   0  0  0  0  0  0
    4.9769   -1.8638   -0.1016 H   0  0  0  0  0  0
    2.4307   -2.3947    1.4959 H   0  0  0  0  0  0
    4.0421   -2.0830    2.1847 H   0  0  0  0  0  0
    4.0801    0.1412    1.0892 H   0  0  0  0  0  0
    2.6691   -0.0183    2.1625 H   0  0  0  0  0  0
  1  2  1  0  0  0
  1  5  1  0  0  0
  1 17  1  0  0  0
  2  3  2  0  0  0
  2  7  1  0  0  0
  3  4  1  0  0  0
  3 24  1  0  0  0
  4  5  2  0  0  0
  4 25  1  0  0  0
  5  6  1  0  0  0
  6 26  1  0  0  0
  6 27  1  0  0  0
  6 28  1  0  0  0
  7  8  1  0  0  0
  7 12  2  0  0  0
  8  9  2  0  0  0
  8 29  1  0  0  0
  9 10  1  0  0  0
  9 30  1  0  0  0
 10 11  2  0  0  0
 10 13  1  0  0  0
 11 12  1  0  0  0
 11 31  1  0  0  0
 12 32  1  0  0  0
 13 14  2  0  0  0
 13 15  2  0  0  0
 13 16  1  0  0  0
 16 33  1  0  0  0
 16 34  1  0  0  0
 16 35  1  0  0  0
 17 18  1  0  0  0
 17 22  1  0  0  0
 17 36  1  0  0  0
 18 19  1  0  0  0
 18 37  1  0  0  0
 18 38  1  0  0  0
 19 20  1  0  0  0
 19 39  1  0  0  0
 19 40  1  0  0  0
 20 21  1  0  0  0
 20 23  1  0  0  0
 20 41  1  0  0  0
 21 22  1  0  0  0
 21 42  1  0  0  0
 21 43  1  0  0  0
 22 44  1  0  0  0
 22 45  1  0  0  0
M  END
>  <Activity>
6.284

>  <set>
2

>  <Min_dist>
0.131148

>  <Avg_dist>
0.531596

$$$$
3-33
  Cerius2 12110214513D 1   1.00000                          
 
 40 42  0  0  0  0  0  0  0  0999 V2000
    1.9623    0.6186   -0.1155 C   0  0  0  0  0  0
    1.4363   -0.6412   -0.0526 N   0  0  0  0  0  0
    2.4912   -1.5095    0.0577 C   0  0  0  0  0  0
    3.6162   -0.7656    0.0589 C   0  0  0  0  0  0
    3.2718    0.5229   -0.0471 N   0  0  0  0  0  0
    5.0230   -1.2960    0.1622 C   0  0  0  0  0  0
    5.9272   -0.2289    0.1305 F   0  0  0  0  0  0
    5.1703   -1.9964    1.3642 F   0  0  0  0  0  0
    5.2776   -2.1550   -0.9123 F   0  0  0  0  0  0
    0.0773   -0.9806   -0.0930 C   0  0  0  0  0  0
   -0.4822   -1.7343    0.9300 C   0  0  0  0  0  0
   -1.8221   -2.0668    0.8876 C   0  0  0  0  0  0
   -2.6062   -1.6500   -0.1724 C   0  0  0  0  0  0
   -2.0518   -0.8992   -1.1928 C   0  0  0  0  0  0
   -0.7137   -0.5590   -1.1534 C   0  0  0  0  0  0
   -4.3149   -2.0767   -0.2233 S   0  0  0  0  0  0
   -4.6025   -2.0600   -1.6148 O   0  0  0  0  0  0
   -4.3641   -3.2720    0.5437 O   0  0  0  0  0  0
   -5.1119   -0.6950    0.6406 C   0  0  0  0  0  0
    1.1912    1.8737   -0.2448 C   0  0  0  0  0  0
   -0.0939    1.9651    0.2920 C   0  0  0  0  0  0
   -0.8078    3.1390    0.1684 C   0  0  0  0  0  0
   -0.2526    4.2242   -0.4865 C   0  0  0  0  0  0
    1.0206    4.1401   -1.0207 C   0  0  0  0  0  0
    1.7475    2.9735   -0.8989 C   0  0  0  0  0  0
   -2.1708    3.2378    0.7371 N   0  3  0  0  0  0
   -2.8023    4.2736    0.6287 O   0  0  0  0  0  0
   -2.6609    2.2832    1.3134 O   0  0  0  0  0  0
    2.4326   -2.5854    0.1304 H   0  0  0  0  0  0
    0.1297   -2.0605    1.7580 H   0  0  0  0  0  0
   -2.2578   -2.6534    1.6829 H   0  0  0  0  0  0
   -2.6666   -0.5754   -2.0196 H   0  0  0  0  0  0
   -0.2814    0.0276   -1.9504 H   0  0  0  0  0  0
   -6.1894   -0.8570    0.6687 H   0  0  0  0  0  0
   -4.7272   -0.6326    1.6586 H   0  0  0  0  0  0
   -4.8979    0.2349    0.1137 H   0  0  0  0  0  0
   -0.5286    1.1186    0.8028 H   0  0  0  0  0  0
   -0.8160    5.1408   -0.5812 H   0  0  0  0  0  0
    1.4481    4.9905   -1.5310 H   0  0  0  0  0  0
    2.7416    2.9092   -1.3161 H   0  0  0  0  0  0
  1  2  1  0  0  0
  1  5  2  0  0  0
  1 20  1  0  0  0
  2  3  1  0  0  0
  2 10  1  0  0  0
  3  4  2  0  0  0
  3 29  1  0  0  0
  4  5  1  0  0  0
  4  6  1  0  0  0
  6  7  1  0  0  0
  6  8  1  0  0  0
  6  9  1  0  0  0
 10 11  1  0  0  0
 10 15  2  0  0  0
 11 12  2  0  0  0
 11 30  1  0  0  0
 12 13  1  0  0  0
 12 31  1  0  0  0
 13 14  2  0  0  0
 13 16  1  0  0  0
 14 15  1  0  0  0
 14 32  1  0  0  0
 15 33  1  0  0  0
 16 17  2  0  0  0
 16 18  2  0  0  0
 16 19  1  0  0  0
 19 34  1  0  0  0
 19 35  1  0  0  0
 19 36  1  0  0  0
 20 21  1  0  0  0
 20 25  2  0  0  0
 21 22  2  0  0  0
 21 37  1  0  0  0
 22 23  1  0  0  0
 22 26  1  0  0  0
 23 24  2  0  0  0
 23 38  1  0  0  0
 24 25  1  0  0  0
 24 39  1  0  0  0
 25 40  1  0  0  0
 26 27  2  0  0  0
 26 28  1  0  0  0
M  CHG  1  26   1
M  END
>  <Activity>
6.23657

>  <set>
2

>  <Min_dist>
0.102564

>  <Avg_dist>
0.47995

$$$$
3-49
  Cerius2 12110214513D 1   1.00000                          
 
 43 45  0  0  0  0  0  0  0  0999 V2000
    1.9380    0.3101   -0.0165 C   0  0  0  0  0  0
    1.4195   -0.9544   -0.0392 N   0  0  0  0  0  0
    2.4818   -1.8223   -0.0118 C   0  0  0  0  0  0
    3.6021   -1.0737    0.0262 C   0  0  0  0  0  0
    3.2493    0.2177    0.0226 N   0  0  0  0  0  0
    5.0132   -1.6012    0.0660 C   0  0  0  0  0  0
    5.9112   -0.5289    0.0991 F   0  0  0  0  0  0
    5.1846   -2.3885    1.2096 F   0  0  0  0  0  0
    5.2537   -2.3759   -1.0738 F   0  0  0  0  0  0
    0.0618   -1.2988   -0.0817 C   0  0  0  0  0  0
   -0.4789   -2.1191    0.8993 C   0  0  0  0  0  0
   -1.8176   -2.4564    0.8549 C   0  0  0  0  0  0
   -2.6190   -1.9782   -0.1655 C   0  0  0  0  0  0
   -2.0834   -1.1610   -1.1440 C   0  0  0  0  0  0
   -0.7468   -0.8156   -1.1018 C   0  0  0  0  0  0
   -4.3260   -2.4116   -0.2193 S   0  0  0  0  0  0
   -4.6337   -2.3088   -1.6028 O   0  0  0  0  0  0
   -4.3577   -3.6532    0.4710 O   0  0  0  0  0  0
   -5.1178   -1.0923    0.7413 C   0  0  0  0  0  0
    1.1589    1.5657   -0.0387 C   0  0  0  0  0  0
   -0.1638    1.5764    0.4097 C   0  0  0  0  0  0
   -0.8875    2.7493    0.3882 C   0  0  0  0  0  0
   -0.3012    3.9216   -0.0802 C   0  0  0  0  0  0
    1.0150    3.9131   -0.5274 C   0  0  0  0  0  0
    1.7455    2.7446   -0.5024 C   0  0  0  0  0  0
   -1.0362    5.1076   -0.1014 N   0  0  0  0  0  0
   -0.4204    6.3422   -0.5941 C   0  0  0  0  0  0
   -2.5317    2.7643    0.9451 Cl  0  0  0  0  0  0
    2.4301   -2.9011   -0.0188 H   0  0  0  0  0  0
    0.1467   -2.4934    1.6961 H   0  0  0  0  0  0
   -2.2387   -3.0944    1.6177 H   0  0  0  0  0  0
   -2.7118   -0.7891   -1.9397 H   0  0  0  0  0  0
   -0.3290   -0.1773   -1.8663 H   0  0  0  0  0  0
   -6.1940   -1.2625    0.7742 H   0  0  0  0  0  0
   -4.7189   -1.0919    1.7557 H   0  0  0  0  0  0
   -4.9164   -0.1296    0.2714 H   0  0  0  0  0  0
   -0.6191    0.6668    0.7725 H   0  0  0  0  0  0
    1.4670    4.8241   -0.8909 H   0  0  0  0  0  0
    2.7681    2.7391   -0.8497 H   0  0  0  0  0  0
   -1.9547    5.1145    0.2101 H   0  0  0  0  0  0
   -1.1421    7.1569   -0.5348 H   0  0  0  0  0  0
    0.4501    6.5828    0.0162 H   0  0  0  0  0  0
   -0.1111    6.2056   -1.6304 H   0  0  0  0  0  0
  1  2  1  0  0  0
  1  5  2  0  0  0
  1 20  1  0  0  0
  2  3  1  0  0  0
  2 10  1  0  0  0
  3  4  2  0  0  0
  3 29  1  0  0  0
  4  5  1  0  0  0
  4  6  1  0  0  0
  6  7  1  0  0  0
  6  8  1  0  0  0
  6  9  1  0  0  0
 10 11  1  0  0  0
 10 15  2  0  0  0
 11 12  2  0  0  0
 11 30  1  0  0  0
 12 13  1  0  0  0
 12 31  1  0  0  0
 13 14  2  0  0  0
 13 16  1  0  0  0
 14 15  1  0  0  0
 14 32  1  0  0  0
 15 33  1  0  0  0
 16 17  2  0  0  0
 16 18  2  0  0  0
 16 19  1  0  0  0
 19 34  1  0  0  0
 19 35  1  0  0  0
 19 36  1  0  0  0
 20 21  1  0  0  0
 20 25  2  0  0  0
 21 22  2  0  0  0
 21 37  1  0  0  0
 22 23  1  0  0  0
 22 28  1  0  0  0
 23 24  2  0  0  0
 23 26  1  0  0  0
 24 25  1  0  0  0
 24 38  1  0  0  0
 25 39  1  0  0  0
 26 27  1  0  0  0
 26 40  1  0  0  0
 27 41  1  0  0  0
 27 42  1  0  0  0
 27 43  1  0  0  0
M  END
>  <Activity>
6.18046

>  <set>
2

>  <Min_dist>
0.05

>  <Avg_dist>
0.463522

$$$$
3-75
  Cerius2 12110214513D 1   1.00000                          
 
 41 43  0  0  0  0  0  0  0  0999 V2000
    1.7396   -0.2024    0.0779 C   0  0  0  0  0  0
    0.9170   -1.2905   -0.0067 N   0  0  0  0  0  0
    1.7223   -2.3996   -0.0242 C   0  0  0  0  0  0
    2.9964   -1.9634    0.0492 C   0  0  0  0  0  0
    2.9834   -0.6269    0.1103 N   0  0  0  0  0  0
    4.2264   -2.8341    0.0609 C   0  0  0  0  0  0
    5.3671   -2.0286    0.1456 F   0  0  0  0  0  0
    4.1792   -3.6931    1.1640 F   0  0  0  0  0  0
    4.2748   -3.5887   -1.1161 F   0  0  0  0  0  0
   -0.4831   -1.2752   -0.0646 C   0  0  0  0  0  0
   -1.2259   -1.9721    0.8790 C   0  0  0  0  0  0
   -2.6057   -1.9547    0.8197 C   0  0  0  0  0  0
   -3.2474   -1.2443   -0.1782 C   0  0  0  0  0  0
   -2.5103   -0.5493   -1.1193 C   0  0  0  0  0  0
   -1.1303   -0.5585   -1.0621 C   0  0  0  0  0  0
   -5.0077   -1.2251   -0.2509 S   0  0  0  0  0  0
   -5.3351   -0.9059   -1.5963 O   0  0  0  0  0  0
   -5.4356   -2.3870    0.4463 O   0  0  0  0  0  0
   -5.5267    0.0600    0.6555 N   0  0  0  0  0  0
    1.3053    1.2106    0.1194 C   0  0  0  0  0  0
    0.0027    1.5313    0.5020 C   0  0  0  0  0  0
   -0.3976    2.8563    0.5393 C   0  0  0  0  0  0
    0.4957    3.8622    0.1961 C   0  0  0  0  0  0
    1.7880    3.5462   -0.1837 C   0  0  0  0  0  0
    2.1987    2.2277   -0.2185 C   0  0  0  0  0  0
    2.8982    4.8103   -0.6117 Cl  0  0  0  0  0  0
   -1.6658    3.1724    0.9116 O   0  0  0  0  0  0
   -1.7714    4.5962    0.8511 C   0  0  0  0  0  0
    1.3979   -3.4279   -0.0849 H   0  0  0  0  0  0
   -0.7253   -2.5274    1.6584 H   0  0  0  0  0  0
   -3.1840   -2.4969    1.5532 H   0  0  0  0  0  0
   -3.0142    0.0044   -1.8977 H   0  0  0  0  0  0
   -0.5552   -0.0152   -1.7973 H   0  0  0  0  0  0
   -6.4757    0.2418    0.7406 H   0  0  0  0  0  0
   -4.8816    0.6311    1.1013 H   0  0  0  0  0  0
   -0.6918    0.7483    0.7682 H   0  0  0  0  0  0
    0.1807    4.8948    0.2254 H   0  0  0  0  0  0
    3.2081    1.9838   -0.5153 H   0  0  0  0  0  0
   -2.7771    4.8987    1.1429 H   0  0  0  0  0  0
   -1.0459    5.0435    1.5305 H   0  0  0  0  0  0
   -1.5717    4.9324   -0.1664 H   0  0  0  0  0  0
  1  2  1  0  0  0
  1  5  2  0  0  0
  1 20  1  0  0  0
  2  3  1  0  0  0
  2 10  1  0  0  0
  3  4  2  0  0  0
  3 29  1  0  0  0
  4  5  1  0  0  0
  4  6  1  0  0  0
  6  7  1  0  0  0
  6  8  1  0  0  0
  6  9  1  0  0  0
 10 11  1  0  0  0
 10 15  2  0  0  0
 11 12  2  0  0  0
 11 30  1  0  0  0
 12 13  1  0  0  0
 12 31  1  0  0  0
 13 14  2  0  0  0
 13 16  1  0  0  0
 14 15  1  0  0  0
 14 32  1  0  0  0
 15 33  1  0  0  0
 16 17  2  0  0  0
 16 18  2  0  0  0
 16 19  1  0  0  0
 19 34  1  0  0  0
 19 35  1  0  0  0
 20 21  1  0  0  0
 20 25  2  0  0  0
 21 22  2  0  0  0
 21 36  1  0  0  0
 22 23  1  0  0  0
 22 27  1  0  0  0
 23 24  2  0  0  0
 23 37  1  0  0  0
 24 25  1  0  0  0
 24 26  1  0  0  0
 25 38  1  0  0  0
 27 28  1  0  0  0
 28 39  1  0  0  0
 28 40  1  0  0  0
 28 41  1  0  0  0
M  END
>  <Activity>
6.33724

>  <set>
2

>  <Min_dist>
0.084337

>  <Avg_dist>
0.469872

$$$$
3-80
  Cerius2 12110214513D 1   1.00000                          
 
 48 50  0  0  0  0  0  0  0  0999 V2000
    1.7359    0.1046    0.1128 C   0  0  0  0  0  0
    1.0418   -1.0693    0.0221 N   0  0  0  0  0  0
    1.9678   -2.0812    0.0107 C   0  0  0  0  0  0
    3.1835   -1.5045    0.0936 C   0  0  0  0  0  0
    3.0197   -0.1774    0.1545 N   0  0  0  0  0  0
    4.5036   -2.2310    0.1141 C   0  0  0  0  0  0
    5.5457   -1.3022    0.2075 F   0  0  0  0  0  0
    4.5455   -3.0912    1.2167 F   0  0  0  0  0  0
    4.6453   -2.9741   -1.0627 F   0  0  0  0  0  0
   -0.3507   -1.2119   -0.0456 C   0  0  0  0  0  0
   -1.0145   -2.0050    0.8808 C   0  0  0  0  0  0
   -2.3870   -2.1433    0.8118 C   0  0  0  0  0  0
   -3.1000   -1.4928   -0.1786 C   0  0  0  0  0  0
   -2.4417   -0.7023   -1.1026 C   0  0  0  0  0  0
   -1.0699   -0.5559   -1.0356 C   0  0  0  0  0  0
   -4.8508   -1.6721   -0.2636 S   0  0  0  0  0  0
   -5.1247   -1.4410   -1.6386 O   0  0  0  0  0  0
   -5.0680   -2.9365    0.3475 O   0  0  0  0  0  0
   -5.4562   -0.3145    0.7760 C   0  0  0  0  0  0
    1.1454    1.4590    0.1509 C   0  0  0  0  0  0
    1.6295    2.4579   -0.6962 C   0  0  0  0  0  0
    1.0763    3.7194   -0.6576 C   0  0  0  0  0  0
    0.0386    3.9981    0.2227 C   0  0  0  0  0  0
   -0.4457    3.0075    1.0667 C   0  0  0  0  0  0
    0.0983    1.7413    1.0298 C   0  0  0  0  0  0
   -1.5716    3.3152    2.0199 C   0  0  0  0  0  0
   -0.5036    5.2432    0.2584 O   0  0  0  0  0  0
    0.1965    6.0264   -0.7103 C   0  0  0  0  0  0
    2.7559    2.1569   -1.6510 C   0  0  0  0  0  0
    1.7619   -3.1395   -0.0524 H   0  0  0  0  0  0
   -0.4582   -2.5135    1.6542 H   0  0  0  0  0  0
   -2.9039   -2.7603    1.5319 H   0  0  0  0  0  0
   -3.0011   -0.1958   -1.8751 H   0  0  0  0  0  0
   -0.5563    0.0620   -1.7573 H   0  0  0  0  0  0
   -6.5459   -0.3299    0.7955 H   0  0  0  0  0  0
   -5.0730   -0.4341    1.7894 H   0  0  0  0  0  0
   -5.1136    0.6363    0.3679 H   0  0  0  0  0  0
    1.4502    4.4926   -1.3125 H   0  0  0  0  0  0
   -0.2789    0.9714    1.6865 H   0  0  0  0  0  0
   -2.5255    3.1124    1.5330 H   0  0  0  0  0  0
   -1.4769    2.6904    2.9080 H   0  0  0  0  0  0
   -1.5269    4.3655    2.3082 H   0  0  0  0  0  0
   -0.2059    7.0394   -0.7181 H   0  0  0  0  0  0
    1.2557    6.0582   -0.4551 H   0  0  0  0  0  0
    0.0737    5.5791   -1.6967 H   0  0  0  0  0  0
    2.3456    1.8068   -2.5982 H   0  0  0  0  0  0
    3.3402    3.0613   -1.8203 H   0  0  0  0  0  0
    3.3967    1.3848   -1.2251 H   0  0  0  0  0  0
  1  2  1  0  0  0
  1  5  2  0  0  0
  1 20  1  0  0  0
  2  3  1  0  0  0
  2 10  1  0  0  0
  3  4  2  0  0  0
  3 30  1  0  0  0
  4  5  1  0  0  0
  4  6  1  0  0  0
  6  7  1  0  0  0
  6  8  1  0  0  0
  6  9  1  0  0  0
 10 11  1  0  0  0
 10 15  2  0  0  0
 11 12  2  0  0  0
 11 31  1  0  0  0
 12 13  1  0  0  0
 12 32  1  0  0  0
 13 14  2  0  0  0
 13 16  1  0  0  0
 14 15  1  0  0  0
 14 33  1  0  0  0
 15 34  1  0  0  0
 16 17  2  0  0  0
 16 18  2  0  0  0
 16 19  1  0  0  0
 19 35  1  0  0  0
 19 36  1  0  0  0
 19 37  1  0  0  0
 20 21  1  0  0  0
 20 25  2  0  0  0
 21 22  2  0  0  0
 21 29  1  0  0  0
 22 23  1  0  0  0
 22 38  1  0  0  0
 23 24  2  0  0  0
 23 27  1  0  0  0
 24 25  1  0  0  0
 24 26  1  0  0  0
 25 39  1  0  0  0
 26 40  1  0  0  0
 26 41  1  0  0  0
 26 42  1  0  0  0
 27 28  1  0  0  0
 28 43  1  0  0  0
 28 44  1  0  0  0
 28 45  1  0  0  0
 29 46  1  0  0  0
 29 47  1  0  0  0
 29 48  1  0  0  0
M  END
>  <Activity>
4.91364

>  <set>
2

>  <Min_dist>
0.060976

>  <Avg_dist>
0.468192

$$$$
3-91
  Cerius2 12110214513D 1   1.00000                          
 
 44 46  0  0  0  0  0  0  0  0999 V2000
    1.5644    0.3118    0.0162 C   0  0  0  0  0  0
    0.9467   -0.9100   -0.0231 N   0  0  0  0  0  0
    1.9228   -1.8582   -0.0394 C   0  0  0  0  0  0
    3.1189   -1.1984   -0.0098 C   0  0  0  0  0  0
    2.8621    0.1264    0.0237 N   0  0  0  0  0  0
    4.4523   -1.8221   -0.0138 C   0  0  0  0  0  0
    4.5569   -3.0326   -0.0457 O   0  0  0  0  0  0
    5.5573   -1.0507    0.0179 O   0  0  0  0  0  0
    6.8725   -1.6660    0.0139 C   0  0  0  0  0  0
    7.9455   -0.5760    0.0540 C   0  0  0  0  0  0
   -0.4353   -1.1410   -0.0428 C   0  0  0  0  0  0
   -1.0194   -1.9487    0.9238 C   0  0  0  0  0  0
   -2.3818   -2.1745    0.9017 C   0  0  0  0  0  0
   -3.1639   -1.5972   -0.0817 C   0  0  0  0  0  0
   -2.5850   -0.7927   -1.0460 C   0  0  0  0  0  0
   -1.2240   -0.5581   -1.0255 C   0  0  0  0  0  0
   -4.9016   -1.8878   -0.1065 S   0  0  0  0  0  0
   -5.2309   -1.7119   -1.4776 O   0  0  0  0  0  0
   -5.0199   -3.1461    0.5431 O   0  0  0  0  0  0
   -5.5602   -0.5426    0.9169 C   0  0  0  0  0  0
    0.8807    1.6231    0.0396 C   0  0  0  0  0  0
   -0.3754    1.7475    0.6346 C   0  0  0  0  0  0
   -1.0081    2.9730    0.6539 C   0  0  0  0  0  0
   -0.3993    4.0786    0.0841 C   0  0  0  0  0  0
    0.8469    3.9610   -0.5081 C   0  0  0  0  0  0
    1.4918    2.7418   -0.5279 C   0  0  0  0  0  0
   -1.2018    5.6177    0.1116 Cl  0  0  0  0  0  0
    1.7793   -2.9282   -0.0696 H   0  0  0  0  0  0
    6.9753   -2.3093    0.8878 H   0  0  0  0  0  0
    6.9926   -2.2609   -0.8915 H   0  0  0  0  0  0
    8.9328   -1.0379    0.0510 H   0  0  0  0  0  0
    7.8427    0.0673   -0.8199 H   0  0  0  0  0  0
    7.8254    0.0190    0.9593 H   0  0  0  0  0  0
   -0.4090   -2.4001    1.6919 H   0  0  0  0  0  0
   -2.8366   -2.8030    1.6531 H   0  0  0  0  0  0
   -3.1984   -0.3435   -1.8130 H   0  0  0  0  0  0
   -0.7725    0.0706   -1.7787 H   0  0  0  0  0  0
   -6.6456   -0.6255    0.9714 H   0  0  0  0  0  0
   -5.1398   -0.6103    1.9203 H   0  0  0  0  0  0
   -5.2908    0.4162    0.4741 H   0  0  0  0  0  0
   -0.8515    0.8857    1.0787 H   0  0  0  0  0  0
   -1.9803    3.0705    1.1141 H   0  0  0  0  0  0
    1.3167    4.8265   -0.9516 H   0  0  0  0  0  0
    2.4639    2.6514   -0.9897 H   0  0  0  0  0  0
  1  2  1  0  0  0
  1  5  2  0  0  0
  1 21  1  0  0  0
  2  3  1  0  0  0
  2 11  1  0  0  0
  3  4  2  0  0  0
  3 28  1  0  0  0
  4  5  1  0  0  0
  4  6  1  0  0  0
  6  7  2  0  0  0
  6  8  1  0  0  0
  8  9  1  0  0  0
  9 10  1  0  0  0
  9 29  1  0  0  0
  9 30  1  0  0  0
 10 31  1  0  0  0
 10 32  1  0  0  0
 10 33  1  0  0  0
 11 12  1  0  0  0
 11 16  2  0  0  0
 12 13  2  0  0  0
 12 34  1  0  0  0
 13 14  1  0  0  0
 13 35  1  0  0  0
 14 15  2  0  0  0
 14 17  1  0  0  0
 15 16  1  0  0  0
 15 36  1  0  0  0
 16 37  1  0  0  0
 17 18  2  0  0  0
 17 19  2  0  0  0
 17 20  1  0  0  0
 20 38  1  0  0  0
 20 39  1  0  0  0
 20 40  1  0  0  0
 21 22  1  0  0  0
 21 26  2  0  0  0
 22 23  2  0  0  0
 22 41  1  0  0  0
 23 24  1  0  0  0
 23 42  1  0  0  0
 24 25  2  0  0  0
 24 27  1  0  0  0
 25 26  1  0  0  0
 25 43  1  0  0  0
 26 44  1  0  0  0
M  END
>  <Activity>
5.24413

>  <set>
2

>  <Min_dist>
0.144444

>  <Avg_dist>
0.564478

$$$$
3-101
  Cerius2 12110214513D 1   1.00000                          
 
 42 44  0  0  0  0  0  0  0  0999 V2000
    1.7788    0.4631    0.3620 C   0  0  0  0  0  0
    1.2290   -0.7879    0.3427 N   0  0  0  0  0  0
    2.2606   -1.6799    0.4838 C   0  0  0  0  0  0
    3.3954   -0.9582    0.5839 C   0  0  0  0  0  0
    3.0797    0.3399    0.5076 N   0  0  0  0  0  0
    4.7839   -1.5188    0.7537 C   0  0  0  0  0  0
    5.5263   -1.7993   -0.8775 S   0  0  0  0  0  0
    7.1426   -2.4551   -0.3794 C   0  0  0  0  0  0
   -0.1303   -1.0997    0.2052 C   0  0  0  0  0  0
   -0.7700   -1.8638    1.1720 C   0  0  0  0  0  0
   -2.1099   -2.1690    1.0340 C   0  0  0  0  0  0
   -2.8143   -1.7143   -0.0656 C   0  0  0  0  0  0
   -2.1800   -0.9535   -1.0304 C   0  0  0  0  0  0
   -0.8416   -0.6402   -0.8951 C   0  0  0  0  0  0
   -4.5236   -2.1058   -0.2381 S   0  0  0  0  0  0
   -4.7183   -2.0541   -1.6448 O   0  0  0  0  0  0
   -4.6455   -3.3157    0.4971 O   0  0  0  0  0  0
   -5.3502   -0.7269    0.6022 C   0  0  0  0  0  0
    1.0384    1.7365    0.2346 C   0  0  0  0  0  0
   -0.3295    1.7819    0.5082 C   0  0  0  0  0  0
   -1.0149    2.9728    0.3876 C   0  0  0  0  0  0
   -0.3486    4.1218   -0.0041 C   0  0  0  0  0  0
    1.0084    4.0828   -0.2773 C   0  0  0  0  0  0
    1.7057    2.8990   -0.1541 C   0  0  0  0  0  0
   -1.2180    5.6170   -0.1537 Cl  0  0  0  0  0  0
    2.1797   -2.7565    0.5102 H   0  0  0  0  0  0
    5.3952   -0.8116    1.3143 H   0  0  0  0  0  0
    4.7308   -2.4629    1.2959 H   0  0  0  0  0  0
    7.7319   -2.6823   -1.2678 H   0  0  0  0  0  0
    7.6657   -1.7130    0.2236 H   0  0  0  0  0  0
    7.0013   -3.3642    0.2052 H   0  0  0  0  0  0
   -0.2202   -2.2195    2.0309 H   0  0  0  0  0  0
   -2.6079   -2.7637    1.7855 H   0  0  0  0  0  0
   -2.7326   -0.6004   -1.8885 H   0  0  0  0  0  0
   -0.3467   -0.0456   -1.6487 H   0  0  0  0  0  0
   -6.4300   -0.8680    0.5558 H   0  0  0  0  0  0
   -5.0326   -0.6936    1.6444 H   0  0  0  0  0  0
   -5.0847    0.2094    0.1114 H   0  0  0  0  0  0
   -0.8503    0.8864    0.8134 H   0  0  0  0  0  0
   -2.0735    3.0091    0.5987 H   0  0  0  0  0  0
    1.5227    4.9820   -0.5827 H   0  0  0  0  0  0
    2.7641    2.8698   -0.3672 H   0  0  0  0  0  0
  1  2  1  0  0  0
  1  5  2  0  0  0
  1 19  1  0  0  0
  2  3  1  0  0  0
  2  9  1  0  0  0
  3  4  2  0  0  0
  3 26  1  0  0  0
  4  5  1  0  0  0
  4  6  1  0  0  0
  6  7  1  0  0  0
  6 27  1  0  0  0
  6 28  1  0  0  0
  7  8  1  0  0  0
  8 29  1  0  0  0
  8 30  1  0  0  0
  8 31  1  0  0  0
  9 10  1  0  0  0
  9 14  2  0  0  0
 10 11  2  0  0  0
 10 32  1  0  0  0
 11 12  1  0  0  0
 11 33  1  0  0  0
 12 13  2  0  0  0
 12 15  1  0  0  0
 13 14  1  0  0  0
 13 34  1  0  0  0
 14 35  1  0  0  0
 15 16  2  0  0  0
 15 17  2  0  0  0
 15 18  1  0  0  0
 18 36  1  0  0  0
 18 37  1  0  0  0
 18 38  1  0  0  0
 19 20  1  0  0  0
 19 24  2  0  0  0
 20 21  2  0  0  0
 20 39  1  0  0  0
 21 22  1  0  0  0
 21 40  1  0  0  0
 22 23  2  0  0  0
 22 25  1  0  0  0
 23 24  1  0  0  0
 23 41  1  0  0  0
 24 42  1  0  0  0
M  END
>  <Activity>
6.49485

>  <set>
2

>  <Min_dist>
0.098765

>  <Avg_dist>
0.510252

$$$$
3-103
  Cerius2 12110214513D 1   1.00000                          
 
 39 41  0  0  0  0  0  0  0  0999 V2000
    2.1107   -0.4195    0.2944 C   0  0  0  0  0  0
    1.1949   -1.4332    0.2560 N   0  0  0  0  0  0
    1.8950   -2.6079    0.3543 C   0  0  0  0  0  0
    3.2003   -2.2827    0.4487 C   0  0  0  0  0  0
    3.3083   -0.9495    0.4103 N   0  0  0  0  0  0
    4.3438   -3.2560    0.5763 C   0  0  0  0  0  0
    5.2618   -3.0864   -0.5618 C   0  0  0  0  0  0
    5.9702   -2.9556   -1.4401 N   0  0  0  0  0  0
   -0.1950   -1.2977    0.1389 C   0  0  0  0  0  0
   -1.0312   -1.8503    1.0997 C   0  0  0  0  0  0
   -2.4006   -1.7147    0.9818 C   0  0  0  0  0  0
   -2.9390   -1.0295   -0.0918 C   0  0  0  0  0  0
   -2.1089   -0.4785   -1.0506 C   0  0  0  0  0  0
   -0.7384   -0.6058   -0.9352 C   0  0  0  0  0  0
   -4.6866   -0.8586   -0.2387 S   0  0  0  0  0  0
   -4.8716   -0.7069   -1.6394 O   0  0  0  0  0  0
   -5.1743   -1.9901    0.4692 O   0  0  0  0  0  0
   -5.0272    0.6847    0.6515 C   0  0  0  0  0  0
    1.8072    1.0253    0.2132 C   0  0  0  0  0  0
    0.5265    1.4902    0.5157 C   0  0  0  0  0  0
    0.2493    2.8392    0.4381 C   0  0  0  0  0  0
    1.2387    3.7316    0.0609 C   0  0  0  0  0  0
    2.5111    3.2761   -0.2409 C   0  0  0  0  0  0
    2.8019    1.9301   -0.1608 C   0  0  0  0  0  0
    0.8824    5.4279   -0.0345 Cl  0  0  0  0  0  0
    1.4797   -3.6049    0.3562 H   0  0  0  0  0  0
    4.8796   -3.0671    1.5066 H   0  0  0  0  0  0
    3.9552   -4.2744    0.5812 H   0  0  0  0  0  0
   -0.6112   -2.3859    1.9383 H   0  0  0  0  0  0
   -3.0515   -2.1446    1.7287 H   0  0  0  0  0  0
   -2.5323    0.0555   -1.8884 H   0  0  0  0  0  0
   -0.0905   -0.1749   -1.6841 H   0  0  0  0  0  0
   -6.0971    0.8916    0.6238 H   0  0  0  0  0  0
   -4.7030    0.5858    1.6875 H   0  0  0  0  0  0
   -4.4863    1.5042    0.1782 H   0  0  0  0  0  0
   -0.2460    0.7951    0.8097 H   0  0  0  0  0  0
   -0.7415    3.2001    0.6716 H   0  0  0  0  0  0
    3.2787    3.9767   -0.5348 H   0  0  0  0  0  0
    3.7947    1.5761   -0.3961 H   0  0  0  0  0  0
  1  2  1  0  0  0
  1  5  2  0  0  0
  1 19  1  0  0  0
  2  3  1  0  0  0
  2  9  1  0  0  0
  3  4  2  0  0  0
  3 26  1  0  0  0
  4  5  1  0  0  0
  4  6  1  0  0  0
  6  7  1  0  0  0
  6 27  1  0  0  0
  6 28  1  0  0  0
  7  8  3  0  0  0
  9 10  1  0  0  0
  9 14  2  0  0  0
 10 11  2  0  0  0
 10 29  1  0  0  0
 11 12  1  0  0  0
 11 30  1  0  0  0
 12 13  2  0  0  0
 12 15  1  0  0  0
 13 14  1  0  0  0
 13 31  1  0  0  0
 14 32  1  0  0  0
 15 16  2  0  0  0
 15 17  2  0  0  0
 15 18  1  0  0  0
 18 33  1  0  0  0
 18 34  1  0  0  0
 18 35  1  0  0  0
 19 20  1  0  0  0
 19 24  2  0  0  0
 20 21  2  0  0  0
 20 36  1  0  0  0
 21 22  1  0  0  0
 21 37  1  0  0  0
 22 23  2  0  0  0
 22 25  1  0  0  0
 23 24  1  0  0  0
 23 38  1  0  0  0
 24 39  1  0  0  0
M  END
>  <Activity>
5.81248

>  <set>
2

>  <Min_dist>
0.171053

>  <Avg_dist>
0.513158

$$$$
3-29
  Cerius2 12110214513D 1   1.00000                          
 
 45 47  0  0  0  0  0  0  0  0999 V2000
    1.9858    0.6469   -0.1683 C   0  0  0  0  0  0
    1.4839   -0.6182   -0.0444 N   0  0  0  0  0  0
    2.5536   -1.4567    0.1336 C   0  0  0  0  0  0
    3.6633   -0.6904    0.1137 C   0  0  0  0  0  0
    3.2953    0.5827   -0.0707 N   0  0  0  0  0  0
    5.0781   -1.1845    0.2727 C   0  0  0  0  0  0
    5.9613   -0.1020    0.1976 F   0  0  0  0  0  0
    5.2157   -1.8133    1.5148 F   0  0  0  0  0  0
    5.3709   -2.0967   -0.7467 F   0  0  0  0  0  0
    0.1329   -0.9878   -0.0902 C   0  0  0  0  0  0
   -0.4361   -1.6769    0.9723 C   0  0  0  0  0  0
   -1.7679   -2.0398    0.9242 C   0  0  0  0  0  0
   -2.5342   -1.7179   -0.1809 C   0  0  0  0  0  0
   -1.9703   -1.0317   -1.2407 C   0  0  0  0  0  0
   -0.6407   -0.6606   -1.1958 C   0  0  0  0  0  0
   -4.2325   -2.1837   -0.2390 S   0  0  0  0  0  0
   -4.4868   -2.2743   -1.6341 O   0  0  0  0  0  0
   -4.2766   -3.3208    0.6120 O   0  0  0  0  0  0
   -5.0771   -0.7602    0.5033 C   0  0  0  0  0  0
    1.1925    1.8763   -0.3819 C   0  0  0  0  0  0
   -0.1634    1.9017   -0.0516 C   0  0  0  0  0  0
   -0.8978    3.0518   -0.2533 C   0  0  0  0  0  0
   -0.2933    4.1785   -0.7823 C   0  0  0  0  0  0
    1.0500    4.1598   -1.1122 C   0  0  0  0  0  0
    1.7975    3.0178   -0.9091 C   0  0  0  0  0  0
   -2.3619    3.0811    0.1027 C   0  0  0  0  0  0
   -2.5140    3.5068    1.4583 O   0  0  0  0  0  0
   -3.9161    3.5140    1.7341 C   0  0  0  0  0  0
    2.5151   -2.5279    0.2652 H   0  0  0  0  0  0
    0.1621   -1.9292    1.8354 H   0  0  0  0  0  0
   -2.2111   -2.5759    1.7504 H   0  0  0  0  0  0
   -2.5713   -0.7819   -2.1026 H   0  0  0  0  0  0
   -0.2009   -0.1243   -2.0236 H   0  0  0  0  0  0
   -6.1516   -0.9427    0.5188 H   0  0  0  0  0  0
   -4.7184   -0.6158    1.5224 H   0  0  0  0  0  0
   -4.8688    0.1333   -0.0853 H   0  0  0  0  0  0
   -0.6365    1.0228    0.3607 H   0  0  0  0  0  0
   -0.8728    5.0764   -0.9386 H   0  0  0  0  0  0
    1.5158    5.0424   -1.5250 H   0  0  0  0  0  0
    2.8462    3.0045   -1.1668 H   0  0  0  0  0  0
   -2.8823    3.7756   -0.5568 H   0  0  0  0  0  0
   -2.7843    2.0831   -0.0143 H   0  0  0  0  0  0
   -4.0825    3.8340    2.7627 H   0  0  0  0  0  0
   -4.4167    4.2029    1.0538 H   0  0  0  0  0  0
   -4.3187    2.5105    1.5963 H   0  0  0  0  0  0
  1  2  1  0  0  0
  1  5  2  0  0  0
  1 20  1  0  0  0
  2  3  1  0  0  0
  2 10  1  0  0  0
  3  4  2  0  0  0
  3 29  1  0  0  0
  4  5  1  0  0  0
  4  6  1  0  0  0
  6  7  1  0  0  0
  6  8  1  0  0  0
  6  9  1  0  0  0
 10 11  1  0  0  0
 10 15  2  0  0  0
 11 12  2  0  0  0
 11 30  1  0  0  0
 12 13  1  0  0  0
 12 31  1  0  0  0
 13 14  2  0  0  0
 13 16  1  0  0  0
 14 15  1  0  0  0
 14 32  1  0  0  0
 15 33  1  0  0  0
 16 17  2  0  0  0
 16 18  2  0  0  0
 16 19  1  0  0  0
 19 34  1  0  0  0
 19 35  1  0  0  0
 19 36  1  0  0  0
 20 21  1  0  0  0
 20 25  2  0  0  0
 21 22  2  0  0  0
 21 37  1  0  0  0
 22 23  1  0  0  0
 22 26  1  0  0  0
 23 24  2  0  0  0
 23 38  1  0  0  0
 24 25  1  0  0  0
 24 39  1  0  0  0
 25 40  1  0  0  0
 26 27  1  0  0  0
 26 41  1  0  0  0
 26 42  1  0  0  0
 27 28  1  0  0  0
 28 43  1  0  0  0
 28 44  1  0  0  0
 28 45  1  0  0  0
M  END
>  <Activity>
4.16685

>  <set>
2

>  <Min_dist>
0.116883

>  <Avg_dist>
0.469337

$$$$
4-59
  Cerius2 12110214513D 1   1.00000                          
 
 35 37  0  0  0  0  0  0  0  0999 V2000
    2.4613    0.0820    0.0351 C   0  0  0  0  0  0
    1.5574   -0.9443   -0.0234 N   0  0  0  0  0  0
    2.2663   -2.1080   -0.0607 C   0  0  0  0  0  0
    3.5887   -1.7687   -0.0241 C   0  0  0  0  0  0
    3.6716   -0.4235    0.0341 N   0  0  0  0  0  0
    4.6929   -2.6803   -0.0436 C   0  0  0  0  0  0
    5.5689   -3.4034   -0.0591 N   0  0  0  0  0  0
    0.1617   -0.8214   -0.0413 C   0  0  0  0  0  0
   -0.6052   -1.4579    0.9255 C   0  0  0  0  0  0
   -1.9807   -1.3349    0.9052 C   0  0  0  0  0  0
   -2.5943   -0.5791   -0.0769 C   0  0  0  0  0  0
   -1.8333    0.0560   -1.0411 C   0  0  0  0  0  0
   -0.4569   -0.0582   -1.0224 C   0  0  0  0  0  0
   -4.3494   -0.4256   -0.1001 S   0  0  0  0  0  0
   -4.6253   -0.1713   -1.4706 O   0  0  0  0  0  0
   -4.7783   -1.6149    0.5486 O   0  0  0  0  0  0
   -4.6496    1.0405    0.9253 C   0  0  0  0  0  0
    2.1286    1.5222    0.0848 C   0  0  0  0  0  0
    0.8596    1.9456    0.4967 C   0  0  0  0  0  0
    0.5990    3.3041    0.5260 C   0  0  0  0  0  0
    1.5913    4.1922    0.1509 C   0  0  0  0  0  0
    2.7784    3.7641   -0.2330 N   0  0  0  0  0  0
    3.0760    2.4817   -0.2725 C   0  0  0  0  0  0
    1.8599   -3.1074   -0.1097 H   0  0  0  0  0  0
   -0.1265   -2.0489    1.6924 H   0  0  0  0  0  0
   -2.5777   -1.8297    1.6569 H   0  0  0  0  0  0
   -2.3154    0.6456   -1.8069 H   0  0  0  0  0  0
    0.1369    0.4384   -1.7756 H   0  0  0  0  0  0
   -5.7212    1.2318    0.9808 H   0  0  0  0  0  0
   -4.2587    0.8686    1.9282 H   0  0  0  0  0  0
   -4.1492    1.9019    0.4829 H   0  0  0  0  0  0
    0.1033    1.2302    0.7839 H   0  0  0  0  0  0
   -0.3690    3.6675    0.8380 H   0  0  0  0  0  0
    1.3905    5.2531    0.1725 H   0  0  0  0  0  0
    4.0593    2.1699   -0.5925 H   0  0  0  0  0  0
  1  2  1  0  0  0
  1  5  2  0  0  0
  1 18  1  0  0  0
  2  3  1  0  0  0
  2  8  1  0  0  0
  3  4  2  0  0  0
  3 24  1  0  0  0
  4  5  1  0  0  0
  4  6  1  0  0  0
  6  7  3  0  0  0
  8  9  1  0  0  0
  8 13  2  0  0  0
  9 10  2  0  0  0
  9 25  1  0  0  0
 10 11  1  0  0  0
 10 26  1  0  0  0
 11 12  2  0  0  0
 11 14  1  0  0  0
 12 13  1  0  0  0
 12 27  1  0  0  0
 13 28  1  0  0  0
 14 15  2  0  0  0
 14 16  2  0  0  0
 14 17  1  0  0  0
 17 29  1  0  0  0
 17 30  1  0  0  0
 17 31  1  0  0  0
 18 19  1  0  0  0
 18 23  2  0  0  0
 19 20  2  0  0  0
 19 32  1  0  0  0
 20 21  1  0  0  0
 20 33  1  0  0  0
 21 22  2  0  0  0
 21 34  1  0  0  0
 22 23  1  0  0  0
 23 35  1  0  0  0
M  END
>  <Activity>
4.61261

>  <set>
2

>  <Min_dist>
0.105263

>  <Avg_dist>
0.524799

$$$$
4-63
  Cerius2 12110214513D 1   1.00000                          
 
 36 38  0  0  0  0  0  0  0  0999 V2000
    2.0883    0.5309   -0.0698 C   0  0  0  0  0  0
    1.3053   -0.5860   -0.1545 N   0  0  0  0  0  0
    2.1510   -1.6593   -0.2632 C   0  0  0  0  0  0
    3.4092   -1.1742   -0.2422 C   0  0  0  0  0  0
    3.3476    0.1572   -0.1242 N   0  0  0  0  0  0
    4.6709   -1.9930   -0.3357 C   0  0  0  0  0  0
    5.6970   -1.3503    0.3653 F   0  0  0  0  0  0
    4.4483   -3.2578    0.2191 F   0  0  0  0  0  0
   -0.0953   -0.6264   -0.1333 C   0  0  0  0  0  0
   -0.7549   -1.3903    0.8201 C   0  0  0  0  0  0
   -2.1354   -1.4277    0.8387 C   0  0  0  0  0  0
   -2.8606   -0.7057   -0.0913 C   0  0  0  0  0  0
   -2.2066    0.0560   -1.0421 C   0  0  0  0  0  0
   -0.8263    0.1020   -1.0622 C   0  0  0  0  0  0
   -4.6217   -0.7570   -0.0650 S   0  0  0  0  0  0
   -5.0379   -0.3987   -1.3756 O   0  0  0  0  0  0
   -4.9629   -1.9624    0.6057 O   0  0  0  0  0  0
   -5.1380    0.4686    0.9218 N   0  0  0  0  0  0
    1.6023    1.9219    0.0551 C   0  0  0  0  0  0
    0.3049    2.1842    0.5107 C   0  0  0  0  0  0
   -0.1013    3.5031    0.6096 C   0  0  0  0  0  0
    0.7791    4.5109    0.2584 C   0  0  0  0  0  0
    1.9961    4.2338   -0.1683 N   0  0  0  0  0  0
    2.4310    2.9950   -0.2736 C   0  0  0  0  0  0
    1.8641   -2.6970   -0.3492 H   0  0  0  0  0  0
    4.9576   -2.1005   -1.3819 H   0  0  0  0  0  0
   -0.1890   -1.9550    1.5463 H   0  0  0  0  0  0
   -2.6490   -2.0218    1.5802 H   0  0  0  0  0  0
   -2.7757    0.6189   -1.7672 H   0  0  0  0  0  0
   -0.3161    0.6972   -1.8050 H   0  0  0  0  0  0
   -6.0870    0.6072    1.0671 H   0  0  0  0  0  0
   -4.4914    1.0479    1.3545 H   0  0  0  0  0  0
   -0.3620    1.3778    0.7779 H   0  0  0  0  0  0
   -1.0953    3.7434    0.9569 H   0  0  0  0  0  0
    0.4647    5.5413    0.3346 H   0  0  0  0  0  0
    3.4343    2.8080   -0.6267 H   0  0  0  0  0  0
  1  2  1  0  0  0
  1  5  2  0  0  0
  1 19  1  0  0  0
  2  3  1  0  0  0
  2  9  1  0  0  0
  3  4  2  0  0  0
  3 25  1  0  0  0
  4  5  1  0  0  0
  4  6  1  0  0  0
  6  7  1  0  0  0
  6  8  1  0  0  0
  6 26  1  0  0  0
  9 10  1  0  0  0
  9 14  2  0  0  0
 10 11  2  0  0  0
 10 27  1  0  0  0
 11 12  1  0  0  0
 11 28  1  0  0  0
 12 13  2  0  0  0
 12 15  1  0  0  0
 13 14  1  0  0  0
 13 29  1  0  0  0
 14 30  1  0  0  0
 15 16  2  0  0  0
 15 17  2  0  0  0
 15 18  1  0  0  0
 18 31  1  0  0  0
 18 32  1  0  0  0
 19 20  1  0  0  0
 19 24  2  0  0  0
 20 21  2  0  0  0
 20 33  1  0  0  0
 21 22  1  0  0  0
 21 34  1  0  0  0
 22 23  2  0  0  0
 22 35  1  0  0  0
 23 24  1  0  0  0
 24 36  1  0  0  0
M  END
>  <Activity>
5.73755

>  <set>
2

>  <Min_dist>
0.040541

>  <Avg_dist>
0.476204

$$$$
4-60
  Cerius2 12110214513D 1   1.00000                          
 
 37 39  0  0  0  0  0  0  0  0999 V2000
    2.6342    0.3489   -0.0284 C   0  0  0  0  0  0
    1.6166    1.2590    0.0315 N   0  0  0  0  0  0
    2.1939    2.5017    0.0728 C   0  0  0  0  0  0
    3.5295    2.3177    0.0376 C   0  0  0  0  0  0
    3.7743    1.0036   -0.0237 N   0  0  0  0  0  0
    4.5700    3.4075    0.0629 C   0  0  0  0  0  0
    0.2441    0.9760    0.0468 C   0  0  0  0  0  0
   -0.5898    1.5231   -0.9191 C   0  0  0  0  0  0
   -1.9419    1.2419   -0.9016 C   0  0  0  0  0  0
   -2.4654    0.4167    0.0768 C   0  0  0  0  0  0
   -1.6374   -0.1297    1.0401 C   0  0  0  0  0  0
   -0.2835    0.1432    1.0245 C   0  0  0  0  0  0
   -4.1910    0.0613    0.0964 S   0  0  0  0  0  0
   -4.4375   -0.2281    1.4656 O   0  0  0  0  0  0
   -4.7536    1.1955   -0.5489 O   0  0  0  0  0  0
   -4.3184   -1.4258   -0.9346 C   0  0  0  0  0  0
    2.4797   -1.1207   -0.0826 C   0  0  0  0  0  0
    1.2701   -1.6946   -0.4915 C   0  0  0  0  0  0
    1.1772   -3.0746   -0.5247 C   0  0  0  0  0  0
    2.2719   -3.8361   -0.1564 C   0  0  0  0  0  0
    3.3994   -3.2677    0.2252 N   0  0  0  0  0  0
    3.5388   -1.9587    0.2674 C   0  0  0  0  0  0
    1.6771    3.4486    0.1236 H   0  0  0  0  0  0
    4.8419    3.6263    1.0955 H   0  0  0  0  0  0
    5.4539    3.0788   -0.4837 H   0  0  0  0  0  0
    4.1668    4.3057   -0.4048 H   0  0  0  0  0  0
   -0.1817    2.1683   -1.6830 H   0  0  0  0  0  0
   -2.5911    1.6673   -1.6526 H   0  0  0  0  0  0
   -2.0491   -0.7738    1.8029 H   0  0  0  0  0  0
    0.3627   -0.2839    1.7771 H   0  0  0  0  0  0
   -5.3607   -1.7395   -0.9927 H   0  0  0  0  0  0
   -3.9486   -1.2063   -1.9362 H   0  0  0  0  0  0
   -3.7224   -2.2252   -0.4944 H   0  0  0  0  0  0
    0.4310   -1.0759   -0.7734 H   0  0  0  0  0  0
    0.2595   -3.5524   -0.8346 H   0  0  0  0  0  0
    2.2021   -4.9136   -0.1815 H   0  0  0  0  0  0
    4.4780   -1.5303    0.5851 H   0  0  0  0  0  0
  1  2  1  0  0  0
  1  5  2  0  0  0
  1 17  1  0  0  0
  2  3  1  0  0  0
  2  7  1  0  0  0
  3  4  2  0  0  0
  3 23  1  0  0  0
  4  5  1  0  0  0
  4  6  1  0  0  0
  6 24  1  0  0  0
  6 25  1  0  0  0
  6 26  1  0  0  0
  7  8  1  0  0  0
  7 12  2  0  0  0
  8  9  2  0  0  0
  8 27  1  0  0  0
  9 10  1  0  0  0
  9 28  1  0  0  0
 10 11  2  0  0  0
 10 13  1  0  0  0
 11 12  1  0  0  0
 11 29  1  0  0  0
 12 30  1  0  0  0
 13 14  2  0  0  0
 13 15  2  0  0  0
 13 16  1  0  0  0
 16 31  1  0  0  0
 16 32  1  0  0  0
 16 33  1  0  0  0
 17 18  1  0  0  0
 17 22  2  0  0  0
 18 19  2  0  0  0
 18 34  1  0  0  0
 19 20  1  0  0  0
 19 35  1  0  0  0
 20 21  2  0  0  0
 20 36  1  0  0  0
 21 22  1  0  0  0
 22 37  1  0  0  0
M  END
>  <Activity>
4.10237

>  <set>
2

>  <Min_dist>
0.109589

>  <Avg_dist>
0.48066

$$$$
4-67
  Cerius2 12110214513D 1   1.00000                          
 
 45 48  0  0  0  0  0  0  0  0999 V2000
    1.5639    0.1866    0.2812 C   0  0  0  0  0  0
    0.6407    1.1747    0.0779 N   0  0  0  0  0  0
    1.3370    2.3533   -0.0441 C   0  0  0  0  0  0
    2.6438    2.0547    0.0863 C   0  0  0  0  0  0
    2.7605    0.7345    0.2830 N   0  0  0  0  0  0
    3.7828    3.0393    0.0213 C   0  0  0  0  0  0
    4.9945    2.3631    0.1995 F   0  0  0  0  0  0
    3.7812    3.6725   -1.2262 F   0  0  0  0  0  0
    3.6301    3.9963    1.0303 F   0  0  0  0  0  0
   -0.7498    1.0158    0.0069 C   0  0  0  0  0  0
   -1.5770    1.7416    0.8536 C   0  0  0  0  0  0
   -2.9471    1.5828    0.7813 C   0  0  0  0  0  0
   -3.4952    0.7017   -0.1328 C   0  0  0  0  0  0
   -2.6739   -0.0228   -0.9770 C   0  0  0  0  0  0
   -1.3034    0.1365   -0.9140 C   0  0  0  0  0  0
   -5.2435    0.5015   -0.2215 S   0  0  0  0  0  0
   -5.3840   -0.8159   -0.7355 O   0  0  0  0  0  0
   -5.6674    0.8498    1.0893 O   0  0  0  0  0  0
   -5.7412    1.7506   -1.4391 C   0  0  0  0  0  0
    1.2687   -1.2466    0.4720 C   0  0  0  0  0  0
    1.9396   -2.3791   -0.1891 C   0  0  0  0  0  0
    1.3206   -3.5386    0.3068 C   0  0  0  0  0  0
    0.3495   -3.1388    1.1995 N   0  0  0  0  0  0
    0.3290   -1.7793    1.2964 C   0  0  0  0  0  0
   -0.5303   -4.0450    1.9418 C   0  0  0  0  0  0
    1.7490   -4.7841   -0.1424 C   0  0  0  0  0  0
    2.7702   -4.8652   -1.0636 C   0  0  0  0  0  0
    3.3777   -3.7158   -1.5491 C   0  0  0  0  0  0
    2.9709   -2.4829   -1.1206 C   0  0  0  0  0  0
    0.9160    3.3334   -0.2126 H   0  0  0  0  0  0
   -1.1495    2.4293    1.5681 H   0  0  0  0  0  0
   -3.5910    2.1470    1.4396 H   0  0  0  0  0  0
   -3.1048   -0.7108   -1.6894 H   0  0  0  0  0  0
   -0.6625   -0.4294   -1.5739 H   0  0  0  0  0  0
   -6.8222    1.7153   -1.5747 H   0  0  0  0  0  0
   -5.4517    2.7397   -1.0840 H   0  0  0  0  0  0
   -5.2489    1.5475   -2.3901 H   0  0  0  0  0  0
   -0.3386   -1.2111    1.9271 H   0  0  0  0  0  0
   -0.0626   -4.3099    2.8900 H   0  0  0  0  0  0
   -1.4832   -3.5512    2.1321 H   0  0  0  0  0  0
   -0.6998   -4.9481    1.3554 H   0  0  0  0  0  0
    1.2828   -5.6842    0.2302 H   0  0  0  0  0  0
    3.1013   -5.8327   -1.4111 H   0  0  0  0  0  0
    4.1774   -3.7958   -2.2705 H   0  0  0  0  0  0
    3.4476   -1.5922   -1.5025 H   0  0  0  0  0  0
  1  2  1  0  0  0
  1  5  2  0  0  0
  1 20  1  0  0  0
  2  3  1  0  0  0
  2 10  1  0  0  0
  3  4  2  0  0  0
  3 30  1  0  0  0
  4  5  1  0  0  0
  4  6  1  0  0  0
  6  7  1  0  0  0
  6  8  1  0  0  0
  6  9  1  0  0  0
 10 11  1  0  0  0
 10 15  2  0  0  0
 11 12  2  0  0  0
 11 31  1  0  0  0
 12 13  1  0  0  0
 12 32  1  0  0  0
 13 14  2  0  0  0
 13 16  1  0  0  0
 14 15  1  0  0  0
 14 33  1  0  0  0
 15 34  1  0  0  0
 16 17  2  0  0  0
 16 18  2  0  0  0
 16 19  1  0  0  0
 19 35  1  0  0  0
 19 36  1  0  0  0
 19 37  1  0  0  0
 20 21  1  0  0  0
 20 24  2  0  0  0
 21 22  2  0  0  0
 21 29  1  0  0  0
 22 23  1  0  0  0
 22 26  1  0  0  0
 23 24  1  0  0  0
 23 25  1  0  0  0
 24 38  1  0  0  0
 25 39  1  0  0  0
 25 40  1  0  0  0
 25 41  1  0  0  0
 26 27  2  0  0  0
 26 42  1  0  0  0
 27 28  1  0  0  0
 27 43  1  0  0  0
 28 29  2  0  0  0
 28 44  1  0  0  0
 29 45  1  0  0  0
M  END
>  <Activity>
5.95861

>  <set>
2

>  <Min_dist>
0.072289

>  <Avg_dist>
0.489571

$$$$
4-69
  Cerius2 12110214513D 1   1.00000                          
 
 41 44  0  0  0  0  0  0  0  0999 V2000
    1.5041    0.0002    0.2761 C   0  0  0  0  0  0
    0.6084   -1.0091    0.0587 N   0  0  0  0  0  0
    1.3342   -2.1658   -0.0731 C   0  0  0  0  0  0
    2.6335   -1.8344    0.0657 C   0  0  0  0  0  0
    2.7141   -0.5150    0.2769 N   0  0  0  0  0  0
    3.7982   -2.7881   -0.0045 C   0  0  0  0  0  0
    4.9910   -2.0822    0.1854 F   0  0  0  0  0  0
    3.6668   -3.7589    0.9942 F   0  0  0  0  0  0
    3.8180   -3.4085   -1.2582 F   0  0  0  0  0  0
   -0.7855   -0.8858   -0.0155 C   0  0  0  0  0  0
   -1.5935   -1.5759    0.8782 C   0  0  0  0  0  0
   -2.9670   -1.4520    0.8028 C   0  0  0  0  0  0
   -3.5377   -0.6420   -0.1617 C   0  0  0  0  0  0
   -2.7357    0.0466   -1.0532 C   0  0  0  0  0  0
   -1.3613   -0.0688   -0.9793 C   0  0  0  0  0  0
   -5.2904   -0.4874   -0.2554 S   0  0  0  0  0  0
   -5.5049   -0.1562   -1.6205 O   0  0  0  0  0  0
   -5.7450   -1.7115    0.3051 O   0  0  0  0  0  0
   -5.6402    0.9184    0.8364 C   0  0  0  0  0  0
    1.1706    1.4266    0.4706 C   0  0  0  0  0  0
    0.0593    1.7889    1.2349 C   0  0  0  0  0  0
   -0.2490    3.1209    1.4143 C   0  0  0  0  0  0
    0.5381    4.1038    0.8396 C   0  0  0  0  0  0
    1.6436    3.7593    0.0783 C   0  0  0  0  0  0
    1.9695    2.4191   -0.1050 C   0  0  0  0  0  0
    3.0863    2.3429   -0.8840 O   0  0  0  0  0  0
    3.6772    3.6552   -0.8383 C   0  0  0  0  0  0
    2.5607    4.5252   -0.5825 O   0  0  0  0  0  0
    0.9393   -3.1547   -0.2532 H   0  0  0  0  0  0
   -1.1484   -2.2092    1.6313 H   0  0  0  0  0  0
   -3.5960   -1.9885    1.4977 H   0  0  0  0  0  0
   -3.1843    0.6784   -1.8055 H   0  0  0  0  0  0
   -0.7354    0.4693   -1.6758 H   0  0  0  0  0  0
   -6.7137    1.1062    0.8543 H   0  0  0  0  0  0
   -5.2944    0.6902    1.8446 H   0  0  0  0  0  0
   -5.1226    1.8034    0.4664 H   0  0  0  0  0  0
   -0.5586    1.0261    1.6850 H   0  0  0  0  0  0
   -1.1089    3.3985    2.0057 H   0  0  0  0  0  0
    0.2892    5.1446    0.9850 H   0  0  0  0  0  0
    4.4028    3.7206   -0.0275 H   0  0  0  0  0  0
    4.1445    3.8983   -1.7926 H   0  0  0  0  0  0
  1  2  1  0  0  0
  1  5  2  0  0  0
  1 20  1  0  0  0
  2  3  1  0  0  0
  2 10  1  0  0  0
  3  4  2  0  0  0
  3 29  1  0  0  0
  4  5  1  0  0  0
  4  6  1  0  0  0
  6  7  1  0  0  0
  6  8  1  0  0  0
  6  9  1  0  0  0
 10 11  1  0  0  0
 10 15  2  0  0  0
 11 12  2  0  0  0
 11 30  1  0  0  0
 12 13  1  0  0  0
 12 31  1  0  0  0
 13 14  2  0  0  0
 13 16  1  0  0  0
 14 15  1  0  0  0
 14 32  1  0  0  0
 15 33  1  0  0  0
 16 17  2  0  0  0
 16 18  2  0  0  0
 16 19  1  0  0  0
 19 34  1  0  0  0
 19 35  1  0  0  0
 19 36  1  0  0  0
 20 21  1  0  0  0
 20 25  2  0  0  0
 21 22  2  0  0  0
 21 37  1  0  0  0
 22 23  1  0  0  0
 22 38  1  0  0  0
 23 24  2  0  0  0
 23 39  1  0  0  0
 24 25  1  0  0  0
 24 28  1  0  0  0
 25 26  1  0  0  0
 26 27  1  0  0  0
 27 28  1  0  0  0
 27 40  1  0  0  0
 27 41  1  0  0  0
M  END
>  <Activity>
6.3279

>  <set>
2

>  <Min_dist>
0.054945

>  <Avg_dist>
0.524211

$$$$
4-74
  Cerius2 12110214513D 1   1.00000                          
 
 38 40  0  0  0  0  0  0  0  0999 V2000
    1.7156    0.5704    0.0167 C   0  0  0  0  0  0
    0.9680   -0.5755   -0.0198 N   0  0  0  0  0  0
    1.8507   -1.6272   -0.0456 C   0  0  0  0  0  0
    3.0919   -1.1023   -0.0245 C   0  0  0  0  0  0
    2.9887    0.2319    0.0132 N   0  0  0  0  0  0
    4.3793   -1.8855   -0.0402 C   0  0  0  0  0  0
    5.4633   -1.0016   -0.0098 F   0  0  0  0  0  0
    4.4291   -2.7233    1.0791 F   0  0  0  0  0  0
    4.4405   -2.6587   -1.2046 F   0  0  0  0  0  0
   -0.4305   -0.6595   -0.0285 C   0  0  0  0  0  0
   -1.0936   -1.3307    0.9902 C   0  0  0  0  0  0
   -2.4723   -1.4118    0.9787 C   0  0  0  0  0  0
   -3.1923   -0.8254   -0.0459 C   0  0  0  0  0  0
   -2.5349   -0.1563   -1.0619 C   0  0  0  0  0  0
   -1.1566   -0.0669   -1.0530 C   0  0  0  0  0  0
   -4.9511   -0.9316   -0.0573 S   0  0  0  0  0  0
   -5.2646   -0.8185   -1.4387 O   0  0  0  0  0  0
   -5.1996   -2.1216    0.6785 O   0  0  0  0  0  0
   -5.4601    0.5442    0.8666 C   0  0  0  0  0  0
    1.1884    1.9435    0.0479 C   0  0  0  0  0  0
    1.8733    3.1323    0.0849 C   0  0  0  0  0  0
    1.1569    4.3067    0.1086 C   0  0  0  0  0  0
   -0.2010    4.2551    0.0947 C   0  0  0  0  0  0
   -0.5088    2.4975    0.0397 S   0  0  0  0  0  0
    3.3801    3.1509    0.0999 C   0  0  0  0  0  0
    1.5980   -2.6768   -0.0765 H   0  0  0  0  0  0
   -0.5318   -1.7892    1.7906 H   0  0  0  0  0  0
   -2.9886   -1.9340    1.7707 H   0  0  0  0  0  0
   -3.0999    0.3004   -1.8610 H   0  0  0  0  0  0
   -0.6437    0.4558   -1.8468 H   0  0  0  0  0  0
   -6.5481    0.5806    0.9224 H   0  0  0  0  0  0
   -5.0459    0.5030    1.8740 H   0  0  0  0  0  0
   -5.0923    1.4357    0.3587 H   0  0  0  0  0  0
    1.6674    5.2579    0.1382 H   0  0  0  0  0  0
   -0.9113    5.0685    0.1096 H   0  0  0  0  0  0
    3.7532    3.1817   -0.9238 H   0  0  0  0  0  0
    3.7272    4.0318    0.6398 H   0  0  0  0  0  0
    3.7497    2.2526    0.5944 H   0  0  0  0  0  0
  1  2  1  0  0  0
  1  5  2  0  0  0
  1 20  1  0  0  0
  2  3  1  0  0  0
  2 10  1  0  0  0
  3  4  2  0  0  0
  3 26  1  0  0  0
  4  5  1  0  0  0
  4  6  1  0  0  0
  6  7  1  0  0  0
  6  8  1  0  0  0
  6  9  1  0  0  0
 10 11  1  0  0  0
 10 15  2  0  0  0
 11 12  2  0  0  0
 11 27  1  0  0  0
 12 13  1  0  0  0
 12 28  1  0  0  0
 13 14  2  0  0  0
 13 16  1  0  0  0
 14 15  1  0  0  0
 14 29  1  0  0  0
 15 30  1  0  0  0
 16 17  2  0  0  0
 16 18  2  0  0  0
 16 19  1  0  0  0
 19 31  1  0  0  0
 19 32  1  0  0  0
 19 33  1  0  0  0
 20 21  2  0  0  0
 20 24  1  0  0  0
 21 22  1  0  0  0
 21 25  1  0  0  0
 22 23  2  0  0  0
 22 34  1  0  0  0
 23 24  1  0  0  0
 23 35  1  0  0  0
 25 36  1  0  0  0
 25 37  1  0  0  0
 25 38  1  0  0  0
M  END
>  <Activity>
5.95861

>  <set>
2

>  <Min_dist>
0.0625

>  <Avg_dist>
0.478191

$$$$
4-77
  Cerius2 12110214513D 1   1.00000                          
 
 36 38  0  0  0  0  0  0  0  0999 V2000
    1.8559    0.6452    0.0189 C   0  0  0  0  0  0
    1.2126   -0.5620   -0.0201 N   0  0  0  0  0  0
    2.1845   -1.5316   -0.0447 C   0  0  0  0  0  0
    3.3745   -0.8992   -0.0205 C   0  0  0  0  0  0
    3.1537    0.4206    0.0180 N   0  0  0  0  0  0
    4.7260   -1.5657   -0.0336 C   0  0  0  0  0  0
    5.7277   -0.5895   -0.0002 F   0  0  0  0  0  0
    4.8471   -2.3966    1.0854 F   0  0  0  0  0  0
    4.8580   -2.3296   -1.1981 F   0  0  0  0  0  0
   -0.1731   -0.7690   -0.0324 C   0  0  0  0  0  0
   -0.7769   -1.4968    0.9842 C   0  0  0  0  0  0
   -2.1432   -1.6987    0.9695 C   0  0  0  0  0  0
   -2.9096   -1.1769   -0.0564 C   0  0  0  0  0  0
   -2.3112   -0.4520   -1.0706 C   0  0  0  0  0  0
   -0.9461   -0.2418   -1.0584 C   0  0  0  0  0  0
   -4.6523   -1.4367   -0.0716 S   0  0  0  0  0  0
   -5.0543   -1.2788   -1.4254 O   0  0  0  0  0  0
   -4.8773   -2.5926    0.7237 O   0  0  0  0  0  0
   -5.3473   -0.1805    0.7537 N   0  0  0  0  0  0
    1.2092    1.9669    0.0500 C   0  0  0  0  0  0
    1.7723    3.2199    0.0895 C   0  0  0  0  0  0
    0.9677    4.2561    0.1113 N   0  0  0  0  0  0
   -0.3392    4.1152    0.0962 C   0  0  0  0  0  0
   -0.5272    2.3898    0.0389 S   0  0  0  0  0  0
   -1.4044    5.1810    0.1171 C   0  0  0  0  0  0
    2.0254   -2.5994   -0.0768 H   0  0  0  0  0  0
   -0.1788   -1.9049    1.7856 H   0  0  0  0  0  0
   -2.6133   -2.2650    1.7598 H   0  0  0  0  0  0
   -2.9124   -0.0460   -1.8706 H   0  0  0  0  0  0
   -0.4793    0.3247   -1.8505 H   0  0  0  0  0  0
   -6.3111   -0.1420    0.8566 H   0  0  0  0  0  0
   -4.7907    0.5169    1.1341 H   0  0  0  0  0  0
    2.8446    3.3478    0.1026 H   0  0  0  0  0  0
   -1.6527    5.4665   -0.9052 H   0  0  0  0  0  0
   -2.2949    4.7951    0.6131 H   0  0  0  0  0  0
   -1.0358    6.0524    0.6583 H   0  0  0  0  0  0
  1  2  1  0  0  0
  1  5  2  0  0  0
  1 20  1  0  0  0
  2  3  1  0  0  0
  2 10  1  0  0  0
  3  4  2  0  0  0
  3 26  1  0  0  0
  4  5  1  0  0  0
  4  6  1  0  0  0
  6  7  1  0  0  0
  6  8  1  0  0  0
  6  9  1  0  0  0
 10 11  1  0  0  0
 10 15  2  0  0  0
 11 12  2  0  0  0
 11 27  1  0  0  0
 12 13  1  0  0  0
 12 28  1  0  0  0
 13 14  2  0  0  0
 13 16  1  0  0  0
 14 15  1  0  0  0
 14 29  1  0  0  0
 15 30  1  0  0  0
 16 17  2  0  0  0
 16 18  2  0  0  0
 16 19  1  0  0  0
 19 31  1  0  0  0
 19 32  1  0  0  0
 20 21  2  0  0  0
 20 24  1  0  0  0
 21 22  1  0  0  0
 21 33  1  0  0  0
 22 23  2  0  0  0
 23 24  1  0  0  0
 23 25  1  0  0  0
 25 34  1  0  0  0
 25 35  1  0  0  0
 25 36  1  0  0  0
M  END
>  <Activity>
6.36653

>  <set>
2

>  <Min_dist>
0.119048

>  <Avg_dist>
0.506227

$$$$
4-79
  Cerius2 12110214513D 1   1.00000                          
 
 37 39  0  0  0  0  0  0  0  0999 V2000
    1.8092    0.7852    0.0220 C   0  0  0  0  0  0
    1.1505   -0.4118   -0.0173 N   0  0  0  0  0  0
    2.1086   -1.3946   -0.0432 C   0  0  0  0  0  0
    3.3066   -0.7783   -0.0193 C   0  0  0  0  0  0
    3.1021    0.5447    0.0202 N   0  0  0  0  0  0
    4.6494   -1.4621   -0.0338 C   0  0  0  0  0  0
    5.6635   -0.4990   -0.0003 F   0  0  0  0  0  0
    4.7605   -2.2953    1.0846 F   0  0  0  0  0  0
    4.7708   -2.2268   -1.1989 F   0  0  0  0  0  0
   -0.2382   -0.5999   -0.0282 C   0  0  0  0  0  0
   -0.8506   -1.3204    0.9884 C   0  0  0  0  0  0
   -2.2194   -1.5041    0.9749 C   0  0  0  0  0  0
   -2.9799   -0.9713   -0.0498 C   0  0  0  0  0  0
   -2.3728   -0.2536   -1.0640 C   0  0  0  0  0  0
   -1.0051   -0.0613   -1.0527 C   0  0  0  0  0  0
   -4.7258   -1.2078   -0.0636 S   0  0  0  0  0  0
   -5.0453   -1.1162   -1.4452 O   0  0  0  0  0  0
   -4.8861   -2.4141    0.6702 O   0  0  0  0  0  0
   -5.3442    0.2246    0.8618 C   0  0  0  0  0  0
    1.1770    2.1209    0.0546 C   0  0  0  0  0  0
   -0.1566    2.3823    0.0514 N   0  0  0  0  0  0
   -0.3253    3.6715    0.0863 C   0  0  0  0  0  0
    0.8722    4.2717    0.1126 O   0  0  0  0  0  0
    1.8202    3.3163    0.0992 C   0  0  0  0  0  0
   -1.6564    4.3779    0.0956 C   0  0  0  0  0  0
    1.9350   -2.4601   -0.0762 H   0  0  0  0  0  0
   -0.2572   -1.7370    1.7888 H   0  0  0  0  0  0
   -2.6963   -2.0647    1.7652 H   0  0  0  0  0  0
   -2.9692    0.1610   -1.8632 H   0  0  0  0  0  0
   -0.5315    0.4993   -1.8450 H   0  0  0  0  0  0
   -6.4320    0.1800    0.9163 H   0  0  0  0  0  0
   -4.9292    0.2128    1.8696 H   0  0  0  0  0  0
   -5.0431    1.1418    0.3556 H   0  0  0  0  0  0
    2.8889    3.4711    0.1141 H   0  0  0  0  0  0
   -1.9855    4.5193    1.1251 H   0  0  0  0  0  0
   -1.5561    5.3484   -0.3904 H   0  0  0  0  0  0
   -2.3905    3.7769   -0.4411 H   0  0  0  0  0  0
  1  2  1  0  0  0
  1  5  2  0  0  0
  1 20  1  0  0  0
  2  3  1  0  0  0
  2 10  1  0  0  0
  3  4  2  0  0  0
  3 26  1  0  0  0
  4  5  1  0  0  0
  4  6  1  0  0  0
  6  7  1  0  0  0
  6  8  1  0  0  0
  6  9  1  0  0  0
 10 11  1  0  0  0
 10 15  2  0  0  0
 11 12  2  0  0  0
 11 27  1  0  0  0
 12 13  1  0  0  0
 12 28  1  0  0  0
 13 14  2  0  0  0
 13 16  1  0  0  0
 14 15  1  0  0  0
 14 29  1  0  0  0
 15 30  1  0  0  0
 16 17  2  0  0  0
 16 18  2  0  0  0
 16 19  1  0  0  0
 19 31  1  0  0  0
 19 32  1  0  0  0
 19 33  1  0  0  0
 20 21  1  0  0  0
 20 24  2  0  0  0
 21 22  2  0  0  0
 22 23  1  0  0  0
 22 25  1  0  0  0
 23 24  1  0  0  0
 24 34  1  0  0  0
 25 35  1  0  0  0
 25 36  1  0  0  0
 25 37  1  0  0  0
M  END
>  <Activity>
5.38195

>  <set>
2

>  <Min_dist>
0.095238

>  <Avg_dist>
0.498646

$$$$
4-80
  Cerius2 12110214513D 1   1.00000                          
 
 36 38  0  0  0  0  0  0  0  0999 V2000
    1.7823    0.6145    0.0178 C   0  0  0  0  0  0
    1.0436   -0.5345   -0.0209 N   0  0  0  0  0  0
    1.9293   -1.5778   -0.0466 C   0  0  0  0  0  0
    3.1690   -1.0442   -0.0232 C   0  0  0  0  0  0
    3.0553    0.2871    0.0157 N   0  0  0  0  0  0
    4.4620   -1.8182   -0.0380 C   0  0  0  0  0  0
    5.5396   -0.9266   -0.0051 F   0  0  0  0  0  0
    4.5163   -2.6568    1.0804 F   0  0  0  0  0  0
    4.5304   -2.5896   -1.2031 F   0  0  0  0  0  0
   -0.3546   -0.6271   -0.0314 C   0  0  0  0  0  0
   -1.0147   -1.3035    0.9857 C   0  0  0  0  0  0
   -2.3929   -1.3927    0.9729 C   0  0  0  0  0  0
   -3.1153   -0.8094   -0.0518 C   0  0  0  0  0  0
   -2.4609   -0.1350   -1.0662 C   0  0  0  0  0  0
   -1.0831   -0.0376   -1.0558 C   0  0  0  0  0  0
   -4.8734   -0.9263   -0.0653 S   0  0  0  0  0  0
   -5.2627   -0.7351   -1.4185 O   0  0  0  0  0  0
   -5.1910   -2.0606    0.7296 O   0  0  0  0  0  0
   -5.4629    0.3818    0.7615 N   0  0  0  0  0  0
    1.2417    1.9915    0.0499 C   0  0  0  0  0  0
    1.9882    3.2037    0.0904 C   0  0  0  0  0  0
    1.0414    4.1686    0.1073 C   0  0  0  0  0  0
   -0.1452    3.5452    0.0785 O   0  0  0  0  0  0
   -0.0218    2.3430    0.0412 N   0  0  0  0  0  0
    1.2747    5.6568    0.1509 C   0  0  0  0  0  0
    1.6829   -2.6289   -0.0790 H   0  0  0  0  0  0
   -0.4509   -1.7599    1.7860 H   0  0  0  0  0  0
   -2.9068   -1.9187    1.7638 H   0  0  0  0  0  0
   -3.0278    0.3195   -1.8652 H   0  0  0  0  0  0
   -0.5725    0.4893   -1.8484 H   0  0  0  0  0  0
   -6.4202    0.4987    0.8656 H   0  0  0  0  0  0
   -4.8509    1.0312    1.1418 H   0  0  0  0  0  0
    3.0614    3.3242    0.1043 H   0  0  0  0  0  0
    1.3416    6.0440   -0.8658 H   0  0  0  0  0  0
    0.4464    6.1393    0.6697 H   0  0  0  0  0  0
    2.2048    5.8634    0.6803 H   0  0  0  0  0  0
  1  2  1  0  0  0
  1  5  2  0  0  0
  1 20  1  0  0  0
  2  3  1  0  0  0
  2 10  1  0  0  0
  3  4  2  0  0  0
  3 26  1  0  0  0
  4  5  1  0  0  0
  4  6  1  0  0  0
  6  7  1  0  0  0
  6  8  1  0  0  0
  6  9  1  0  0  0
 10 11  1  0  0  0
 10 15  2  0  0  0
 11 12  2  0  0  0
 11 27  1  0  0  0
 12 13  1  0  0  0
 12 28  1  0  0  0
 13 14  2  0  0  0
 13 16  1  0  0  0
 14 15  1  0  0  0
 14 29  1  0  0  0
 15 30  1  0  0  0
 16 17  2  0  0  0
 16 18  2  0  0  0
 16 19  1  0  0  0
 19 31  1  0  0  0
 19 32  1  0  0  0
 20 21  1  0  0  0
 20 24  2  0  0  0
 21 22  2  0  0  0
 21 33  1  0  0  0
 22 23  1  0  0  0
 22 25  1  0  0  0
 23 24  1  0  0  0
 25 34  1  0  0  0
 25 35  1  0  0  0
 25 36  1  0  0  0
M  END
>  <Activity>
6.38722

>  <set>
2

>  <Min_dist>
0.168675

>  <Avg_dist>
0.516908

$$$$
4-70
  Cerius2 12110214513D 1   1.00000                          
 
 35 37  0  0  0  0  0  0  0  0999 V2000
    1.7758    0.7125    0.0294 C   0  0  0  0  0  0
    1.0753   -0.4603   -0.0171 N   0  0  0  0  0  0
    1.9990   -1.4770   -0.0420 C   0  0  0  0  0  0
    3.2173   -0.9036   -0.0105 C   0  0  0  0  0  0
    3.0595    0.4263    0.0326 N   0  0  0  0  0  0
    4.5352   -1.6343   -0.0214 C   0  0  0  0  0  0
    5.5825   -0.7077    0.0202 F   0  0  0  0  0  0
    4.6117   -2.4748    1.0944 F   0  0  0  0  0  0
    4.6349   -2.3988   -1.1888 F   0  0  0  0  0  0
   -0.3191   -0.5992   -0.0358 C   0  0  0  0  0  0
   -0.9557   -1.3581    0.9371 C   0  0  0  0  0  0
   -2.3301   -1.4928    0.9163 C   0  0  0  0  0  0
   -3.0721   -0.8726   -0.0721 C   0  0  0  0  0  0
   -2.4410   -0.1164   -1.0426 C   0  0  0  0  0  0
   -1.0673    0.0266   -1.0238 C   0  0  0  0  0  0
   -4.8254   -1.0467   -0.0952 S   0  0  0  0  0  0
   -5.1424   -0.8604   -1.4678 O   0  0  0  0  0  0
   -5.0273   -2.2889    0.5646 O   0  0  0  0  0  0
   -5.3925    0.3477    0.9170 C   0  0  0  0  0  0
    1.1913    2.0692    0.0636 C   0  0  0  0  0  0
    1.9543    3.1841   -0.2781 C   0  0  0  0  0  0
    1.3837    4.4079   -0.2343 C   0  0  0  0  0  0
   -0.2780    4.0342    0.2985 S   0  0  0  0  0  0
   -0.1155    2.2613    0.4265 C   0  0  0  0  0  0
    1.7882   -2.5356   -0.0794 H   0  0  0  0  0  0
   -0.3767   -1.8430    1.7091 H   0  0  0  0  0  0
   -2.8258   -2.0833    1.6726 H   0  0  0  0  0  0
   -3.0231    0.3665   -1.8136 H   0  0  0  0  0  0
   -0.5749    0.6174   -1.7821 H   0  0  0  0  0  0
   -6.4811    0.3379    0.9717 H   0  0  0  0  0  0
   -4.9775    0.2603    1.9211 H   0  0  0  0  0  0
   -5.0598    1.2828    0.4664 H   0  0  0  0  0  0
    2.9870    3.0715   -0.5734 H   0  0  0  0  0  0
    1.8218    5.3681   -0.4634 H   0  0  0  0  0  0
   -0.8543    1.5302    0.7197 H   0  0  0  0  0  0
  1  2  1  0  0  0
  1  5  2  0  0  0
  1 20  1  0  0  0
  2  3  1  0  0  0
  2 10  1  0  0  0
  3  4  2  0  0  0
  3 25  1  0  0  0
  4  5  1  0  0  0
  4  6  1  0  0  0
  6  7  1  0  0  0
  6  8  1  0  0  0
  6  9  1  0  0  0
 10 11  1  0  0  0
 10 15  2  0  0  0
 11 12  2  0  0  0
 11 26  1  0  0  0
 12 13  1  0  0  0
 12 27  1  0  0  0
 13 14  2  0  0  0
 13 16  1  0  0  0
 14 15  1  0  0  0
 14 28  1  0  0  0
 15 29  1  0  0  0
 16 17  2  0  0  0
 16 18  2  0  0  0
 16 19  1  0  0  0
 19 30  1  0  0  0
 19 31  1  0  0  0
 19 32  1  0  0  0
 20 21  1  0  0  0
 20 24  2  0  0  0
 21 22  2  0  0  0
 21 33  1  0  0  0
 22 23  1  0  0  0
 22 34  1  0  0  0
 23 24  1  0  0  0
 24 35  1  0  0  0
M  END
>  <Activity>
4.29243

>  <set>
2

>  <Min_dist>
0.093333

>  <Avg_dist>
0.462342

$$$$
5-1G
  Cerius2 12110214513D 1   1.00000                          
 
 39 41  0  0  0  0  0  0  0  0999 V2000
    1.8784    1.8412   -0.4628 C   0  0  0  0  0  0
    0.6392    2.3456   -0.3993 C   0  0  0  0  0  0
    0.6762    3.8542   -0.4787 C   0  0  0  0  0  0
    2.0814    4.1893   -1.0277 C   0  0  0  0  0  0
    2.8964    2.9504   -0.5925 C   0  0  0  0  0  0
   -0.5891    1.5414   -0.2705 C   0  0  0  0  0  0
   -1.4305    1.7163    0.8314 C   0  0  0  0  0  0
   -2.5785    0.9605    0.9450 C   0  0  0  0  0  0
   -2.8978    0.0304   -0.0286 C   0  0  0  0  0  0
   -2.0692   -0.1486   -1.1224 C   0  0  0  0  0  0
   -0.9211    0.6044   -1.2526 C   0  0  0  0  0  0
   -4.3663   -0.9310    0.1254 S   0  0  0  0  0  0
   -4.0532   -2.1047   -0.6119 O   0  0  0  0  0  0
   -4.5805   -0.9562    1.5299 O   0  0  0  0  0  0
   -5.6121    0.0786   -0.7228 C   0  0  0  0  0  0
    2.2040    0.4051   -0.4075 C   0  0  0  0  0  0
    2.4481   -0.2132    0.8232 C   0  0  0  0  0  0
    2.7520   -1.5586    0.8671 C   0  0  0  0  0  0
    2.8159   -2.2955   -0.3038 C   0  0  0  0  0  0
    2.5753   -1.6890   -1.5254 C   0  0  0  0  0  0
    2.2648   -0.3466   -1.5837 C   0  0  0  0  0  0
    3.2000   -3.9873   -0.2400 Cl  0  0  0  0  0  0
    2.3694    0.7096    2.2916 Cl  0  0  0  0  0  0
   -0.0934    4.2169   -1.1602 H   0  0  0  0  0  0
    0.5424    4.2894    0.5116 H   0  0  0  0  0  0
    2.0637    4.2823   -2.1135 H   0  0  0  0  0  0
    2.4740    5.0956   -0.5667 H   0  0  0  0  0  0
    3.3817    3.1336    0.3662 H   0  0  0  0  0  0
    3.6372    2.6983   -1.3513 H   0  0  0  0  0  0
   -1.1821    2.4413    1.5924 H   0  0  0  0  0  0
   -3.2297    1.0945    1.7961 H   0  0  0  0  0  0
   -2.3244   -0.8768   -1.8780 H   0  0  0  0  0  0
   -0.2755    0.4639   -2.1070 H   0  0  0  0  0  0
   -6.5761   -0.4289   -0.6880 H   0  0  0  0  0  0
   -5.6931    1.0467   -0.2285 H   0  0  0  0  0  0
   -5.3156    0.2247   -1.7615 H   0  0  0  0  0  0
    2.9407   -2.0378    1.8164 H   0  0  0  0  0  0
    2.6269   -2.2699   -2.4345 H   0  0  0  0  0  0
    2.0772    0.1245   -2.5372 H   0  0  0  0  0  0
  1  2  2  0  0  0
  1  5  1  0  0  0
  1 16  1  0  0  0
  2  3  1  0  0  0
  2  6  1  0  0  0
  3  4  1  0  0  0
  3 24  1  0  0  0
  3 25  1  0  0  0
  4  5  1  0  0  0
  4 26  1  0  0  0
  4 27  1  0  0  0
  5 28  1  0  0  0
  5 29  1  0  0  0
  6  7  1  0  0  0
  6 11  2  0  0  0
  7  8  2  0  0  0
  7 30  1  0  0  0
  8  9  1  0  0  0
  8 31  1  0  0  0
  9 10  2  0  0  0
  9 12  1  0  0  0
 10 11  1  0  0  0
 10 32  1  0  0  0
 11 33  1  0  0  0
 12 13  2  0  0  0
 12 14  2  0  0  0
 12 15  1  0  0  0
 15 34  1  0  0  0
 15 35  1  0  0  0
 15 36  1  0  0  0
 16 17  1  0  0  0
 16 21  2  0  0  0
 17 18  2  0  0  0
 17 23  1  0  0  0
 18 19  1  0  0  0
 18 37  1  0  0  0
 19 20  2  0  0  0
 19 22  1  0  0  0
 20 21  1  0  0  0
 20 38  1  0  0  0
 21 39  1  0  0  0
M  END
>  <Activity>
7.27572

>  <set>
2

>  <Min_dist>
0.06

>  <Avg_dist>
0.587473

$$$$
5-1J
  Cerius2 12110214513D 1   1.00000                          
 
 46 48  0  0  0  0  0  0  0  0999 V2000
    1.3497    2.4915    0.0638 C   0  0  0  0  0  0
    0.0236    2.6748    0.1012 C   0  0  0  0  0  0
   -0.3061    4.1473    0.1826 C   0  0  0  0  0  0
    0.9937    4.8697   -0.2381 C   0  0  0  0  0  0
    2.0702    3.8188    0.1157 C   0  0  0  0  0  0
   -0.9751    1.5914    0.0670 C   0  0  0  0  0  0
   -1.8729    1.4305    1.1257 C   0  0  0  0  0  0
   -2.8050    0.4147    1.0866 C   0  0  0  0  0  0
   -2.8522   -0.4443    0.0026 C   0  0  0  0  0  0
   -1.9661   -0.2913   -1.0492 C   0  0  0  0  0  0
   -1.0326    0.7237   -1.0268 C   0  0  0  0  0  0
   -4.0462   -1.7394   -0.0382 S   0  0  0  0  0  0
   -3.4296   -2.7101   -0.8730 O   0  0  0  0  0  0
   -4.2983   -1.9790    1.3396 O   0  0  0  0  0  0
   -5.4693   -0.9641   -0.8531 C   0  0  0  0  0  0
    2.0139    1.1778   -0.0111 C   0  0  0  0  0  0
    2.8467    0.8728   -1.0909 C   0  0  0  0  0  0
    3.4653   -0.3583   -1.1540 C   0  0  0  0  0  0
    3.2629   -1.2903   -0.1513 C   0  0  0  0  0  0
    2.4393   -0.9954    0.9209 C   0  0  0  0  0  0
    1.8186    0.2337    1.0004 C   0  0  0  0  0  0
    3.9425   -2.6332   -0.2276 C   0  0  0  0  0  0
    5.2131   -2.5617    0.4224 O   0  0  0  0  0  0
    5.8046   -3.8582    0.3168 C   0  0  0  0  0  0
   -1.1158    4.3931   -0.5045 H   0  0  0  0  0  0
   -0.5777    4.4191    1.2026 H   0  0  0  0  0  0
    0.9930    5.0821   -1.3072 H   0  0  0  0  0  0
    1.1363    5.7832    0.3392 H   0  0  0  0  0  0
    2.4612    3.9990    1.1171 H   0  0  0  0  0  0
    2.8770    3.8411   -0.6169 H   0  0  0  0  0  0
   -1.8367    2.0997    1.9726 H   0  0  0  0  0  0
   -3.4995    0.2891    1.9040 H   0  0  0  0  0  0
   -2.0083   -0.9659   -1.8915 H   0  0  0  0  0  0
   -0.3416    0.8419   -1.8484 H   0  0  0  0  0  0
   -6.2809   -1.6873   -0.9328 H   0  0  0  0  0  0
   -5.8019   -0.1078   -0.2663 H   0  0  0  0  0  0
   -5.1802   -0.6311   -1.8499 H   0  0  0  0  0  0
    3.0052    1.5990   -1.8743 H   0  0  0  0  0  0
    4.1089   -0.5957   -1.9881 H   0  0  0  0  0  0
    2.2857   -1.7278    1.6996 H   0  0  0  0  0  0
    1.1763    0.4626    1.8379 H   0  0  0  0  0  0
    3.3235   -3.3822    0.2662 H   0  0  0  0  0  0
    4.0839   -2.9100   -1.2723 H   0  0  0  0  0  0
    6.7811   -3.8526    0.8011 H   0  0  0  0  0  0
    5.1618   -4.5916    0.8036 H   0  0  0  0  0  0
    5.9222   -4.1194   -0.7349 H   0  0  0  0  0  0
  1  2  2  0  0  0
  1  5  1  0  0  0
  1 16  1  0  0  0
  2  3  1  0  0  0
  2  6  1  0  0  0
  3  4  1  0  0  0
  3 25  1  0  0  0
  3 26  1  0  0  0
  4  5  1  0  0  0
  4 27  1  0  0  0
  4 28  1  0  0  0
  5 29  1  0  0  0
  5 30  1  0  0  0
  6  7  1  0  0  0
  6 11  2  0  0  0
  7  8  2  0  0  0
  7 31  1  0  0  0
  8  9  1  0  0  0
  8 32  1  0  0  0
  9 10  2  0  0  0
  9 12  1  0  0  0
 10 11  1  0  0  0
 10 33  1  0  0  0
 11 34  1  0  0  0
 12 13  2  0  0  0
 12 14  2  0  0  0
 12 15  1  0  0  0
 15 35  1  0  0  0
 15 36  1  0  0  0
 15 37  1  0  0  0
 16 17  1  0  0  0
 16 21  2  0  0  0
 17 18  2  0  0  0
 17 38  1  0  0  0
 18 19  1  0  0  0
 18 39  1  0  0  0
 19 20  2  0  0  0
 19 22  1  0  0  0
 20 21  1  0  0  0
 20 40  1  0  0  0
 21 41  1  0  0  0
 22 23  1  0  0  0
 22 42  1  0  0  0
 22 43  1  0  0  0
 23 24  1  0  0  0
 24 44  1  0  0  0
 24 45  1  0  0  0
 24 46  1  0  0  0
M  END
>  <Activity>
5.18046

>  <set>
2

>  <Min_dist>
0.083333

>  <Avg_dist>
0.647177

$$$$
5-7E
  Cerius2 12110214513D 1   1.00000                          
 
 45 47  0  0  0  0  0  0  0  0999 V2000
    1.8751    0.2830   -0.2904 C   0  0  0  0  0  0
    1.1333   -0.8308   -0.3439 C   0  0  0  0  0  0
    2.0133   -2.0457   -0.5268 C   0  0  0  0  0  0
    3.4344   -1.5673   -0.1528 C   0  0  0  0  0  0
    3.3425   -0.0499   -0.4310 C   0  0  0  0  0  0
    3.7311   -1.8358    1.3239 C   0  0  0  0  0  0
    5.0223   -1.3918    1.6284 F   0  0  0  0  0  0
    4.4863   -2.2249   -1.0484 C   0  0  0  0  0  0
    5.7585   -1.7711   -0.6840 F   0  0  0  0  0  0
   -0.3363   -0.8667   -0.2382 C   0  0  0  0  0  0
   -1.1240   -0.1820   -1.1673 C   0  0  0  0  0  0
   -2.4986   -0.2201   -1.0621 C   0  0  0  0  0  0
   -3.0981   -0.9338   -0.0393 C   0  0  0  0  0  0
   -2.3245   -1.6140    0.8848 C   0  0  0  0  0  0
   -0.9489   -1.5904    0.7883 C   0  0  0  0  0  0
   -4.8550   -0.9762    0.0875 S   0  0  0  0  0  0
   -5.0654   -1.2084    1.4735 O   0  0  0  0  0  0
   -5.2457    0.2359   -0.5430 O   0  0  0  0  0  0
   -5.3064   -2.4234   -0.9088 C   0  0  0  0  0  0
    1.3352    1.6442   -0.1241 C   0  0  0  0  0  0
    0.5905    1.9694    1.0128 C   0  0  0  0  0  0
    0.0880    3.2445    1.1627 C   0  0  0  0  0  0
    0.3198    4.2028    0.1884 C   0  0  0  0  0  0
    1.0577    3.8863   -0.9415 C   0  0  0  0  0  0
    1.5708    2.6164   -1.0999 C   0  0  0  0  0  0
   -0.1759    5.4504    0.3404 F   0  0  0  0  0  0
    1.6956   -2.8477    0.1396 H   0  0  0  0  0  0
    1.9866   -2.3805   -1.5637 H   0  0  0  0  0  0
    3.6864    0.1718   -1.4412 H   0  0  0  0  0  0
    3.9291    0.5058    0.3006 H   0  0  0  0  0  0
    3.0085   -1.3033    1.9423 H   0  0  0  0  0  0
    3.6589   -2.9055    1.5204 H   0  0  0  0  0  0
    4.4389   -3.3074   -0.9298 H   0  0  0  0  0  0
    4.2918   -1.9645   -2.0888 H   0  0  0  0  0  0
   -0.6574    0.3761   -1.9657 H   0  0  0  0  0  0
   -3.1087    0.3087   -1.7795 H   0  0  0  0  0  0
   -2.7993   -2.1684    1.6808 H   0  0  0  0  0  0
   -0.3464   -2.1220    1.5100 H   0  0  0  0  0  0
   -6.3893   -2.5469   -0.9004 H   0  0  0  0  0  0
   -4.9650   -2.2796   -1.9339 H   0  0  0  0  0  0
   -4.8360   -3.3134   -0.4907 H   0  0  0  0  0  0
    0.4086    1.2234    1.7723 H   0  0  0  0  0  0
   -0.4877    3.4972    2.0408 H   0  0  0  0  0  0
    1.2347    4.6371   -1.6974 H   0  0  0  0  0  0
    2.1456    2.3710   -1.9807 H   0  0  0  0  0  0
  1  2  2  0  0  0
  1  5  1  0  0  0
  1 20  1  0  0  0
  2  3  1  0  0  0
  2 10  1  0  0  0
  3  4  1  0  0  0
  3 27  1  0  0  0
  3 28  1  0  0  0
  4  5  1  0  0  0
  4  6  1  0  0  0
  4  8  1  0  0  0
  5 29  1  0  0  0
  5 30  1  0  0  0
  6  7  1  0  0  0
  6 31  1  0  0  0
  6 32  1  0  0  0
  8  9  1  0  0  0
  8 33  1  0  0  0
  8 34  1  0  0  0
 10 11  1  0  0  0
 10 15  2  0  0  0
 11 12  2  0  0  0
 11 35  1  0  0  0
 12 13  1  0  0  0
 12 36  1  0  0  0
 13 14  2  0  0  0
 13 16  1  0  0  0
 14 15  1  0  0  0
 14 37  1  0  0  0
 15 38  1  0  0  0
 16 17  2  0  0  0
 16 18  2  0  0  0
 16 19  1  0  0  0
 19 39  1  0  0  0
 19 40  1  0  0  0
 19 41  1  0  0  0
 20 21  1  0  0  0
 20 25  2  0  0  0
 21 22  2  0  0  0
 21 42  1  0  0  0
 22 23  1  0  0  0
 22 43  1  0  0  0
 23 24  2  0  0  0
 23 26  1  0  0  0
 24 25  1  0  0  0
 24 44  1  0  0  0
 25 45  1  0  0  0
M  END
>  <Activity>
7.29243

>  <set>
2

>  <Min_dist>
0.065574

>  <Avg_dist>
0.637412

$$$$
6-7M
  Cerius2 12110214513D 1   1.00000                          
 
 47 49  0  0  0  0  0  0  0  0999 V2000
    1.1879    2.4934    0.2755 C   0  0  0  0  0  0
   -0.1240    2.7415    0.1639 C   0  0  0  0  0  0
   -0.3816    4.2304    0.1391 C   0  0  0  0  0  0
    0.9911    4.8663   -0.1767 C   0  0  0  0  0  0
    1.9683    3.7859    0.3390 C   0  0  0  0  0  0
   -1.1698    1.7069    0.0770 C   0  0  0  0  0  0
   -2.1790    1.6459    1.0416 C   0  0  0  0  0  0
   -3.1544    0.6748    0.9538 C   0  0  0  0  0  0
   -3.1351   -0.2380   -0.0862 C   0  0  0  0  0  0
   -2.1386   -0.1841   -1.0448 C   0  0  0  0  0  0
   -1.1604    0.7856   -0.9738 C   0  0  0  0  0  0
   -4.3851   -1.4755   -0.1898 S   0  0  0  0  0  0
   -3.7380   -2.5177   -0.9068 O   0  0  0  0  0  0
   -4.7899   -1.6284    1.1638 O   0  0  0  0  0  0
   -5.6740   -0.6785   -1.1869 C   0  0  0  0  0  0
    1.7857    1.1483    0.3345 C   0  0  0  0  0  0
    2.7083    0.7481   -0.6372 C   0  0  0  0  0  0
    3.2651   -0.5111   -0.5784 C   0  0  0  0  0  0
    2.9099   -1.3836    0.4465 C   0  0  0  0  0  0
    1.9929   -0.9886    1.4140 C   0  0  0  0  0  0
    1.4363    0.2710    1.3651 C   0  0  0  0  0  0
    3.4754   -2.6583    0.5028 N   0  0  0  0  0  0
    4.1852   -2.7490    1.7857 C   0  0  0  0  0  0
    2.3602   -3.6122    0.5689 C   0  0  0  0  0  0
    4.4102   -1.0099   -1.7841 Cl  0  0  0  0  0  0
   -1.1022    4.4775   -0.6405 H   0  0  0  0  0  0
   -0.7418    4.5690    1.1105 H   0  0  0  0  0  0
    1.1115    5.0209   -1.2489 H   0  0  0  0  0  0
    1.1217    5.8016    0.3675 H   0  0  0  0  0  0
    2.2632    4.0007    1.3662 H   0  0  0  0  0  0
    2.8463    3.7307   -0.3046 H   0  0  0  0  0  0
   -2.1950    2.3571    1.8542 H   0  0  0  0  0  0
   -3.9350    0.6264    1.6986 H   0  0  0  0  0  0
   -2.1295   -0.9002   -1.8532 H   0  0  0  0  0  0
   -0.3835    0.8267   -1.7228 H   0  0  0  0  0  0
   -6.5100   -1.3657   -1.3165 H   0  0  0  0  0  0
   -6.0196    0.2229   -0.6807 H   0  0  0  0  0  0
   -5.2667   -0.4137   -2.1626 H   0  0  0  0  0  0
    2.9838    1.4246   -1.4326 H   0  0  0  0  0  0
    1.7196   -1.6684    2.2074 H   0  0  0  0  0  0
    0.7244    0.5769    2.1174 H   0  0  0  0  0  0
    4.6465   -3.7323    1.8770 H   0  0  0  0  0  0
    4.9567   -1.9802    1.8293 H   0  0  0  0  0  0
    3.4790   -2.6016    2.6029 H   0  0  0  0  0  0
    2.7532   -4.6279    0.6146 H   0  0  0  0  0  0
    1.7639   -3.4129    1.4593 H   0  0  0  0  0  0
    1.7362   -3.5037   -0.3181 H   0  0  0  0  0  0
  1  2  2  0  0  0
  1  5  1  0  0  0
  1 16  1  0  0  0
  2  3  1  0  0  0
  2  6  1  0  0  0
  3  4  1  0  0  0
  3 26  1  0  0  0
  3 27  1  0  0  0
  4  5  1  0  0  0
  4 28  1  0  0  0
  4 29  1  0  0  0
  5 30  1  0  0  0
  5 31  1  0  0  0
  6  7  1  0  0  0
  6 11  2  0  0  0
  7  8  2  0  0  0
  7 32  1  0  0  0
  8  9  1  0  0  0
  8 33  1  0  0  0
  9 10  2  0  0  0
  9 12  1  0  0  0
 10 11  1  0  0  0
 10 34  1  0  0  0
 11 35  1  0  0  0
 12 13  2  0  0  0
 12 14  2  0  0  0
 12 15  1  0  0  0
 15 36  1  0  0  0
 15 37  1  0  0  0
 15 38  1  0  0  0
 16 17  1  0  0  0
 16 21  2  0  0  0
 17 18  2  0  0  0
 17 39  1  0  0  0
 18 19  1  0  0  0
 18 25  1  0  0  0
 19 20  2  0  0  0
 19 22  1  0  0  0
 20 21  1  0  0  0
 20 40  1  0  0  0
 21 41  1  0  0  0
 22 23  1  0  0  0
 22 24  1  0  0  0
 23 42  1  0  0  0
 23 43  1  0  0  0
 23 44  1  0  0  0
 24 45  1  0  0  0
 24 46  1  0  0  0
 24 47  1  0  0  0
M  END
>  <Activity>
8.30103

>  <set>
2

>  <Min_dist>
0.140625

>  <Avg_dist>
0.574451

$$$$
6-8H
  Cerius2 12110214513D 1   1.00000                          
 
 42 44  0  0  0  0  0  0  0  0999 V2000
    2.3355    1.7388    0.0723 C   0  0  0  0  0  0
    1.1233    2.3079    0.1081 C   0  0  0  0  0  0
    1.2459    3.8114    0.1982 C   0  0  0  0  0  0
    2.7032    4.1170   -0.2154 C   0  0  0  0  0  0
    3.4175    2.7920    0.1341 C   0  0  0  0  0  0
   -0.1520    1.5705    0.0656 C   0  0  0  0  0  0
   -1.0609    1.6783    1.1215 C   0  0  0  0  0  0
   -2.2526    0.9857    1.0746 C   0  0  0  0  0  0
   -2.5492    0.1854   -0.0147 C   0  0  0  0  0  0
   -1.6541    0.0737   -1.0641 C   0  0  0  0  0  0
   -0.4608    0.7646   -1.0335 C   0  0  0  0  0  0
   -4.0740   -0.6962   -0.0656 S   0  0  0  0  0  0
   -3.8649   -1.7777   -0.9633 O   0  0  0  0  0  0
   -4.4943   -0.8189    1.2863 O   0  0  0  0  0  0
   -5.1895    0.2858   -0.7962 N   0  0  0  0  0  0
    2.5797    0.2881   -0.0094 C   0  0  0  0  0  0
    3.2887   -0.2437   -1.0904 C   0  0  0  0  0  0
    3.5146   -1.6010   -1.1625 C   0  0  0  0  0  0
    3.0389   -2.4406   -0.1633 C   0  0  0  0  0  0
    2.3339   -1.9168    0.9128 C   0  0  0  0  0  0
    2.1080   -0.5600    0.9966 C   0  0  0  0  0  0
    3.2637   -3.7782   -0.2389 O   0  0  0  0  0  0
    2.6616   -4.3642    0.9170 C   0  0  0  0  0  0
    0.5484    4.2905   -0.4890 H   0  0  0  0  0  0
    1.0635    4.1461    1.2193 H   0  0  0  0  0  0
    2.7697    4.3258   -1.2832 H   0  0  0  0  0  0
    3.1086    4.9439    0.3678 H   0  0  0  0  0  0
    3.8406    2.8425    1.1374 H   0  0  0  0  0  0
    4.1974    2.5775   -0.5967 H   0  0  0  0  0  0
   -0.8306    2.3022    1.9725 H   0  0  0  0  0  0
   -2.9559    1.0677    1.8901 H   0  0  0  0  0  0
   -1.8923   -0.5527   -1.9110 H   0  0  0  0  0  0
    0.2368    0.6768   -1.8533 H   0  0  0  0  0  0
   -6.1007   -0.0231   -0.9194 H   0  0  0  0  0  0
   -4.9317    1.1699   -1.1008 H   0  0  0  0  0  0
    3.6586    0.4083   -1.8679 H   0  0  0  0  0  0
    4.0619   -2.0129   -1.9975 H   0  0  0  0  0  0
    1.9657   -2.5735    1.6871 H   0  0  0  0  0  0
    1.5598   -0.1537    1.8336 H   0  0  0  0  0  0
    2.8169   -5.4430    0.9001 H   0  0  0  0  0  0
    3.1161   -3.9457    1.8150 H   0  0  0  0  0  0
    1.5927   -4.1509    0.9175 H   0  0  0  0  0  0
  1  2  2  0  0  0
  1  5  1  0  0  0
  1 16  1  0  0  0
  2  3  1  0  0  0
  2  6  1  0  0  0
  3  4  1  0  0  0
  3 24  1  0  0  0
  3 25  1  0  0  0
  4  5  1  0  0  0
  4 26  1  0  0  0
  4 27  1  0  0  0
  5 28  1  0  0  0
  5 29  1  0  0  0
  6  7  1  0  0  0
  6 11  2  0  0  0
  7  8  2  0  0  0
  7 30  1  0  0  0
  8  9  1  0  0  0
  8 31  1  0  0  0
  9 10  2  0  0  0
  9 12  1  0  0  0
 10 11  1  0  0  0
 10 32  1  0  0  0
 11 33  1  0  0  0
 12 13  2  0  0  0
 12 14  2  0  0  0
 12 15  1  0  0  0
 15 34  1  0  0  0
 15 35  1  0  0  0
 16 17  1  0  0  0
 16 21  2  0  0  0
 17 18  2  0  0  0
 17 36  1  0  0  0
 18 19  1  0  0  0
 18 37  1  0  0  0
 19 20  2  0  0  0
 19 22  1  0  0  0
 20 21  1  0  0  0
 20 38  1  0  0  0
 21 39  1  0  0  0
 22 23  1  0  0  0
 23 40  1  0  0  0
 23 41  1  0  0  0
 23 42  1  0  0  0
M  END
>  <Activity>
8.69897

>  <set>
2

>  <Min_dist>
0.083333

>  <Avg_dist>
0.628246

$$$$
6-8L
  Cerius2 12110214513D 1   1.00000                          
 
 41 44  0  0  0  0  0  0  0  0999 V2000
    1.8313    2.0654    0.1211 C   0  0  0  0  0  0
    0.5644    2.4775   -0.0186 C   0  0  0  0  0  0
    0.5089    3.9805   -0.1660 C   0  0  0  0  0  0
    1.9531    4.3985   -0.5236 C   0  0  0  0  0  0
    2.7787    3.2422    0.0844 C   0  0  0  0  0  0
   -0.6115    1.5890   -0.0274 C   0  0  0  0  0  0
   -1.6151    1.7431    0.9326 C   0  0  0  0  0  0
   -2.7125    0.9079    0.9181 C   0  0  0  0  0  0
   -2.8212   -0.0808   -0.0439 C   0  0  0  0  0  0
   -1.8310   -0.2397   -0.9975 C   0  0  0  0  0  0
   -0.7309    0.5921   -0.9994 C   0  0  0  0  0  0
   -4.2269   -1.1431   -0.0544 S   0  0  0  0  0  0
   -3.8201   -2.3150   -0.7476 O   0  0  0  0  0  0
   -4.7470   -1.1083    1.2675 O   0  0  0  0  0  0
   -5.3777   -0.4320   -1.0096 N   0  0  0  0  0  0
    2.2432    0.6612    0.2930 C   0  0  0  0  0  0
    3.0989    0.0629   -0.6365 C   0  0  0  0  0  0
    3.4825   -1.2542   -0.4713 C   0  0  0  0  0  0
    3.0157   -1.9846    0.6218 C   0  0  0  0  0  0
    2.1661   -1.3905    1.5436 C   0  0  0  0  0  0
    1.7843   -0.0745    1.3886 C   0  0  0  0  0  0
    3.5349   -3.2454    0.5560 O   0  0  0  0  0  0
    4.6446   -3.1575   -0.3570 C   0  0  0  0  0  0
    4.2931   -2.0592   -1.2190 O   0  0  0  0  0  0
   -0.1755    4.2578   -0.9677 H   0  0  0  0  0  0
    0.2019    4.4423    0.7724 H   0  0  0  0  0  0
    2.0883    4.4479   -1.6040 H   0  0  0  0  0  0
    2.2107    5.3490   -0.0563 H   0  0  0  0  0  0
    3.1044    3.4983    1.0925 H   0  0  0  0  0  0
    3.6382    3.0174   -0.5470 H   0  0  0  0  0  0
   -1.5315    2.5141    1.6843 H   0  0  0  0  0  0
   -3.4888    1.0255    1.6597 H   0  0  0  0  0  0
   -1.9224   -1.0137   -1.7451 H   0  0  0  0  0  0
    0.0410    0.4672   -1.7444 H   0  0  0  0  0  0
   -6.2342   -0.8675   -1.1428 H   0  0  0  0  0  0
   -5.1953    0.4200   -1.4359 H   0  0  0  0  0  0
    3.4593    0.6291   -1.4826 H   0  0  0  0  0  0
    1.8066   -1.9592    2.3885 H   0  0  0  0  0  0
    1.1230    0.3845    2.1087 H   0  0  0  0  0  0
    5.5673   -2.9415    0.1816 H   0  0  0  0  0  0
    4.7420   -4.0789   -0.9311 H   0  0  0  0  0  0
  1  2  2  0  0  0
  1  5  1  0  0  0
  1 16  1  0  0  0
  2  3  1  0  0  0
  2  6  1  0  0  0
  3  4  1  0  0  0
  3 25  1  0  0  0
  3 26  1  0  0  0
  4  5  1  0  0  0
  4 27  1  0  0  0
  4 28  1  0  0  0
  5 29  1  0  0  0
  5 30  1  0  0  0
  6  7  1  0  0  0
  6 11  2  0  0  0
  7  8  2  0  0  0
  7 31  1  0  0  0
  8  9  1  0  0  0
  8 32  1  0  0  0
  9 10  2  0  0  0
  9 12  1  0  0  0
 10 11  1  0  0  0
 10 33  1  0  0  0
 11 34  1  0  0  0
 12 13  2  0  0  0
 12 14  2  0  0  0
 12 15  1  0  0  0
 15 35  1  0  0  0
 15 36  1  0  0  0
 16 17  1  0  0  0
 16 21  2  0  0  0
 17 18  2  0  0  0
 17 37  1  0  0  0
 18 19  1  0  0  0
 18 24  1  0  0  0
 19 20  2  0  0  0
 19 22  1  0  0  0
 20 21  1  0  0  0
 20 38  1  0  0  0
 21 39  1  0  0  0
 22 23  1  0  0  0
 23 24  1  0  0  0
 23 40  1  0  0  0
 23 41  1  0  0  0
M  END
>  <Activity>
8.69897

>  <set>
2

>  <Min_dist>
0.125

>  <Avg_dist>
0.693942

$$$$
6-8P
  Cerius2 12110214513D 1   1.00000                          
 
 41 43  0  0  0  0  0  0  0  0999 V2000
    0.8323    2.7757    0.1719 C   0  0  0  0  0  0
   -0.5017    2.8750    0.1083 C   0  0  0  0  0  0
   -0.9256    4.3254    0.0958 C   0  0  0  0  0  0
    0.3548    5.1107   -0.2679 C   0  0  0  0  0  0
    1.4649    4.1476    0.2098 C   0  0  0  0  0  0
   -1.4274    1.7291    0.0567 C   0  0  0  0  0  0
   -2.3878    1.5570    1.0570 C   0  0  0  0  0  0
   -3.2506    0.4824    1.0022 C   0  0  0  0  0  0
   -3.1665   -0.4243   -0.0398 C   0  0  0  0  0  0
   -2.2180   -0.2603   -1.0339 C   0  0  0  0  0  0
   -1.3525    0.8129   -0.9957 C   0  0  0  0  0  0
   -4.2723   -1.7947   -0.1008 S   0  0  0  0  0  0
   -3.6307   -2.7730   -0.9073 O   0  0  0  0  0  0
   -4.7164   -1.9922    1.2345 O   0  0  0  0  0  0
   -5.6087   -1.3150   -0.9531 N   0  0  0  0  0  0
    1.5791    1.5055    0.2065 C   0  0  0  0  0  0
    2.5046    1.2080   -0.7971 C   0  0  0  0  0  0
    3.2010    0.0157   -0.7575 C   0  0  0  0  0  0
    2.9825   -0.8832    0.2748 C   0  0  0  0  0  0
    2.0671   -0.5936    1.2705 C   0  0  0  0  0  0
    1.3690    0.5960    1.2462 C   0  0  0  0  0  0
    3.7455   -2.1823    0.3122 C   0  0  0  0  0  0
    3.3587   -2.9180    1.4375 F   0  0  0  0  0  0
    3.4688   -2.9191   -0.8444 F   0  0  0  0  0  0
    5.1173   -1.9157    0.3783 F   0  0  0  0  0  0
    4.0962   -0.2749   -1.7267 F   0  0  0  0  0  0
   -1.6970    4.4885   -0.6568 H   0  0  0  0  0  0
   -1.2863    4.6234    1.0803 H   0  0  0  0  0  0
    0.4183    5.2759   -1.3434 H   0  0  0  0  0  0
    0.3992    6.0558    0.2733 H   0  0  0  0  0  0
    1.7708    4.3961    1.2261 H   0  0  0  0  0  0
    2.3197    4.1897   -0.4653 H   0  0  0  0  0  0
   -2.4540    2.2634    1.8712 H   0  0  0  0  0  0
   -3.9934    0.3480    1.7746 H   0  0  0  0  0  0
   -2.1579   -0.9721   -1.8439 H   0  0  0  0  0  0
   -0.6129    0.9399   -1.7724 H   0  0  0  0  0  0
   -6.3402   -1.9355   -1.0977 H   0  0  0  0  0  0
   -5.6599   -0.4136   -1.3077 H   0  0  0  0  0  0
    2.6748    1.9081   -1.6016 H   0  0  0  0  0  0
    1.9014   -1.2989    2.0714 H   0  0  0  0  0  0
    0.6550    0.8202    2.0249 H   0  0  0  0  0  0
  1  2  2  0  0  0
  1  5  1  0  0  0
  1 16  1  0  0  0
  2  3  1  0  0  0
  2  6  1  0  0  0
  3  4  1  0  0  0
  3 27  1  0  0  0
  3 28  1  0  0  0
  4  5  1  0  0  0
  4 29  1  0  0  0
  4 30  1  0  0  0
  5 31  1  0  0  0
  5 32  1  0  0  0
  6  7  1  0  0  0
  6 11  2  0  0  0
  7  8  2  0  0  0
  7 33  1  0  0  0
  8  9  1  0  0  0
  8 34  1  0  0  0
  9 10  2  0  0  0
  9 12  1  0  0  0
 10 11  1  0  0  0
 10 35  1  0  0  0
 11 36  1  0  0  0
 12 13  2  0  0  0
 12 14  2  0  0  0
 12 15  1  0  0  0
 15 37  1  0  0  0
 15 38  1  0  0  0
 16 17  1  0  0  0
 16 21  2  0  0  0
 17 18  2  0  0  0
 17 39  1  0  0  0
 18 19  1  0  0  0
 18 26  1  0  0  0
 19 20  2  0  0  0
 19 22  1  0  0  0
 20 21  1  0  0  0
 20 40  1  0  0  0
 21 41  1  0  0  0
 22 23  1  0  0  0
 22 24  1  0  0  0
 22 25  1  0  0  0
M  END
>  <Activity>
6.76955

>  <set>
2

>  <Min_dist>
0.148148

>  <Avg_dist>
0.589633

$$$$
5-1H
  Cerius2 12110214513D 1   1.00000                          
 
 40 42  0  0  0  0  0  0  0  0999 V2000
    2.2795    1.7591    0.0692 C   0  0  0  0  0  0
    1.0528    2.2999    0.0501 C   0  0  0  0  0  0
    1.1389    3.8086    0.0550 C   0  0  0  0  0  0
    2.5963    4.1253   -0.3495 C   0  0  0  0  0  0
    3.3348    2.8406    0.0892 C   0  0  0  0  0  0
   -0.2037    1.5306    0.0267 C   0  0  0  0  0  0
   -1.1355    1.6763    1.0581 C   0  0  0  0  0  0
   -2.3093    0.9529    1.0294 C   0  0  0  0  0  0
   -2.5653    0.0841   -0.0169 C   0  0  0  0  0  0
   -1.6474   -0.0653   -1.0416 C   0  0  0  0  0  0
   -0.4720    0.6560   -1.0298 C   0  0  0  0  0  0
   -4.0673   -0.8367   -0.0442 S   0  0  0  0  0  0
   -3.7215   -1.9808   -0.8128 O   0  0  0  0  0  0
   -4.4069   -0.9264    1.3327 O   0  0  0  0  0  0
   -5.2044    0.2539   -0.9434 C   0  0  0  0  0  0
    2.5591    0.3140    0.0761 C   0  0  0  0  0  0
    3.3023   -0.2600   -0.9613 C   0  0  0  0  0  0
    3.5619   -1.6007   -0.9543 C   0  0  0  0  0  0
    3.0847   -2.4001    0.0894 C   0  0  0  0  0  0
    2.3420   -1.8268    1.1265 C   0  0  0  0  0  0
    2.0868   -0.4852    1.1232 C   0  0  0  0  0  0
    3.3564   -3.8060    0.0959 C   0  0  0  0  0  0
    3.5719   -4.9214    0.1011 N   0  0  0  0  0  0
    0.4438    4.2303   -0.6710 H   0  0  0  0  0  0
    0.9292    4.1970    1.0517 H   0  0  0  0  0  0
    2.6784    4.2735   -1.4263 H   0  0  0  0  0  0
    2.9709    4.9941    0.1916 H   0  0  0  0  0  0
    3.7369    2.9593    1.0953 H   0  0  0  0  0  0
    4.1336    2.6038   -0.6136 H   0  0  0  0  0  0
   -0.9367    2.3534    1.8757 H   0  0  0  0  0  0
   -3.0304    1.0644    1.8257 H   0  0  0  0  0  0
   -1.8539   -0.7455   -1.8548 H   0  0  0  0  0  0
    0.2435    0.5383   -1.8302 H   0  0  0  0  0  0
   -6.1811   -0.2238   -1.0206 H   0  0  0  0  0  0
   -5.3029    1.1977   -0.4071 H   0  0  0  0  0  0
   -4.8123    0.4430   -1.9427 H   0  0  0  0  0  0
    3.6701    0.3571   -1.7677 H   0  0  0  0  0  0
    4.1354   -2.0438   -1.7549 H   0  0  0  0  0  0
    1.9734   -2.4445    1.9321 H   0  0  0  0  0  0
    1.5135   -0.0425    1.9243 H   0  0  0  0  0  0
  1  2  2  0  0  0
  1  5  1  0  0  0
  1 16  1  0  0  0
  2  3  1  0  0  0
  2  6  1  0  0  0
  3  4  1  0  0  0
  3 24  1  0  0  0
  3 25  1  0  0  0
  4  5  1  0  0  0
  4 26  1  0  0  0
  4 27  1  0  0  0
  5 28  1  0  0  0
  5 29  1  0  0  0
  6  7  1  0  0  0
  6 11  2  0  0  0
  7  8  2  0  0  0
  7 30  1  0  0  0
  8  9  1  0  0  0
  8 31  1  0  0  0
  9 10  2  0  0  0
  9 12  1  0  0  0
 10 11  1  0  0  0
 10 32  1  0  0  0
 11 33  1  0  0  0
 12 13  2  0  0  0
 12 14  2  0  0  0
 12 15  1  0  0  0
 15 34  1  0  0  0
 15 35  1  0  0  0
 15 36  1  0  0  0
 16 17  1  0  0  0
 16 21  2  0  0  0
 17 18  2  0  0  0
 17 37  1  0  0  0
 18 19  1  0  0  0
 18 38  1  0  0  0
 19 20  2  0  0  0
 19 22  1  0  0  0
 20 21  1  0  0  0
 20 39  1  0  0  0
 21 40  1  0  0  0
 22 23  3  0  0  0
M  END
>  <Activity>
4.10846

>  <set>
2

>  <Min_dist>
0.12766

>  <Avg_dist>
0.635702

$$$$
7-16A
  Cerius2 12110214513D 1   1.00000                          
 
 38 40  0  0  0  0  0  0  0  0999 V2000
    2.7307    0.7559   -0.0340 C   0  0  0  0  0  0
    1.7346    1.7435    0.0295 C   0  0  0  0  0  0
    2.0986    3.0864    0.0708 C   0  0  0  0  0  0
    3.4328    3.4409    0.0492 C   0  0  0  0  0  0
    4.4147    2.4673   -0.0139 C   0  0  0  0  0  0
    4.0711    1.1308   -0.0551 C   0  0  0  0  0  0
    0.3033    1.3582    0.0520 C   0  0  0  0  0  0
   -0.5556    1.7979   -0.9542 C   0  0  0  0  0  0
   -1.8869    1.4356   -0.9283 C   0  0  0  0  0  0
   -2.3697    0.6378    0.0936 C   0  0  0  0  0  0
   -1.5221    0.1986    1.0947 C   0  0  0  0  0  0
   -0.1878    0.5501    1.0764 C   0  0  0  0  0  0
   -4.0709    0.1799    0.1203 S   0  0  0  0  0  0
   -4.3152   -0.0442    1.5021 O   0  0  0  0  0  0
   -4.6934    1.2384   -0.5946 O   0  0  0  0  0  0
   -4.0967   -1.3695   -0.8228 C   0  0  0  0  0  0
    2.3571   -0.6780   -0.0724 C   0  0  0  0  0  0
    2.7952   -1.5418    0.9306 C   0  0  0  0  0  0
    2.4446   -2.8755    0.8910 C   0  0  0  0  0  0
    1.6584   -3.3569   -0.1434 C   0  0  0  0  0  0
    1.2210   -2.5023   -1.1426 C   0  0  0  0  0  0
    1.5618   -1.1660   -1.1083 C   0  0  0  0  0  0
    1.3175   -4.6638   -0.1781 F   0  0  0  0  0  0
    1.3374    3.8510    0.1194 H   0  0  0  0  0  0
    3.7119    4.4837    0.0813 H   0  0  0  0  0  0
    5.4556    2.7548   -0.0307 H   0  0  0  0  0  0
    4.8422    0.3762   -0.1046 H   0  0  0  0  0  0
   -0.1799    2.4210   -1.7523 H   0  0  0  0  0  0
   -2.5533    1.7759   -1.7071 H   0  0  0  0  0  0
   -1.9046   -0.4240    1.8900 H   0  0  0  0  0  0
    0.4731    0.2066    1.8585 H   0  0  0  0  0  0
   -5.1174   -1.7488   -0.8707 H   0  0  0  0  0  0
   -3.7294   -1.1863   -1.8326 H   0  0  0  0  0  0
   -3.4586   -2.1043   -0.3318 H   0  0  0  0  0  0
    3.4083   -1.1675    1.7370 H   0  0  0  0  0  0
    2.7838   -3.5454    1.6672 H   0  0  0  0  0  0
    0.6087   -2.8821   -1.9471 H   0  0  0  0  0  0
    1.2202   -0.5005   -1.8874 H   0  0  0  0  0  0
  1  2  1  0  0  0
  1  6  2  0  0  0
  1 17  1  0  0  0
  2  3  2  0  0  0
  2  7  1  0  0  0
  3  4  1  0  0  0
  3 24  1  0  0  0
  4  5  2  0  0  0
  4 25  1  0  0  0
  5  6  1  0  0  0
  5 26  1  0  0  0
  6 27  1  0  0  0
  7  8  1  0  0  0
  7 12  2  0  0  0
  8  9  2  0  0  0
  8 28  1  0  0  0
  9 10  1  0  0  0
  9 29  1  0  0  0
 10 11  2  0  0  0
 10 13  1  0  0  0
 11 12  1  0  0  0
 11 30  1  0  0  0
 12 31  1  0  0  0
 13 14  2  0  0  0
 13 15  2  0  0  0
 13 16  1  0  0  0
 16 32  1  0  0  0
 16 33  1  0  0  0
 16 34  1  0  0  0
 17 18  1  0  0  0
 17 22  2  0  0  0
 18 19  2  0  0  0
 18 35  1  0  0  0
 19 20  1  0  0  0
 19 36  1  0  0  0
 20 21  2  0  0  0
 20 23  1  0  0  0
 21 22  1  0  0  0
 21 37  1  0  0  0
 22 38  1  0  0  0
M  END
>  <Activity>
6.58503

>  <set>
2

>  <Min_dist>
0.146341

>  <Avg_dist>
0.576

$$$$
7-17D
  Cerius2 12110214513D 1   1.00000                          
 
 41 43  0  0  0  0  0  0  0  0999 V2000
    2.3828    1.5175   -0.1389 C   0  0  0  0  0  0
    1.2441    2.3323   -0.0317 C   0  0  0  0  0  0
    1.3898    3.7159    0.0137 C   0  0  0  0  0  0
    2.6486    4.2798   -0.0466 C   0  0  0  0  0  0
    3.7710    3.4767   -0.1527 C   0  0  0  0  0  0
    3.6446    2.1027   -0.1986 C   0  0  0  0  0  0
   -0.1055    1.7224    0.0323 C   0  0  0  0  0  0
   -1.0570    2.0252   -0.9406 C   0  0  0  0  0  0
   -2.3116    1.4540   -0.8761 C   0  0  0  0  0  0
   -2.6258    0.5826    0.1512 C   0  0  0  0  0  0
   -1.6857    0.2784    1.1194 C   0  0  0  0  0  0
   -0.4262    0.8394    1.0623 C   0  0  0  0  0  0
   -4.2299   -0.1424    0.2272 S   0  0  0  0  0  0
   -4.4207   -0.5163    1.5848 O   0  0  0  0  0  0
   -5.0796    0.7214   -0.5152 O   0  0  0  0  0  0
   -4.1734   -1.5604   -0.6262 N   0  0  0  0  0  0
    2.2425    0.0428   -0.1821 C   0  0  0  0  0  0
    2.8473   -0.7457    0.7968 C   0  0  0  0  0  0
    2.7144   -2.1189    0.7533 C   0  0  0  0  0  0
    1.9791   -2.7151   -0.2654 C   0  0  0  0  0  0
    1.3771   -1.9322   -1.2397 C   0  0  0  0  0  0
    1.5012   -0.5588   -1.1979 C   0  0  0  0  0  0
    1.8504   -4.0676   -0.3068 O   0  0  0  0  0  0
    1.0511   -4.3715   -1.4517 C   0  0  0  0  0  0
    3.2995   -2.8842    1.7006 F   0  0  0  0  0  0
    0.5181    4.3483    0.0958 H   0  0  0  0  0  0
    2.7581    5.3536   -0.0111 H   0  0  0  0  0  0
    4.7513    3.9276   -0.1996 H   0  0  0  0  0  0
    4.5245    1.4819   -0.2814 H   0  0  0  0  0  0
   -0.8129    2.7057   -1.7429 H   0  0  0  0  0  0
   -3.0496    1.6881   -1.6290 H   0  0  0  0  0  0
   -1.9366   -0.4026    1.9191 H   0  0  0  0  0  0
    0.3070    0.6013    1.8187 H   0  0  0  0  0  0
   -4.9672   -2.1125   -0.7026 H   0  0  0  0  0  0
   -3.3463   -1.8388   -1.0498 H   0  0  0  0  0  0
    3.4189   -0.2824    1.5874 H   0  0  0  0  0  0
    0.8067   -2.3983   -2.0295 H   0  0  0  0  0  0
    1.0320    0.0494   -1.9570 H   0  0  0  0  0  0
    0.9198   -5.4509   -1.5270 H   0  0  0  0  0  0
    0.0769   -3.8930   -1.3522 H   0  0  0  0  0  0
    1.5471   -4.0024   -2.3494 H   0  0  0  0  0  0
  1  2  1  0  0  0
  1  6  2  0  0  0
  1 17  1  0  0  0
  2  3  2  0  0  0
  2  7  1  0  0  0
  3  4  1  0  0  0
  3 26  1  0  0  0
  4  5  2  0  0  0
  4 27  1  0  0  0
  5  6  1  0  0  0
  5 28  1  0  0  0
  6 29  1  0  0  0
  7  8  1  0  0  0
  7 12  2  0  0  0
  8  9  2  0  0  0
  8 30  1  0  0  0
  9 10  1  0  0  0
  9 31  1  0  0  0
 10 11  2  0  0  0
 10 13  1  0  0  0
 11 12  1  0  0  0
 11 32  1  0  0  0
 12 33  1  0  0  0
 13 14  2  0  0  0
 13 15  2  0  0  0
 13 16  1  0  0  0
 16 34  1  0  0  0
 16 35  1  0  0  0
 17 18  1  0  0  0
 17 22  2  0  0  0
 18 19  2  0  0  0
 18 36  1  0  0  0
 19 20  1  0  0  0
 19 25  1  0  0  0
 20 21  2  0  0  0
 20 23  1  0  0  0
 21 22  1  0  0  0
 21 37  1  0  0  0
 22 38  1  0  0  0
 23 24  1  0  0  0
 24 39  1  0  0  0
 24 40  1  0  0  0
 24 41  1  0  0  0
M  END
>  <Activity>
7.48149

>  <set>
2

>  <Min_dist>
0.042553

>  <Avg_dist>
0.566112

$$$$
7-20G
  Cerius2 12110214513D 1   1.00000                          
 
 45 47  0  0  0  0  0  0  0  0999 V2000
    2.2828    0.0038    0.1015 C   0  0  0  0  0  0
    1.6398   -1.2412    0.0090 C   0  0  0  0  0  0
    2.3983   -2.4076   -0.0334 C   0  0  0  0  0  0
    3.7777   -2.3370    0.0155 C   0  0  0  0  0  0
    4.4136   -1.1059    0.1074 C   0  0  0  0  0  0
    3.6728    0.0602    0.1500 C   0  0  0  0  0  0
    5.7625   -1.0478    0.1551 F   0  0  0  0  0  0
    4.5109   -3.4710   -0.0259 F   0  0  0  0  0  0
    0.1602   -1.3130   -0.0427 C   0  0  0  0  0  0
   -0.5415   -2.0082    0.9411 C   0  0  0  0  0  0
   -1.9190   -2.0716    0.8877 C   0  0  0  0  0  0
   -2.6036   -1.4471   -0.1394 C   0  0  0  0  0  0
   -1.9127   -0.7559   -1.1184 C   0  0  0  0  0  0
   -0.5355   -0.6807   -1.0723 C   0  0  0  0  0  0
   -4.3624   -1.5330   -0.2012 S   0  0  0  0  0  0
   -4.6369   -1.3766   -1.5867 O   0  0  0  0  0  0
   -4.6434   -2.7408    0.4926 O   0  0  0  0  0  0
   -4.8809   -0.0789    0.7512 C   0  0  0  0  0  0
    1.4852    1.2524    0.1413 C   0  0  0  0  0  0
    1.6557    2.2223   -0.8464 C   0  0  0  0  0  0
    0.9123    3.3827   -0.8065 C   0  0  0  0  0  0
   -0.0054    3.5863    0.2156 C   0  0  0  0  0  0
   -0.1776    2.6230    1.2002 C   0  0  0  0  0  0
    0.5588    1.4575    1.1629 C   0  0  0  0  0  0
   -0.7362    4.7312    0.2523 O   0  0  0  0  0  0
   -1.5780    4.6472    1.4039 C   0  0  0  0  0  0
    1.0962    4.4314   -1.8730 C   0  0  0  0  0  0
    1.9089   -3.3677   -0.1042 H   0  0  0  0  0  0
    4.1724    1.0150    0.2215 H   0  0  0  0  0  0
   -0.0081   -2.4964    1.7433 H   0  0  0  0  0  0
   -2.4636   -2.6102    1.6491 H   0  0  0  0  0  0
   -2.4524   -0.2706   -1.9181 H   0  0  0  0  0  0
    0.0028   -0.1405   -1.8369 H   0  0  0  0  0  0
   -5.9695   -0.0318    0.7787 H   0  0  0  0  0  0
   -4.4947   -0.1537    1.7678 H   0  0  0  0  0  0
   -4.4900    0.8227    0.2795 H   0  0  0  0  0  0
    2.3695    2.0647   -1.6414 H   0  0  0  0  0  0
   -0.8919    2.7846    1.9939 H   0  0  0  0  0  0
    0.4245    0.7084    1.9292 H   0  0  0  0  0  0
   -2.1866    5.5486    1.4757 H   0  0  0  0  0  0
   -2.2276    3.7762    1.3165 H   0  0  0  0  0  0
   -0.9619    4.5526    2.2982 H   0  0  0  0  0  0
    0.4101    4.2358   -2.6970 H   0  0  0  0  0  0
    0.8892    5.4161   -1.4538 H   0  0  0  0  0  0
    2.1223    4.4009   -2.2394 H   0  0  0  0  0  0
  1  2  1  0  0  0
  1  6  2  0  0  0
  1 19  1  0  0  0
  2  3  2  0  0  0
  2  9  1  0  0  0
  3  4  1  0  0  0
  3 28  1  0  0  0
  4  5  2  0  0  0
  4  8  1  0  0  0
  5  6  1  0  0  0
  5  7  1  0  0  0
  6 29  1  0  0  0
  9 10  1  0  0  0
  9 14  2  0  0  0
 10 11  2  0  0  0
 10 30  1  0  0  0
 11 12  1  0  0  0
 11 31  1  0  0  0
 12 13  2  0  0  0
 12 15  1  0  0  0
 13 14  1  0  0  0
 13 32  1  0  0  0
 14 33  1  0  0  0
 15 16  2  0  0  0
 15 17  2  0  0  0
 15 18  1  0  0  0
 18 34  1  0  0  0
 18 35  1  0  0  0
 18 36  1  0  0  0
 19 20  1  0  0  0
 19 24  2  0  0  0
 20 21  2  0  0  0
 20 37  1  0  0  0
 21 22  1  0  0  0
 21 27  1  0  0  0
 22 23  2  0  0  0
 22 25  1  0  0  0
 23 24  1  0  0  0
 23 38  1  0  0  0
 24 39  1  0  0  0
 25 26  1  0  0  0
 26 40  1  0  0  0
 26 41  1  0  0  0
 26 42  1  0  0  0
 27 43  1  0  0  0
 27 44  1  0  0  0
 27 45  1  0  0  0
M  END
>  <Activity>
7.88606

>  <set>
2

>  <Min_dist>
0.137255

>  <Avg_dist>
0.567657

$$$$
7-21H
  Cerius2 12110214513D 1   1.00000                          
 
 45 47  0  0  0  0  0  0  0  0999 V2000
    2.1954   -0.3621    0.2360 C   0  0  0  0  0  0
    1.4429   -1.5324    0.0460 C   0  0  0  0  0  0
    2.0912   -2.7597   -0.0589 C   0  0  0  0  0  0
    3.4694   -2.8225    0.0239 C   0  0  0  0  0  0
    4.2136   -1.6653    0.2117 C   0  0  0  0  0  0
    3.5829   -0.4400    0.3176 C   0  0  0  0  0  0
    5.5603   -1.7375    0.2918 F   0  0  0  0  0  0
    4.0955   -4.0154   -0.0779 F   0  0  0  0  0  0
   -0.0350   -1.4612   -0.0418 C   0  0  0  0  0  0
   -0.8247   -2.1500    0.8778 C   0  0  0  0  0  0
   -2.2002   -2.0800    0.7910 C   0  0  0  0  0  0
   -2.7957   -1.3286   -0.2063 C   0  0  0  0  0  0
   -2.0173   -0.6434   -1.1218 C   0  0  0  0  0  0
   -0.6408   -0.7006   -1.0409 C   0  0  0  0  0  0
   -4.5525   -1.2445   -0.3111 S   0  0  0  0  0  0
   -4.8425   -0.8900   -1.6562 O   0  0  0  0  0  0
   -5.0350   -2.4024    0.3566 O   0  0  0  0  0  0
   -5.0423    0.0423    0.6089 N   0  0  0  0  0  0
    1.5159    0.9507    0.3429 C   0  0  0  0  0  0
    1.8026    1.9623   -0.5734 C   0  0  0  0  0  0
    1.1661    3.1855   -0.4704 C   0  0  0  0  0  0
    0.2406    3.4051    0.5473 C   0  0  0  0  0  0
   -0.0435    2.3991    1.4580 C   0  0  0  0  0  0
    0.5850    1.1745    1.3560 C   0  0  0  0  0  0
   -0.3849    4.6081    0.6480 O   0  0  0  0  0  0
   -1.2613    4.5251    1.7736 C   0  0  0  0  0  0
    1.4438    4.1741   -1.3620 O   0  0  0  0  0  0
    2.4168    3.6511   -2.2686 C   0  0  0  0  0  0
    1.5173   -3.6629   -0.2047 H   0  0  0  0  0  0
    4.1665    0.4570    0.4633 H   0  0  0  0  0  0
   -0.3609   -2.7375    1.6563 H   0  0  0  0  0  0
   -2.8129   -2.6132    1.5028 H   0  0  0  0  0  0
   -2.4877   -0.0587   -1.8984 H   0  0  0  0  0  0
   -0.0341   -0.1652   -1.7562 H   0  0  0  0  0  0
   -5.9857    0.2567    0.6798 H   0  0  0  0  0  0
   -4.3859    0.5817    1.0770 H   0  0  0  0  0  0
    2.5206    1.7908   -1.3617 H   0  0  0  0  0  0
   -0.7610    2.5727    2.2463 H   0  0  0  0  0  0
    0.3620    0.3924    2.0666 H   0  0  0  0  0  0
   -1.7877    5.4719    1.8949 H   0  0  0  0  0  0
   -1.9843    3.7254    1.6130 H   0  0  0  0  0  0
   -0.6804    4.3148    2.6716 H   0  0  0  0  0  0
    2.6722    4.4120   -3.0062 H   0  0  0  0  0  0
    3.3120    3.3658   -1.7161 H   0  0  0  0  0  0
    2.0084    2.7767   -2.7752 H   0  0  0  0  0  0
  1  2  1  0  0  0
  1  6  2  0  0  0
  1 19  1  0  0  0
  2  3  2  0  0  0
  2  9  1  0  0  0
  3  4  1  0  0  0
  3 29  1  0  0  0
  4  5  2  0  0  0
  4  8  1  0  0  0
  5  6  1  0  0  0
  5  7  1  0  0  0
  6 30  1  0  0  0
  9 10  1  0  0  0
  9 14  2  0  0  0
 10 11  2  0  0  0
 10 31  1  0  0  0
 11 12  1  0  0  0
 11 32  1  0  0  0
 12 13  2  0  0  0
 12 15  1  0  0  0
 13 14  1  0  0  0
 13 33  1  0  0  0
 14 34  1  0  0  0
 15 16  2  0  0  0
 15 17  2  0  0  0
 15 18  1  0  0  0
 18 35  1  0  0  0
 18 36  1  0  0  0
 19 20  1  0  0  0
 19 24  2  0  0  0
 20 21  2  0  0  0
 20 37  1  0  0  0
 21 22  1  0  0  0
 21 27  1  0  0  0
 22 23  2  0  0  0
 22 25  1  0  0  0
 23 24  1  0  0  0
 23 38  1  0  0  0
 24 39  1  0  0  0
 25 26  1  0  0  0
 26 40  1  0  0  0
 26 41  1  0  0  0
 26 42  1  0  0  0
 27 28  1  0  0  0
 28 43  1  0  0  0
 28 44  1  0  0  0
 28 45  1  0  0  0
M  END
>  <Activity>
7.18709

>  <set>
2

>  <Min_dist>
0.125

>  <Avg_dist>
0.589829

$$$$
7-21I
  Cerius2 12110214513D 1   1.00000                          
 
 43 46  0  0  0  0  0  0  0  0999 V2000
    2.2159   -0.4597    0.1846 C   0  0  0  0  0  0
    1.4488   -1.6163   -0.0297 C   0  0  0  0  0  0
    2.0840   -2.8425   -0.2042 C   0  0  0  0  0  0
    3.4636   -2.9178   -0.1660 C   0  0  0  0  0  0
    4.2221   -1.7741    0.0459 C   0  0  0  0  0  0
    3.6045   -0.5500    0.2207 C   0  0  0  0  0  0
    5.5700   -1.8584    0.0819 F   0  0  0  0  0  0
    4.0769   -4.1096   -0.3353 F   0  0  0  0  0  0
   -0.0305   -1.5318   -0.0695 C   0  0  0  0  0  0
   -0.7974   -2.2524    0.8450 C   0  0  0  0  0  0
   -2.1743   -2.1698    0.8031 C   0  0  0  0  0  0
   -2.7937   -1.3744   -0.1441 C   0  0  0  0  0  0
   -2.0380   -0.6575   -1.0544 C   0  0  0  0  0  0
   -0.6602   -0.7270   -1.0179 C   0  0  0  0  0  0
   -4.5522   -1.2744   -0.1918 S   0  0  0  0  0  0
   -4.8799   -0.8633   -1.5120 O   0  0  0  0  0  0
   -5.0234   -2.4554    0.4426 O   0  0  0  0  0  0
   -5.0039   -0.0231    0.7942 N   0  0  0  0  0  0
    1.5502    0.8521    0.3655 C   0  0  0  0  0  0
    1.8142    1.8978   -0.5132 C   0  0  0  0  0  0
    1.1937    3.1323   -0.3499 C   0  0  0  0  0  0
    0.3001    3.3167    0.6936 C   0  0  0  0  0  0
    0.0404    2.2666    1.5746 C   0  0  0  0  0  0
    0.6516    1.0437    1.4138 C   0  0  0  0  0  0
   -0.3661    4.4790    0.9188 O   0  0  0  0  0  0
    0.3108    5.5357    0.2464 C   0  0  0  0  0  0
    0.5228    5.1152   -1.2127 C   0  0  0  0  0  0
    1.5229    4.1023   -1.2422 O   0  0  0  0  0  0
    1.4989   -3.7352   -0.3690 H   0  0  0  0  0  0
    4.1992    0.3364    0.3848 H   0  0  0  0  0  0
   -0.3149   -2.8742    1.5845 H   0  0  0  0  0  0
   -2.7695   -2.7276    1.5110 H   0  0  0  0  0  0
   -2.5270   -0.0384   -1.7919 H   0  0  0  0  0  0
   -0.0712   -0.1669   -1.7290 H   0  0  0  0  0  0
   -5.9430    0.1945    0.9025 H   0  0  0  0  0  0
   -4.3294    0.4924    1.2636 H   0  0  0  0  0  0
    2.5068    1.7502   -1.3287 H   0  0  0  0  0  0
   -0.6518    2.4138    2.3904 H   0  0  0  0  0  0
    0.4422    0.2383    2.1024 H   0  0  0  0  0  0
   -0.2933    6.4422    0.2839 H   0  0  0  0  0  0
    1.2753    5.7157    0.7212 H   0  0  0  0  0  0
   -0.4088    4.7244   -1.6218 H   0  0  0  0  0  0
    0.8512    5.9735   -1.7988 H   0  0  0  0  0  0
  1  2  1  0  0  0
  1  6  2  0  0  0
  1 19  1  0  0  0
  2  3  2  0  0  0
  2  9  1  0  0  0
  3  4  1  0  0  0
  3 29  1  0  0  0
  4  5  2  0  0  0
  4  8  1  0  0  0
  5  6  1  0  0  0
  5  7  1  0  0  0
  6 30  1  0  0  0
  9 10  1  0  0  0
  9 14  2  0  0  0
 10 11  2  0  0  0
 10 31  1  0  0  0
 11 12  1  0  0  0
 11 32  1  0  0  0
 12 13  2  0  0  0
 12 15  1  0  0  0
 13 14  1  0  0  0
 13 33  1  0  0  0
 14 34  1  0  0  0
 15 16  2  0  0  0
 15 17  2  0  0  0
 15 18  1  0  0  0
 18 35  1  0  0  0
 18 36  1  0  0  0
 19 20  1  0  0  0
 19 24  2  0  0  0
 20 21  2  0  0  0
 20 37  1  0  0  0
 21 22  1  0  0  0
 21 28  1  0  0  0
 22 23  2  0  0  0
 22 25  1  0  0  0
 23 24  1  0  0  0
 23 38  1  0  0  0
 24 39  1  0  0  0
 25 26  1  0  0  0
 26 27  1  0  0  0
 26 40  1  0  0  0
 26 41  1  0  0  0
 27 28  1  0  0  0
 27 42  1  0  0  0
 27 43  1  0  0  0
M  END
>  <Activity>
7.49485

>  <set>
2

>  <Min_dist>
0.119403

>  <Avg_dist>
0.643567

$$$$
7-21M
  Cerius2 12110214513D 1   1.00000                          
 
 43 45  0  0  0  0  0  0  0  0999 V2000
    2.2525    0.0451    0.1456 C   0  0  0  0  0  0
    1.5315   -1.1483   -0.0202 C   0  0  0  0  0  0
    2.2144   -2.3545   -0.1474 C   0  0  0  0  0  0
    3.5959   -2.3738   -0.1104 C   0  0  0  0  0  0
    4.3089   -1.1935    0.0536 C   0  0  0  0  0  0
    3.6436    0.0112    0.1812 C   0  0  0  0  0  0
    5.6591   -1.2230    0.0890 F   0  0  0  0  0  0
    4.2557   -3.5463   -0.2337 F   0  0  0  0  0  0
    0.0499   -1.1239   -0.0589 C   0  0  0  0  0  0
   -0.6867   -1.8369    0.8858 C   0  0  0  0  0  0
   -2.0658   -1.8105    0.8447 C   0  0  0  0  0  0
   -2.7174   -1.0782   -0.1315 C   0  0  0  0  0  0
   -1.9918   -0.3687   -1.0715 C   0  0  0  0  0  0
   -0.6123   -0.3830   -1.0368 C   0  0  0  0  0  0
   -4.4786   -1.0496   -0.1780 S   0  0  0  0  0  0
   -4.8240   -0.7043   -1.5124 O   0  0  0  0  0  0
   -4.9019   -2.2222    0.5040 O   0  0  0  0  0  0
   -4.9780    0.2210    0.7592 N   0  0  0  0  0  0
    1.5356    1.3360    0.2760 C   0  0  0  0  0  0
    1.7585    2.3567   -0.6474 C   0  0  0  0  0  0
    1.0880    3.5560   -0.5213 C   0  0  0  0  0  0
    0.1960    3.7468    0.5190 C   0  0  0  0  0  0
   -0.0288    2.7381    1.4383 C   0  0  0  0  0  0
    0.6319    1.5322    1.3189 C   0  0  0  0  0  0
   -0.5332    5.0590    0.6513 C   0  0  0  0  0  0
    1.3280    4.6603   -1.5182 C   0  0  0  0  0  0
    1.6647   -3.2754   -0.2748 H   0  0  0  0  0  0
    4.2030    0.9263    0.3081 H   0  0  0  0  0  0
   -0.1790   -2.4093    1.6481 H   0  0  0  0  0  0
   -2.6375   -2.3628    1.5758 H   0  0  0  0  0  0
   -2.5059    0.2010   -1.8315 H   0  0  0  0  0  0
   -0.0468    0.1716   -1.7710 H   0  0  0  0  0  0
   -5.9248    0.4055    0.8615 H   0  0  0  0  0  0
   -4.3238    0.7808    1.2059 H   0  0  0  0  0  0
    2.4548    2.2090   -1.4597 H   0  0  0  0  0  0
   -0.7259    2.8929    2.2485 H   0  0  0  0  0  0
    0.4553    0.7451    2.0371 H   0  0  0  0  0  0
   -1.4705    5.0113    0.0970 H   0  0  0  0  0  0
   -0.7426    5.2539    1.7031 H   0  0  0  0  0  0
    0.0861    5.8609    0.2495 H   0  0  0  0  0  0
    0.6246    4.5626   -2.3450 H   0  0  0  0  0  0
    1.1859    5.6256   -1.0323 H   0  0  0  0  0  0
    2.3473    4.5914   -1.8982 H   0  0  0  0  0  0
  1  2  1  0  0  0
  1  6  2  0  0  0
  1 19  1  0  0  0
  2  3  2  0  0  0
  2  9  1  0  0  0
  3  4  1  0  0  0
  3 27  1  0  0  0
  4  5  2  0  0  0
  4  8  1  0  0  0
  5  6  1  0  0  0
  5  7  1  0  0  0
  6 28  1  0  0  0
  9 10  1  0  0  0
  9 14  2  0  0  0
 10 11  2  0  0  0
 10 29  1  0  0  0
 11 12  1  0  0  0
 11 30  1  0  0  0
 12 13  2  0  0  0
 12 15  1  0  0  0
 13 14  1  0  0  0
 13 31  1  0  0  0
 14 32  1  0  0  0
 15 16  2  0  0  0
 15 17  2  0  0  0
 15 18  1  0  0  0
 18 33  1  0  0  0
 18 34  1  0  0  0
 19 20  1  0  0  0
 19 24  2  0  0  0
 20 21  2  0  0  0
 20 35  1  0  0  0
 21 22  1  0  0  0
 21 26  1  0  0  0
 22 23  2  0  0  0
 22 25  1  0  0  0
 23 24  1  0  0  0
 23 36  1  0  0  0
 24 37  1  0  0  0
 25 38  1  0  0  0
 25 39  1  0  0  0
 25 40  1  0  0  0
 26 41  1  0  0  0
 26 42  1  0  0  0
 26 43  1  0  0  0
M  END
>  <Activity>
8.30103

>  <set>
2

>  <Min_dist>
0.047619

>  <Avg_dist>
0.56543

$$$$
7-21O
  Cerius2 12110214513D 1   1.00000                          
 
 45 47  0  0  0  0  0  0  0  0999 V2000
    2.2599   -0.5146    0.1900 C   0  0  0  0  0  0
    1.5518   -1.7155    0.0207 C   0  0  0  0  0  0
    2.2466   -2.9173   -0.0810 C   0  0  0  0  0  0
    3.6272   -2.9251   -0.0153 C   0  0  0  0  0  0
    4.3275   -1.7378    0.1521 C   0  0  0  0  0  0
    3.6504   -0.5372    0.2546 C   0  0  0  0  0  0
    5.6769   -1.7562    0.2152 F   0  0  0  0  0  0
    4.2984   -4.0934   -0.1139 F   0  0  0  0  0  0
    0.0712   -1.7033   -0.0488 C   0  0  0  0  0  0
   -0.6792   -2.4135    0.8872 C   0  0  0  0  0  0
   -2.0573   -2.3980    0.8178 C   0  0  0  0  0  0
   -2.6944   -1.6797   -0.1782 C   0  0  0  0  0  0
   -1.9550   -0.9732   -1.1097 C   0  0  0  0  0  0
   -0.5765   -0.9769   -1.0471 C   0  0  0  0  0  0
   -4.4544   -1.6652   -0.2609 S   0  0  0  0  0  0
   -4.7750   -1.3347   -1.6052 O   0  0  0  0  0  0
   -4.8827   -2.8348    0.4232 O   0  0  0  0  0  0
   -4.9825   -0.3900    0.6542 N   0  0  0  0  0  0
    1.5307    0.7713    0.2934 C   0  0  0  0  0  0
    1.7660    1.7845   -0.6363 C   0  0  0  0  0  0
    1.0861    2.9802   -0.5378 C   0  0  0  0  0  0
    0.1663    3.1760    0.4878 C   0  0  0  0  0  0
   -0.0688    2.1679    1.4148 C   0  0  0  0  0  0
    0.6041    0.9683    1.3166 C   0  0  0  0  0  0
   -0.5212    4.3875    0.5858 N   0  0  0  0  0  0
   -1.9516    4.0712    0.4763 C   0  0  0  0  0  0
   -0.3027    4.8877    1.9496 C   0  0  0  0  0  0
    1.3784    4.2421   -1.6936 Cl  0  0  0  0  0  0
    1.7070   -3.8438   -0.2109 H   0  0  0  0  0  0
    4.2000    0.3834    0.3847 H   0  0  0  0  0  0
   -0.1829   -2.9749    1.6650 H   0  0  0  0  0  0
   -2.6397   -2.9481    1.5421 H   0  0  0  0  0  0
   -2.4578   -0.4144   -1.8853 H   0  0  0  0  0  0
   -0.0003   -0.4249   -1.7749 H   0  0  0  0  0  0
   -5.9325   -0.2119    0.7354 H   0  0  0  0  0  0
   -4.3418    0.1789    1.1089 H   0  0  0  0  0  0
    2.4802    1.6327   -1.4321 H   0  0  0  0  0  0
   -0.7827    2.3224    2.2103 H   0  0  0  0  0  0
    0.4205    0.1853    2.0373 H   0  0  0  0  0  0
   -2.5333    4.9902    0.5475 H   0  0  0  0  0  0
   -2.1453    3.5920   -0.4834 H   0  0  0  0  0  0
   -2.2374    3.3968    1.2834 H   0  0  0  0  0  0
   -0.8227    5.8373    2.0761 H   0  0  0  0  0  0
   -0.6878    4.1641    2.6681 H   0  0  0  0  0  0
    0.7646    5.0329    2.1167 H   0  0  0  0  0  0
  1  2  1  0  0  0
  1  6  2  0  0  0
  1 19  1  0  0  0
  2  3  2  0  0  0
  2  9  1  0  0  0
  3  4  1  0  0  0
  3 29  1  0  0  0
  4  5  2  0  0  0
  4  8  1  0  0  0
  5  6  1  0  0  0
  5  7  1  0  0  0
  6 30  1  0  0  0
  9 10  1  0  0  0
  9 14  2  0  0  0
 10 11  2  0  0  0
 10 31  1  0  0  0
 11 12  1  0  0  0
 11 32  1  0  0  0
 12 13  2  0  0  0
 12 15  1  0  0  0
 13 14  1  0  0  0
 13 33  1  0  0  0
 14 34  1  0  0  0
 15 16  2  0  0  0
 15 17  2  0  0  0
 15 18  1  0  0  0
 18 35  1  0  0  0
 18 36  1  0  0  0
 19 20  1  0  0  0
 19 24  2  0  0  0
 20 21  2  0  0  0
 20 37  1  0  0  0
 21 22  1  0  0  0
 21 28  1  0  0  0
 22 23  2  0  0  0
 22 25  1  0  0  0
 23 24  1  0  0  0
 23 38  1  0  0  0
 24 39  1  0  0  0
 25 26  1  0  0  0
 25 27  1  0  0  0
 26 40  1  0  0  0
 26 41  1  0  0  0
 26 42  1  0  0  0
 27 43  1  0  0  0
 27 44  1  0  0  0
 27 45  1  0  0  0
M  END
>  <Activity>
8.22185

>  <set>
2

>  <Min_dist>
0.157895

>  <Avg_dist>
0.567426

$$$$
7-32
  Cerius2 12110214513D 1   1.00000                          
 
 41 44  0  0  0  0  0  0  0  0999 V2000
    2.0854    0.5145    0.0732 C   0  0  0  0  0  0
    1.5131   -0.7665    0.0162 C   0  0  0  0  0  0
    2.3346   -1.8899   -0.0045 C   0  0  0  0  0  0
    3.7104   -1.7441    0.0315 C   0  0  0  0  0  0
    4.2791   -0.4712    0.0883 C   0  0  0  0  0  0
    3.4700    0.6516    0.1087 C   0  0  0  0  0  0
    5.6380   -0.6026    0.1144 O   0  0  0  0  0  0
    5.9036   -1.9426   -0.3399 C   0  0  0  0  0  0
    4.7147   -2.6693    0.0222 O   0  0  0  0  0  0
    0.0396   -0.9218   -0.0213 C   0  0  0  0  0  0
   -0.6153   -1.6306    0.9850 C   0  0  0  0  0  0
   -1.9874   -1.7715    0.9449 C   0  0  0  0  0  0
   -2.7131   -1.2114   -0.0911 C   0  0  0  0  0  0
   -2.0688   -0.5070   -1.0924 C   0  0  0  0  0  0
   -0.6977   -0.3546   -1.0599 C   0  0  0  0  0  0
   -4.4647   -1.3965   -0.1360 S   0  0  0  0  0  0
   -4.7574   -1.2897   -1.5225 O   0  0  0  0  0  0
   -4.6730   -2.6007    0.5890 O   0  0  0  0  0  0
   -5.0568    0.0494    0.7855 C   0  0  0  0  0  0
    1.2184    1.7165    0.0894 C   0  0  0  0  0  0
    1.3259    2.6700   -0.9221 C   0  0  0  0  0  0
    0.5164    3.7870   -0.9031 C   0  0  0  0  0  0
   -0.4021    3.9622    0.1194 C   0  0  0  0  0  0
   -0.5126    3.0174    1.1268 C   0  0  0  0  0  0
    0.2886    1.8944    1.1132 C   0  0  0  0  0  0
   -1.1921    5.0580    0.1344 F   0  0  0  0  0  0
    1.8978   -2.8767   -0.0483 H   0  0  0  0  0  0
    3.9136    1.6353    0.1522 H   0  0  0  0  0  0
    6.0483   -1.9591   -1.4201 H   0  0  0  0  0  0
    6.7743   -2.3544    0.1704 H   0  0  0  0  0  0
   -0.0497   -2.0689    1.7939 H   0  0  0  0  0  0
   -2.4958   -2.3204    1.7239 H   0  0  0  0  0  0
   -2.6405   -0.0723   -1.8989 H   0  0  0  0  0  0
   -0.1958    0.1958   -1.8419 H   0  0  0  0  0  0
   -6.1462    0.0365    0.8210 H   0  0  0  0  0  0
   -4.6599    0.0211    1.8002 H   0  0  0  0  0  0
   -4.7203    0.9595    0.2889 H   0  0  0  0  0  0
    2.0420    2.5346   -1.7192 H   0  0  0  0  0  0
    0.5990    4.5261   -1.6862 H   0  0  0  0  0  0
   -1.2297    3.1584    1.9220 H   0  0  0  0  0  0
    0.2016    1.1583    1.8986 H   0  0  0  0  0  0
  1  2  1  0  0  0
  1  6  2  0  0  0
  1 20  1  0  0  0
  2  3  2  0  0  0
  2 10  1  0  0  0
  3  4  1  0  0  0
  3 27  1  0  0  0
  4  5  2  0  0  0
  4  9  1  0  0  0
  5  6  1  0  0  0
  5  7  1  0  0  0
  6 28  1  0  0  0
  7  8  1  0  0  0
  8  9  1  0  0  0
  8 29  1  0  0  0
  8 30  1  0  0  0
 10 11  1  0  0  0
 10 15  2  0  0  0
 11 12  2  0  0  0
 11 31  1  0  0  0
 12 13  1  0  0  0
 12 32  1  0  0  0
 13 14  2  0  0  0
 13 16  1  0  0  0
 14 15  1  0  0  0
 14 33  1  0  0  0
 15 34  1  0  0  0
 16 17  2  0  0  0
 16 18  2  0  0  0
 16 19  1  0  0  0
 19 35  1  0  0  0
 19 36  1  0  0  0
 19 37  1  0  0  0
 20 21  1  0  0  0
 20 25  2  0  0  0
 21 22  2  0  0  0
 21 38  1  0  0  0
 22 23  1  0  0  0
 22 39  1  0  0  0
 23 24  2  0  0  0
 23 26  1  0  0  0
 24 25  1  0  0  0
 24 40  1  0  0  0
 25 41  1  0  0  0
M  END
>  <Activity>
7.08092

>  <set>
2

>  <Min_dist>
0.081967

>  <Avg_dist>
0.653149

$$$$
7-20Q
  Cerius2 12110214513D 1   1.00000                          
 
 40 42  0  0  0  0  0  0  0  0999 V2000
    2.2701    0.3376    0.0263 C   0  0  0  0  0  0
    1.6026   -0.8967   -0.0236 C   0  0  0  0  0  0
    2.3382   -2.0780   -0.0511 C   0  0  0  0  0  0
    3.7195   -2.0326   -0.0293 C   0  0  0  0  0  0
    4.3796   -0.8119    0.0200 C   0  0  0  0  0  0
    3.6615    0.3687    0.0477 C   0  0  0  0  0  0
    5.7301   -0.7782    0.0414 F   0  0  0  0  0  0
    4.4306   -3.1810   -0.0557 F   0  0  0  0  0  0
    0.1211   -0.9416   -0.0463 C   0  0  0  0  0  0
   -0.5747   -1.5991    0.9671 C   0  0  0  0  0  0
   -1.9539   -1.6376    0.9406 C   0  0  0  0  0  0
   -2.6460   -1.0258   -0.0891 C   0  0  0  0  0  0
   -1.9609   -0.3723   -1.0977 C   0  0  0  0  0  0
   -0.5820   -0.3215   -1.0782 C   0  0  0  0  0  0
   -4.4070   -1.0796   -0.1165 S   0  0  0  0  0  0
   -4.7045   -0.9523   -1.5001 O   0  0  0  0  0  0
   -4.6973   -2.2643    0.6125 O   0  0  0  0  0  0
   -4.8803    0.4073    0.8086 C   0  0  0  0  0  0
    1.4966    1.6019    0.0498 C   0  0  0  0  0  0
    1.6591    2.5533   -0.9621 C   0  0  0  0  0  0
    0.9136    3.7173   -0.8943 C   0  0  0  0  0  0
    0.0398    3.9008    0.1623 C   0  0  0  0  0  0
   -0.0923    2.9852    1.1025 N   0  0  0  0  0  0
    0.5913    1.8594    1.0777 C   0  0  0  0  0  0
   -0.7736    5.1669    0.2406 C   0  0  0  0  0  0
    1.8298   -3.0301   -0.0891 H   0  0  0  0  0  0
    4.1799    1.3154    0.0857 H   0  0  0  0  0  0
   -0.0354   -2.0777    1.7712 H   0  0  0  0  0  0
   -2.4940   -2.1466    1.7252 H   0  0  0  0  0  0
   -2.5065    0.1030   -1.8995 H   0  0  0  0  0  0
   -0.0482    0.1890   -1.8662 H   0  0  0  0  0  0
   -5.9671    0.4758    0.8548 H   0  0  0  0  0  0
   -4.4765    0.3502    1.8194 H   0  0  0  0  0  0
   -4.4817    1.2893    0.3073 H   0  0  0  0  0  0
    2.3490    2.3842   -1.7756 H   0  0  0  0  0  0
    1.0132    4.4745   -1.6579 H   0  0  0  0  0  0
    0.4556    1.1334    1.8657 H   0  0  0  0  0  0
   -1.7192    5.0242   -0.2825 H   0  0  0  0  0  0
   -0.9692    5.4091    1.2852 H   0  0  0  0  0  0
   -0.2208    5.9833   -0.2242 H   0  0  0  0  0  0
  1  2  1  0  0  0
  1  6  2  0  0  0
  1 19  1  0  0  0
  2  3  2  0  0  0
  2  9  1  0  0  0
  3  4  1  0  0  0
  3 26  1  0  0  0
  4  5  2  0  0  0
  4  8  1  0  0  0
  5  6  1  0  0  0
  5  7  1  0  0  0
  6 27  1  0  0  0
  9 10  1  0  0  0
  9 14  2  0  0  0
 10 11  2  0  0  0
 10 28  1  0  0  0
 11 12  1  0  0  0
 11 29  1  0  0  0
 12 13  2  0  0  0
 12 15  1  0  0  0
 13 14  1  0  0  0
 13 30  1  0  0  0
 14 31  1  0  0  0
 15 16  2  0  0  0
 15 17  2  0  0  0
 15 18  1  0  0  0
 18 32  1  0  0  0
 18 33  1  0  0  0
 18 34  1  0  0  0
 19 20  1  0  0  0
 19 24  2  0  0  0
 20 21  2  0  0  0
 20 35  1  0  0  0
 21 22  1  0  0  0
 21 36  1  0  0  0
 22 23  2  0  0  0
 22 25  1  0  0  0
 23 24  1  0  0  0
 24 37  1  0  0  0
 25 38  1  0  0  0
 25 39  1  0  0  0
 25 40  1  0  0  0
M  END
>  <Activity>
6.76955

>  <set>
2

>  <Min_dist>
0.15

>  <Avg_dist>
0.528946

$$$$
7-20P
  Cerius2 12110214513D 1   1.00000                          
 
 40 42  0  0  0  0  0  0  0  0999 V2000
    2.2668    0.3242   -0.0099 C   0  0  0  0  0  0
    1.5893   -0.9059   -0.0283 C   0  0  0  0  0  0
    2.3157   -2.0928   -0.0520 C   0  0  0  0  0  0
    3.6975   -2.0575   -0.0574 C   0  0  0  0  0  0
    4.3676   -0.8413   -0.0387 C   0  0  0  0  0  0
    3.6590    0.3450   -0.0156 C   0  0  0  0  0  0
    5.7184   -0.8176   -0.0433 F   0  0  0  0  0  0
    4.3995   -3.2116   -0.0804 F   0  0  0  0  0  0
    0.1074   -0.9398   -0.0219 C   0  0  0  0  0  0
   -0.5735   -1.5768    1.0145 C   0  0  0  0  0  0
   -1.9532   -1.6052    1.0151 C   0  0  0  0  0  0
   -2.6605   -1.0033   -0.0102 C   0  0  0  0  0  0
   -1.9903   -0.3698   -1.0412 C   0  0  0  0  0  0
   -0.6109   -0.3300   -1.0494 C   0  0  0  0  0  0
   -4.4220   -1.0442   -0.0030 S   0  0  0  0  0  0
   -4.7453   -0.9350   -1.3824 O   0  0  0  0  0  0
   -4.7068   -2.2159    0.7489 O   0  0  0  0  0  0
   -4.8666    0.4596    0.9089 C   0  0  0  0  0  0
    1.5036    1.5940    0.0092 C   0  0  0  0  0  0
    1.9456    2.6547    0.7989 C   0  0  0  0  0  0
    1.2224    3.8343    0.8059 C   0  0  0  0  0  0
    0.0795    3.9156    0.0224 C   0  0  0  0  0  0
   -0.3015    2.8250   -0.7368 C   0  0  0  0  0  0
    0.4078    1.7146   -0.7297 N   0  0  0  0  0  0
   -0.7388    5.1810    0.0001 C   0  0  0  0  0  0
    1.7997   -3.0415   -0.0658 H   0  0  0  0  0  0
    4.1850    1.2881   -0.0015 H   0  0  0  0  0  0
   -0.0223   -2.0473    1.8153 H   0  0  0  0  0  0
   -2.4818   -2.0987    1.8173 H   0  0  0  0  0  0
   -2.5477    0.0981   -1.8392 H   0  0  0  0  0  0
   -0.0887    0.1652   -1.8547 H   0  0  0  0  0  0
   -5.9518    0.5369    0.9750 H   0  0  0  0  0  0
   -4.4438    0.4142    1.9126 H   0  0  0  0  0  0
   -4.4713    1.3311    0.3871 H   0  0  0  0  0  0
    2.8396    2.5568    1.3969 H   0  0  0  0  0  0
    1.5400    4.6729    1.4079 H   0  0  0  0  0  0
   -1.1903    2.8853   -1.3474 H   0  0  0  0  0  0
   -0.3730    5.8363   -0.7903 H   0  0  0  0  0  0
   -1.7839    4.9345   -0.1869 H   0  0  0  0  0  0
   -0.6513    5.6873    0.9614 H   0  0  0  0  0  0
  1  2  1  0  0  0
  1  6  2  0  0  0
  1 19  1  0  0  0
  2  3  2  0  0  0
  2  9  1  0  0  0
  3  4  1  0  0  0
  3 26  1  0  0  0
  4  5  2  0  0  0
  4  8  1  0  0  0
  5  6  1  0  0  0
  5  7  1  0  0  0
  6 27  1  0  0  0
  9 10  1  0  0  0
  9 14  2  0  0  0
 10 11  2  0  0  0
 10 28  1  0  0  0
 11 12  1  0  0  0
 11 29  1  0  0  0
 12 13  2  0  0  0
 12 15  1  0  0  0
 13 14  1  0  0  0
 13 30  1  0  0  0
 14 31  1  0  0  0
 15 16  2  0  0  0
 15 17  2  0  0  0
 15 18  1  0  0  0
 18 32  1  0  0  0
 18 33  1  0  0  0
 18 34  1  0  0  0
 19 20  1  0  0  0
 19 24  2  0  0  0
 20 21  2  0  0  0
 20 35  1  0  0  0
 21 22  1  0  0  0
 21 36  1  0  0  0
 22 23  2  0  0  0
 22 25  1  0  0  0
 23 24  1  0  0  0
 23 37  1  0  0  0
 25 38  1  0  0  0
 25 39  1  0  0  0
 25 40  1  0  0  0
M  END
>  <Activity>
4.2815

>  <set>
2

>  <Min_dist>
0.147541

>  <Avg_dist>
0.518619

$$$$
8-1P
  Cerius2 12110214513D 1   1.00000                          
 
 44 46  0  0  0  0  0  0  0  0999 V2000
   -2.4666   -2.0905    0.0184 C   0  0  0  0  0  0
   -1.5205   -2.7015   -0.7841 C   0  0  0  0  0  0
   -0.2184   -2.2413   -0.7918 C   0  0  0  0  0  0
    0.1404   -1.1636    0.0070 C   0  0  0  0  0  0
   -0.8121   -0.5519    0.8113 C   0  0  0  0  0  0
   -2.1125   -1.0171    0.8150 C   0  0  0  0  0  0
    1.4603   -0.6947    0.0017 N   0  0  0  0  0  0
    1.8509    0.6134    0.0397 C   0  0  0  0  0  0
    3.2174    0.6299    0.0184 C   0  0  0  0  0  0
    3.6606   -0.6921   -0.0335 C   0  0  0  0  0  0
    2.6173   -1.4834   -0.0375 N   0  0  0  0  0  0
    5.1003   -1.1356   -0.0717 C   0  0  0  0  0  0
    5.1568   -2.5326   -0.1199 F   0  0  0  0  0  0
    5.7220   -0.6043   -1.2067 F   0  0  0  0  0  0
    5.7587   -0.6816    1.0762 F   0  0  0  0  0  0
    0.9605    1.7932    0.0932 C   0  0  0  0  0  0
    1.2927    2.8845    0.8972 C   0  0  0  0  0  0
    0.4602    3.9823    0.9445 C   0  0  0  0  0  0
   -0.7078    4.0030    0.1939 C   0  0  0  0  0  0
   -1.0418    2.9191   -0.6072 C   0  0  0  0  0  0
   -0.2112    1.8202   -0.6645 C   0  0  0  0  0  0
   -1.5263    5.0864    0.2438 O   0  0  0  0  0  0
   -2.6286    4.8116   -0.6231 C   0  0  0  0  0  0
   -3.5937    5.9987   -0.6130 C   0  0  0  0  0  0
   -4.1283   -2.6764    0.0204 S   0  0  0  0  0  0
   -4.9209   -1.5879    0.4748 O   0  0  0  0  0  0
   -4.2986   -3.3587   -1.2144 O   0  0  0  0  0  0
   -4.2425   -3.8375    1.1956 N   0  0  0  0  0  0
   -1.8002   -3.5397   -1.4051 H   0  0  0  0  0  0
    0.5202   -2.7194   -1.4182 H   0  0  0  0  0  0
   -0.5360    0.2863    1.4340 H   0  0  0  0  0  0
   -2.8537   -0.5415    1.4401 H   0  0  0  0  0  0
    3.8431    1.5100    0.0376 H   0  0  0  0  0  0
    2.2007    2.8688    1.4819 H   0  0  0  0  0  0
    0.7166    4.8272    1.5665 H   0  0  0  0  0  0
   -1.9511    2.9388   -1.1896 H   0  0  0  0  0  0
   -0.4714    0.9777   -1.2881 H   0  0  0  0  0  0
   -2.2620    4.6500   -1.6368 H   0  0  0  0  0  0
   -3.1483    3.9179   -0.2779 H   0  0  0  0  0  0
   -4.4345    5.7891   -1.2743 H   0  0  0  0  0  0
   -3.9602    6.1604    0.4007 H   0  0  0  0  0  0
   -3.0740    6.8925   -0.9582 H   0  0  0  0  0  0
   -5.0880   -4.2857    1.3540 H   0  0  0  0  0  0
   -3.4639   -4.0694    1.7255 H   0  0  0  0  0  0
  1  2  1  0  0  0
  1  6  2  0  0  0
  1 25  1  0  0  0
  2  3  2  0  0  0
  2 29  1  0  0  0
  3  4  1  0  0  0
  3 30  1  0  0  0
  4  5  2  0  0  0
  4  7  1  0  0  0
  5  6  1  0  0  0
  5 31  1  0  0  0
  6 32  1  0  0  0
  7  8  1  0  0  0
  7 11  1  0  0  0
  8  9  2  0  0  0
  8 16  1  0  0  0
  9 10  1  0  0  0
  9 33  1  0  0  0
 10 11  2  0  0  0
 10 12  1  0  0  0
 12 13  1  0  0  0
 12 14  1  0  0  0
 12 15  1  0  0  0
 16 17  1  0  0  0
 16 21  2  0  0  0
 17 18  2  0  0  0
 17 34  1  0  0  0
 18 19  1  0  0  0
 18 35  1  0  0  0
 19 20  2  0  0  0
 19 22  1  0  0  0
 20 21  1  0  0  0
 20 36  1  0  0  0
 21 37  1  0  0  0
 22 23  1  0  0  0
 23 24  1  0  0  0
 23 38  1  0  0  0
 23 39  1  0  0  0
 24 40  1  0  0  0
 24 41  1  0  0  0
 24 42  1  0  0  0
 25 26  2  0  0  0
 25 27  2  0  0  0
 25 28  1  0  0  0
 28 43  1  0  0  0
 28 44  1  0  0  0
M  END
>  <Activity>
6.19382

>  <set>
2

>  <Min_dist>
0.055556

>  <Avg_dist>
0.503898

$$$$
8-1S
  Cerius2 12110214513D 1   1.00000                          
 
 45 47  0  0  0  0  0  0  0  0999 V2000
   -3.5219   -0.5470    0.0637 C   0  0  0  0  0  0
   -2.9330   -1.6204   -0.5791 C   0  0  0  0  0  0
   -1.5568   -1.7188   -0.6427 C   0  0  0  0  0  0
   -0.7645   -0.7383   -0.0604 C   0  0  0  0  0  0
   -1.3589    0.3384    0.5843 C   0  0  0  0  0  0
   -2.7356    0.4311    0.6445 C   0  0  0  0  0  0
    0.6315   -0.8354   -0.1228 N   0  0  0  0  0  0
    1.5026    0.1960   -0.3304 C   0  0  0  0  0  0
    2.7644   -0.3299   -0.3192 C   0  0  0  0  0  0
    2.6536   -1.7034   -0.1007 C   0  0  0  0  0  0
    1.3858   -2.0068    0.0226 N   0  0  0  0  0  0
    3.8022   -2.6752   -0.0150 C   0  0  0  0  0  0
    3.3069   -3.9638    0.2118 F   0  0  0  0  0  0
    4.5198   -2.6562   -1.2158 F   0  0  0  0  0  0
    4.6462   -2.3079    1.0385 F   0  0  0  0  0  0
    1.1469    1.6169   -0.5303 C   0  0  0  0  0  0
    1.9230    2.6267    0.0555 C   0  0  0  0  0  0
    1.5803    3.9567   -0.1384 C   0  0  0  0  0  0
    0.4783    4.2828   -0.9061 C   0  0  0  0  0  0
   -0.2900    3.2880   -1.4852 C   0  0  0  0  0  0
    0.0411    1.9600   -1.3072 C   0  0  0  0  0  0
    3.0343    2.2956    0.8301 N   0  0  0  0  0  0
    4.1991    2.9144    0.1834 C   0  0  0  0  0  0
    2.8626    2.9692    2.1243 C   0  0  0  0  0  0
   -5.2779   -0.4214    0.1363 S   0  0  0  0  0  0
   -5.5581    0.9555    0.3487 O   0  0  0  0  0  0
   -5.7660   -1.2027   -0.9456 O   0  0  0  0  0  0
   -5.7734   -1.1987    1.5121 N   0  0  0  0  0  0
   -3.5498   -2.3829   -1.0314 H   0  0  0  0  0  0
   -1.0975   -2.5576   -1.1445 H   0  0  0  0  0  0
   -0.7453    1.1026    1.0382 H   0  0  0  0  0  0
   -3.1985    1.2682    1.1458 H   0  0  0  0  0  0
    3.6838    0.2202   -0.4557 H   0  0  0  0  0  0
    2.1749    4.7381    0.3112 H   0  0  0  0  0  0
    0.2150    5.3196   -1.0545 H   0  0  0  0  0  0
   -1.1496    3.5522   -2.0833 H   0  0  0  0  0  0
   -0.5612    1.1871   -1.7614 H   0  0  0  0  0  0
    4.3682    2.4457   -0.7860 H   0  0  0  0  0  0
    4.0144    3.9796    0.0447 H   0  0  0  0  0  0
    5.0791    2.7771    0.8118 H   0  0  0  0  0  0
    2.0054    2.5425    2.6451 H   0  0  0  0  0  0
    3.7599    2.8311    2.7276 H   0  0  0  0  0  0
    2.6952    4.0337    1.9604 H   0  0  0  0  0  0
   -6.7170   -1.2401    1.7327 H   0  0  0  0  0  0
   -5.1199   -1.6126    2.0973 H   0  0  0  0  0  0
  1  2  1  0  0  0
  1  6  2  0  0  0
  1 25  1  0  0  0
  2  3  2  0  0  0
  2 29  1  0  0  0
  3  4  1  0  0  0
  3 30  1  0  0  0
  4  5  2  0  0  0
  4  7  1  0  0  0
  5  6  1  0  0  0
  5 31  1  0  0  0
  6 32  1  0  0  0
  7  8  1  0  0  0
  7 11  1  0  0  0
  8  9  2  0  0  0
  8 16  1  0  0  0
  9 10  1  0  0  0
  9 33  1  0  0  0
 10 11  2  0  0  0
 10 12  1  0  0  0
 12 13  1  0  0  0
 12 14  1  0  0  0
 12 15  1  0  0  0
 16 17  1  0  0  0
 16 21  2  0  0  0
 17 18  2  0  0  0
 17 22  1  0  0  0
 18 19  1  0  0  0
 18 34  1  0  0  0
 19 20  2  0  0  0
 19 35  1  0  0  0
 20 21  1  0  0  0
 20 36  1  0  0  0
 21 37  1  0  0  0
 22 23  1  0  0  0
 22 24  1  0  0  0
 23 38  1  0  0  0
 23 39  1  0  0  0
 23 40  1  0  0  0
 24 41  1  0  0  0
 24 42  1  0  0  0
 24 43  1  0  0  0
 25 26  2  0  0  0
 25 27  2  0  0  0
 25 28  1  0  0  0
 28 44  1  0  0  0
 28 45  1  0  0  0
M  END
>  <Activity>
4.84466

>  <set>
2

>  <Min_dist>
0.108108

>  <Avg_dist>
0.533427

$$$$
8-1AC
  Cerius2 12110214513D 1   1.00000                          
 
 42 44  0  0  0  0  0  0  0  0999 V2000
   -3.3666   -1.0612    0.0912 C   0  0  0  0  0  0
   -2.7770   -2.0880   -0.6233 C   0  0  0  0  0  0
   -1.4010   -2.1948   -0.6735 C   0  0  0  0  0  0
   -0.6094   -1.2698   -0.0056 C   0  0  0  0  0  0
   -1.2045   -0.2399    0.7109 C   0  0  0  0  0  0
   -2.5811   -0.1385    0.7573 C   0  0  0  0  0  0
    0.7866   -1.3757   -0.0543 N   0  0  0  0  0  0
    1.6697   -0.3402   -0.1688 C   0  0  0  0  0  0
    2.9265   -0.8776   -0.1785 C   0  0  0  0  0  0
    2.8004   -2.2627   -0.0678 C   0  0  0  0  0  0
    1.5282   -2.5622    0.0120 N   0  0  0  0  0  0
    3.9391   -3.2494   -0.0385 C   0  0  0  0  0  0
    3.4291   -4.5467    0.0810 F   0  0  0  0  0  0
    4.6767   -3.1455   -1.2227 F   0  0  0  0  0  0
    4.7685   -2.9720    1.0534 F   0  0  0  0  0  0
    1.3295    1.0958   -0.2646 C   0  0  0  0  0  0
    2.1033    2.0442    0.4071 C   0  0  0  0  0  0
    1.7837    3.3823    0.3154 C   0  0  0  0  0  0
    0.6910    3.7871   -0.4452 C   0  0  0  0  0  0
   -0.0806    2.8447   -1.1145 C   0  0  0  0  0  0
    0.2378    1.5059   -1.0311 C   0  0  0  0  0  0
    0.3688    5.1428   -0.5358 N   0  0  0  0  0  0
   -0.7813    5.5706   -1.3361 C   0  0  0  0  0  0
    2.7449    4.5627    1.1499 Cl  0  0  0  0  0  0
   -5.1224   -0.9241    0.1468 S   0  0  0  0  0  0
   -5.3938    0.4350    0.4602 O   0  0  0  0  0  0
   -5.6001   -1.6152   -0.9992 O   0  0  0  0  0  0
   -5.6463   -1.7998    1.4511 N   0  0  0  0  0  0
   -3.3933   -2.8073   -1.1422 H   0  0  0  0  0  0
   -0.9411   -2.9971   -1.2314 H   0  0  0  0  0  0
   -0.5915    0.4810    1.2314 H   0  0  0  0  0  0
   -3.0445    0.6623    1.3145 H   0  0  0  0  0  0
    3.8526   -0.3277   -0.2581 H   0  0  0  0  0  0
    2.9509    1.7300    0.9980 H   0  0  0  0  0  0
   -0.9283    3.1618   -1.7038 H   0  0  0  0  0  0
   -0.3624    0.7743   -1.5516 H   0  0  0  0  0  0
    0.9065    5.8013   -0.0687 H   0  0  0  0  0  0
   -0.8745    6.6555   -1.2874 H   0  0  0  0  0  0
   -0.6369    5.2644   -2.3723 H   0  0  0  0  0  0
   -1.6881    5.1100   -0.9442 H   0  0  0  0  0  0
   -6.5936   -1.8486    1.6536 H   0  0  0  0  0  0
   -5.0058   -2.2639    2.0126 H   0  0  0  0  0  0
  1  2  1  0  0  0
  1  6  2  0  0  0
  1 25  1  0  0  0
  2  3  2  0  0  0
  2 29  1  0  0  0
  3  4  1  0  0  0
  3 30  1  0  0  0
  4  5  2  0  0  0
  4  7  1  0  0  0
  5  6  1  0  0  0
  5 31  1  0  0  0
  6 32  1  0  0  0
  7  8  1  0  0  0
  7 11  1  0  0  0
  8  9  2  0  0  0
  8 16  1  0  0  0
  9 10  1  0  0  0
  9 33  1  0  0  0
 10 11  2  0  0  0
 10 12  1  0  0  0
 12 13  1  0  0  0
 12 14  1  0  0  0
 12 15  1  0  0  0
 16 17  1  0  0  0
 16 21  2  0  0  0
 17 18  2  0  0  0
 17 34  1  0  0  0
 18 19  1  0  0  0
 18 24  1  0  0  0
 19 20  2  0  0  0
 19 22  1  0  0  0
 20 21  1  0  0  0
 20 35  1  0  0  0
 21 36  1  0  0  0
 22 23  1  0  0  0
 22 37  1  0  0  0
 23 38  1  0  0  0
 23 39  1  0  0  0
 23 40  1  0  0  0
 25 26  2  0  0  0
 25 27  2  0  0  0
 25 28  1  0  0  0
 28 41  1  0  0  0
 28 42  1  0  0  0
M  END
>  <Activity>
7.56864

>  <set>
2

>  <Min_dist>
0.069444

>  <Avg_dist>
0.517553

$$$$
8-2F
  Cerius2 12110214513D 1   1.00000                          
 
 39 41  0  0  0  0  0  0  0  0999 V2000
   -2.9160   -1.2081    0.0271 C   0  0  0  0  0  0
   -2.2255   -2.1750   -0.6804 C   0  0  0  0  0  0
   -0.8451   -2.2027   -0.6479 C   0  0  0  0  0  0
   -0.1504   -1.2579    0.0958 C   0  0  0  0  0  0
   -0.8467   -0.2879    0.8048 C   0  0  0  0  0  0
   -2.2271   -0.2658    0.7687 C   0  0  0  0  0  0
    1.2495   -1.2835    0.1312 N   0  0  0  0  0  0
    2.0766   -0.1957    0.1034 C   0  0  0  0  0  0
    3.3697   -0.6687    0.1563 C   0  0  0  0  0  0
    3.3097   -2.0606    0.2166 C   0  0  0  0  0  0
    2.0529   -2.4281    0.2074 N   0  0  0  0  0  0
    4.4952   -2.9883    0.2871 C   0  0  0  0  0  0
    4.1737   -4.2033   -0.3273 F   0  0  0  0  0  0
    5.5830   -2.4058   -0.3722 F   0  0  0  0  0  0
    1.6623    1.2202    0.0299 C   0  0  0  0  0  0
    2.3405    2.1861    0.7786 C   0  0  0  0  0  0
    1.9581    3.4954    0.7113 C   0  0  0  0  0  0
    0.8869    3.8698   -0.1076 C   0  0  0  0  0  0
    0.2085    2.9021   -0.8569 C   0  0  0  0  0  0
    0.5959    1.5941   -0.7927 C   0  0  0  0  0  0
    0.4734    5.2817   -0.1805 C   0  0  0  0  0  0
   -0.4631    5.6086   -0.8965 O   0  0  0  0  0  0
    1.0665    6.1273    0.4750 O   0  0  0  0  0  0
   -4.6769   -1.1720   -0.0223 S   0  0  0  0  0  0
   -5.0455    0.1583    0.3150 O   0  0  0  0  0  0
   -5.0436   -1.8494   -1.2164 O   0  0  0  0  0  0
   -5.2265   -2.1198    1.2195 N   0  0  0  0  0  0
   -2.7664   -2.9095   -1.2586 H   0  0  0  0  0  0
   -0.3065   -2.9586   -1.2001 H   0  0  0  0  0  0
   -0.3093    0.4483    1.3842 H   0  0  0  0  0  0
   -2.7692    0.4885    1.3196 H   0  0  0  0  0  0
    4.2681   -0.0693    0.1520 H   0  0  0  0  0  0
    4.7556   -3.1664    1.3304 H   0  0  0  0  0  0
    3.1669    1.8969    1.4108 H   0  0  0  0  0  0
    2.4820    4.2416    1.2902 H   0  0  0  0  0  0
   -0.6183    3.1901   -1.4891 H   0  0  0  0  0  0
    0.0724    0.8470   -1.3709 H   0  0  0  0  0  0
   -6.1799   -2.2287    1.3611 H   0  0  0  0  0  0
   -4.5951   -2.5660    1.8052 H   0  0  0  0  0  0
  1  2  1  0  0  0
  1  6  2  0  0  0
  1 24  1  0  0  0
  2  3  2  0  0  0
  2 28  1  0  0  0
  3  4  1  0  0  0
  3 29  1  0  0  0
  4  5  2  0  0  0
  4  7  1  0  0  0
  5  6  1  0  0  0
  5 30  1  0  0  0
  6 31  1  0  0  0
  7  8  1  0  0  0
  7 11  1  0  0  0
  8  9  2  0  0  0
  8 15  1  0  0  0
  9 10  1  0  0  0
  9 32  1  0  0  0
 10 11  2  0  0  0
 10 12  1  0  0  0
 12 13  1  0  0  0
 12 14  1  0  0  0
 12 33  1  0  0  0
 15 16  1  0  0  0
 15 20  2  0  0  0
 16 17  2  0  0  0
 16 34  1  0  0  0
 17 18  1  0  0  0
 17 35  1  0  0  0
 18 19  2  0  0  0
 18 21  1  0  0  0
 19 20  1  0  0  0
 19 36  1  0  0  0
 20 37  1  0  0  0
 21 22  2  0  0  0
 21 23  1  0  0  0
 24 25  2  0  0  0
 24 26  2  0  0  0
 24 27  1  0  0  0
 27 38  1  0  0  0
 27 39  1  0  0  0
M  END
>  <Activity>
4.32975

>  <set>
2

>  <Min_dist>
0.029412

>  <Avg_dist>
0.52626

$$$$
8-9B
  Cerius2 12110214513D 1   1.00000                          
 
 41 44  0  0  0  0  0  0  0  0999 V2000
   -3.5820   -1.9955    0.0082 C   0  0  0  0  0  0
   -2.5957   -2.6047   -0.7458 C   0  0  0  0  0  0
   -1.3139   -2.0908   -0.7535 C   0  0  0  0  0  0
   -1.0158   -0.9609   -0.0028 C   0  0  0  0  0  0
   -2.0087   -0.3514    0.7534 C   0  0  0  0  0  0
   -3.2886   -0.8704    0.7567 C   0  0  0  0  0  0
    0.2825   -0.4377   -0.0080 N   0  0  0  0  0  0
    0.6149    0.8879   -0.0280 C   0  0  0  0  0  0
    1.9762    0.9709   -0.0256 C   0  0  0  0  0  0
    2.4867   -0.3403   -0.0035 C   0  0  0  0  0  0
    1.4699   -1.1802    0.0126 N   0  0  0  0  0  0
    3.9177   -0.7126    0.0062 C   0  0  0  0  0  0
    5.3553    0.3461   -0.0060 S   0  0  0  0  0  0
    6.6068   -0.9267    0.0182 C   0  0  0  0  0  0
    5.8591   -2.0609    0.0338 C   0  0  0  0  0  0
    4.4844   -1.9580    0.0330 C   0  0  0  0  0  0
    8.3346   -0.7584    0.0206 Cl  0  0  0  0  0  0
   -0.3302    2.0259   -0.0492 C   0  0  0  0  0  0
   -0.0661    3.1697    0.7048 C   0  0  0  0  0  0
   -0.9507    4.2280    0.6807 C   0  0  0  0  0  0
   -2.0992    4.1563   -0.0894 C   0  0  0  0  0  0
   -2.3668    3.0235   -0.8393 C   0  0  0  0  0  0
   -1.4862    1.9616   -0.8278 C   0  0  0  0  0  0
   -3.2083    5.4916   -0.1143 Cl  0  0  0  0  0  0
   -5.2179   -2.6501    0.0093 S   0  0  0  0  0  0
   -6.0636   -1.5752    0.3947 O   0  0  0  0  0  0
   -5.3351   -3.3986   -1.1928 O   0  0  0  0  0  0
   -5.3077   -3.7562    1.2385 N   0  0  0  0  0  0
   -2.8280   -3.4835   -1.3291 H   0  0  0  0  0  0
   -0.5439   -2.5672   -1.3422 H   0  0  0  0  0  0
   -1.7801    0.5271    1.3385 H   0  0  0  0  0  0
   -4.0611   -0.3970    1.3445 H   0  0  0  0  0  0
    2.5584    1.8805   -0.0389 H   0  0  0  0  0  0
    6.3353   -3.0301    0.0504 H   0  0  0  0  0  0
    3.8664   -2.8436    0.0456 H   0  0  0  0  0  0
    0.8291    3.2264    1.3063 H   0  0  0  0  0  0
   -0.7473    5.1139    1.2640 H   0  0  0  0  0  0
   -3.2645    2.9728   -1.4376 H   0  0  0  0  0  0
   -1.6957    1.0786   -1.4134 H   0  0  0  0  0  0
   -6.1370   -4.2314    1.4038 H   0  0  0  0  0  0
   -4.5309   -3.9289    1.7933 H   0  0  0  0  0  0
  1  2  1  0  0  0
  1  6  2  0  0  0
  1 25  1  0  0  0
  2  3  2  0  0  0
  2 29  1  0  0  0
  3  4  1  0  0  0
  3 30  1  0  0  0
  4  5  2  0  0  0
  4  7  1  0  0  0
  5  6  1  0  0  0
  5 31  1  0  0  0
  6 32  1  0  0  0
  7  8  1  0  0  0
  7 11  1  0  0  0
  8  9  2  0  0  0
  8 18  1  0  0  0
  9 10  1  0  0  0
  9 33  1  0  0  0
 10 11  2  0  0  0
 10 12  1  0  0  0
 12 13  1  0  0  0
 12 16  2  0  0  0
 13 14  1  0  0  0
 14 15  2  0  0  0
 14 17  1  0  0  0
 15 16  1  0  0  0
 15 34  1  0  0  0
 16 35  1  0  0  0
 18 19  1  0  0  0
 18 23  2  0  0  0
 19 20  2  0  0  0
 19 36  1  0  0  0
 20 21  1  0  0  0
 20 37  1  0  0  0
 21 22  2  0  0  0
 21 24  1  0  0  0
 22 23  1  0  0  0
 22 38  1  0  0  0
 23 39  1  0  0  0
 25 26  2  0  0  0
 25 27  2  0  0  0
 25 28  1  0  0  0
 28 40  1  0  0  0
 28 41  1  0  0  0
M  END
>  <Activity>
7.284

>  <set>
2

>  <Min_dist>
0.106667

>  <Avg_dist>
0.54733

$$$$
8-13A
  Cerius2 12110214513D 1   1.00000                          
 
 35 37  0  0  0  0  0  0  0  0999 V2000
   -2.6803   -0.5686    0.0085 C   0  0  0  0  0  0
   -2.1704   -1.6196   -0.7316 C   0  0  0  0  0  0
   -0.8122   -1.8699   -0.7334 C   0  0  0  0  0  0
    0.0418   -1.0643    0.0087 C   0  0  0  0  0  0
   -0.4735   -0.0093    0.7505 C   0  0  0  0  0  0
   -1.8327    0.2353    0.7485 C   0  0  0  0  0  0
    1.4192   -1.3156    0.0094 N   0  0  0  0  0  0
    2.4085   -0.3723   -0.0208 C   0  0  0  0  0  0
    3.6034   -1.0278   -0.0083 C   0  0  0  0  0  0
    3.3356   -2.4099    0.0306 C   0  0  0  0  0  0
    2.0262   -2.5772    0.0472 N   0  0  0  0  0  0
    4.3153   -3.4541    0.0547 C   0  0  0  0  0  0
    5.0924   -4.2824    0.0738 N   0  0  0  0  0  0
    2.2167    1.0942   -0.0604 C   0  0  0  0  0  0
    3.0496    1.9294    0.6847 C   0  0  0  0  0  0
    2.8666    3.2960    0.6444 C   0  0  0  0  0  0
    1.8573    3.8396   -0.1340 C   0  0  0  0  0  0
    1.0270    3.0144   -0.8756 C   0  0  0  0  0  0
    1.2060    1.6470   -0.8474 C   0  0  0  0  0  0
    1.6819    5.1787   -0.1698 F   0  0  0  0  0  0
   -4.4130   -0.2486    0.0027 S   0  0  0  0  0  0
   -4.5547    1.1165    0.3708 O   0  0  0  0  0  0
   -4.9098   -0.8339   -1.1931 O   0  0  0  0  0  0
   -5.0816   -1.1204    1.2418 N   0  0  0  0  0  0
   -2.8350   -2.2457   -1.3084 H   0  0  0  0  0  0
   -0.4146   -2.6913   -1.3110 H   0  0  0  0  0  0
    0.1879    0.6187    1.3289 H   0  0  0  0  0  0
   -2.2340    1.0558    1.3248 H   0  0  0  0  0  0
    4.5811   -0.5693   -0.0257 H   0  0  0  0  0  0
    3.8361    1.5067    1.2923 H   0  0  0  0  0  0
    3.5108    3.9434    1.2208 H   0  0  0  0  0  0
    0.2416    3.4429   -1.4805 H   0  0  0  0  0  0
    0.5586    1.0047   -1.4260 H   0  0  0  0  0  0
   -6.0368   -1.0774    1.4049 H   0  0  0  0  0  0
   -4.5180   -1.6742    1.8045 H   0  0  0  0  0  0
  1  2  1  0  0  0
  1  6  2  0  0  0
  1 21  1  0  0  0
  2  3  2  0  0  0
  2 25  1  0  0  0
  3  4  1  0  0  0
  3 26  1  0  0  0
  4  5  2  0  0  0
  4  7  1  0  0  0
  5  6  1  0  0  0
  5 27  1  0  0  0
  6 28  1  0  0  0
  7  8  1  0  0  0
  7 11  1  0  0  0
  8  9  2  0  0  0
  8 14  1  0  0  0
  9 10  1  0  0  0
  9 29  1  0  0  0
 10 11  2  0  0  0
 10 12  1  0  0  0
 12 13  3  0  0  0
 14 15  1  0  0  0
 14 19  2  0  0  0
 15 16  2  0  0  0
 15 30  1  0  0  0
 16 17  1  0  0  0
 16 31  1  0  0  0
 17 18  2  0  0  0
 17 20  1  0  0  0
 18 19  1  0  0  0
 18 32  1  0  0  0
 19 33  1  0  0  0
 21 22  2  0  0  0
 21 23  2  0  0  0
 21 24  1  0  0  0
 24 34  1  0  0  0
 24 35  1  0  0  0
M  END
>  <Activity>
6.46852

>  <set>
2

>  <Min_dist>
0.093333

>  <Avg_dist>
0.552738

$$$$
8-14A
  Cerius2 12110214513D 1   1.00000                          
 
 38 40  0  0  0  0  0  0  0  0999 V2000
   -2.9158   -0.5887    0.0078 C   0  0  0  0  0  0
   -2.4975   -1.6743   -0.7398 C   0  0  0  0  0  0
   -1.1660   -2.0413   -0.7417 C   0  0  0  0  0  0
   -0.2470   -1.3188    0.0077 C   0  0  0  0  0  0
   -0.6702   -0.2289    0.7569 C   0  0  0  0  0  0
   -2.0031    0.1329    0.7550 C   0  0  0  0  0  0
    1.1040   -1.6888    0.0081 N   0  0  0  0  0  0
    2.1724   -0.8383   -0.0133 C   0  0  0  0  0  0
    3.3029   -1.6061   -0.0033 C   0  0  0  0  0  0
    2.9107   -2.9448    0.0246 C   0  0  0  0  0  0
    1.6024   -2.9976    0.0368 N   0  0  0  0  0  0
    3.8385   -4.1323    0.0437 C   0  0  0  0  0  0
    5.1934   -3.6784    0.0288 O   0  0  0  0  0  0
    2.1163    0.6396   -0.0419 C   0  0  0  0  0  0
    3.0208    1.3894    0.7108 C   0  0  0  0  0  0
    2.9641    2.7674    0.6798 C   0  0  0  0  0  0
    2.0120    3.4065   -0.0963 C   0  0  0  0  0  0
    1.1119    2.6676   -0.8453 C   0  0  0  0  0  0
    1.1625    1.2891   -0.8263 C   0  0  0  0  0  0
    1.9462    5.1409   -0.1300 Cl  0  0  0  0  0  0
   -4.6142   -0.1196    0.0023 S   0  0  0  0  0  0
   -4.6377    1.2499    0.3809 O   0  0  0  0  0  0
   -5.1575   -0.6503   -1.1986 O   0  0  0  0  0  0
   -5.3583   -0.9396    1.2337 N   0  0  0  0  0  0
   -3.2127   -2.2359   -1.3224 H   0  0  0  0  0  0
   -0.8400   -2.8897   -1.3252 H   0  0  0  0  0  0
    0.0422    0.3349    1.3410 H   0  0  0  0  0  0
   -2.3327    0.9807    1.3373 H   0  0  0  0  0  0
    4.3193   -1.2414   -0.0155 H   0  0  0  0  0  0
    3.6612   -4.7174    0.9461 H   0  0  0  0  0  0
    3.6533   -4.7522   -0.8335 H   0  0  0  0  0  0
    5.7525   -4.4673    0.0418 H   0  0  0  0  0  0
    3.7636    0.8920    1.3168 H   0  0  0  0  0  0
    3.6634    3.3488    1.2623 H   0  0  0  0  0  0
    0.3714    3.1714   -1.4489 H   0  0  0  0  0  0
    0.4599    0.7138   -1.4109 H   0  0  0  0  0  0
   -6.3065   -0.8150    1.3959 H   0  0  0  0  0  0
   -4.8459   -1.5444    1.7927 H   0  0  0  0  0  0
  1  2  1  0  0  0
  1  6  2  0  0  0
  1 21  1  0  0  0
  2  3  2  0  0  0
  2 25  1  0  0  0
  3  4  1  0  0  0
  3 26  1  0  0  0
  4  5  2  0  0  0
  4  7  1  0  0  0
  5  6  1  0  0  0
  5 27  1  0  0  0
  6 28  1  0  0  0
  7  8  1  0  0  0
  7 11  1  0  0  0
  8  9  2  0  0  0
  8 14  1  0  0  0
  9 10  1  0  0  0
  9 29  1  0  0  0
 10 11  2  0  0  0
 10 12  1  0  0  0
 12 13  1  0  0  0
 12 30  1  0  0  0
 12 31  1  0  0  0
 13 32  1  0  0  0
 14 15  1  0  0  0
 14 19  2  0  0  0
 15 16  2  0  0  0
 15 33  1  0  0  0
 16 17  1  0  0  0
 16 34  1  0  0  0
 17 18  2  0  0  0
 17 20  1  0  0  0
 18 19  1  0  0  0
 18 35  1  0  0  0
 19 36  1  0  0  0
 21 22  2  0  0  0
 21 23  2  0  0  0
 21 24  1  0  0  0
 24 37  1  0  0  0
 24 38  1  0  0  0
M  END
>  <Activity>
6.08092

>  <set>
2

>  <Min_dist>
0.108108

>  <Avg_dist>
0.539713

$$$$
8-17A
  Cerius2 12110214513D 1   1.00000                          
 
 38 40  0  0  0  0  0  0  0  0999 V2000
   -2.8072   -0.9177   -0.0254 C   0  0  0  0  0  0
   -2.2426   -1.8460   -0.8808 C   0  0  0  0  0  0
   -0.8690   -1.9598   -0.9692 C   0  0  0  0  0  0
   -0.0548   -1.1405   -0.1984 C   0  0  0  0  0  0
   -0.6249   -0.2090    0.6592 C   0  0  0  0  0  0
   -1.9991   -0.1003    0.7435 C   0  0  0  0  0  0
    1.3387   -1.2538   -0.2855 N   0  0  0  0  0  0
    2.2331   -0.2218   -0.2770 C   0  0  0  0  0  0
    3.4823   -0.7663   -0.3800 C   0  0  0  0  0  0
    3.3404   -2.1524   -0.4522 C   0  0  0  0  0  0
    2.0659   -2.4464   -0.3909 N   0  0  0  0  0  0
    4.4668   -3.1461   -0.5742 C   0  0  0  0  0  0
    4.4428   -4.0592    0.5802 C   0  0  0  0  0  0
    4.4243   -4.7638    1.4711 N   0  0  0  0  0  0
    1.9098    1.2180   -0.1751 C   0  0  0  0  0  0
    2.7050    2.0611    0.6020 C   0  0  0  0  0  0
    2.3989    3.4031    0.6929 C   0  0  0  0  0  0
    1.3050    3.9139    0.0149 C   0  0  0  0  0  0
    0.5123    3.0821   -0.7578 C   0  0  0  0  0  0
    0.8118    1.7394   -0.8604 C   0  0  0  0  0  0
    0.9255    5.6037    0.1344 Cl  0  0  0  0  0  0
   -4.5600   -0.7709    0.0796 S   0  0  0  0  0  0
   -4.8088    0.5370    0.5761 O   0  0  0  0  0  0
   -5.0652   -1.2979   -1.1395 O   0  0  0  0  0  0
   -5.0734   -1.8073    1.2648 N   0  0  0  0  0  0
   -2.8764   -2.4829   -1.4800 H   0  0  0  0  0  0
   -0.4286   -2.6855   -1.6369 H   0  0  0  0  0  0
    0.0057    0.4294    1.2603 H   0  0  0  0  0  0
   -2.4431    0.6242    1.4100 H   0  0  0  0  0  0
    4.4140   -0.2205   -0.4023 H   0  0  0  0  0  0
    4.3474   -3.7195   -1.4935 H   0  0  0  0  0  0
    5.4185   -2.6154   -0.5979 H   0  0  0  0  0  0
    3.5582    1.6637    1.1316 H   0  0  0  0  0  0
    3.0134    4.0565    1.2944 H   0  0  0  0  0  0
   -0.3397    3.4860   -1.2844 H   0  0  0  0  0  0
    0.1929    1.0915   -1.4633 H   0  0  0  0  0  0
   -6.0179   -1.8728    1.4760 H   0  0  0  0  0  0
   -4.4297   -2.3488    1.7478 H   0  0  0  0  0  0
  1  2  1  0  0  0
  1  6  2  0  0  0
  1 22  1  0  0  0
  2  3  2  0  0  0
  2 26  1  0  0  0
  3  4  1  0  0  0
  3 27  1  0  0  0
  4  5  2  0  0  0
  4  7  1  0  0  0
  5  6  1  0  0  0
  5 28  1  0  0  0
  6 29  1  0  0  0
  7  8  1  0  0  0
  7 11  1  0  0  0
  8  9  2  0  0  0
  8 15  1  0  0  0
  9 10  1  0  0  0
  9 30  1  0  0  0
 10 11  2  0  0  0
 10 12  1  0  0  0
 12 13  1  0  0  0
 12 31  1  0  0  0
 12 32  1  0  0  0
 13 14  3  0  0  0
 15 16  1  0  0  0
 15 20  2  0  0  0
 16 17  2  0  0  0
 16 33  1  0  0  0
 17 18  1  0  0  0
 17 34  1  0  0  0
 18 19  2  0  0  0
 18 21  1  0  0  0
 19 20  1  0  0  0
 19 35  1  0  0  0
 20 36  1  0  0  0
 22 23  2  0  0  0
 22 24  2  0  0  0
 22 25  1  0  0  0
 25 37  1  0  0  0
 25 38  1  0  0  0
M  END
>  <Activity>
6.92082

>  <set>
2

>  <Min_dist>
0.236842

>  <Avg_dist>
0.562932

$$$$
8-20F
  Cerius2 12110214513D 1   1.00000                          
 
 40 42  0  0  0  0  0  0  0  0999 V2000
   -3.1933   -1.4574    0.0013 C   0  0  0  0  0  0
   -2.3880   -2.2936   -0.7500 C   0  0  0  0  0  0
   -1.0183   -2.1169   -0.7523 C   0  0  0  0  0  0
   -0.4498   -1.0976    0.0006 C   0  0  0  0  0  0
   -1.2614   -0.2592    0.7537 C   0  0  0  0  0  0
   -2.6304   -0.4416    0.7521 C   0  0  0  0  0  0
    0.9385   -0.9160    0.0008 N   0  0  0  0  0  0
    1.5713    0.2958   -0.0170 C   0  0  0  0  0  0
    2.9149    0.0398   -0.0100 C   0  0  0  0  0  0
    3.0295   -1.3686    0.0125 C   0  0  0  0  0  0
    1.8058   -1.8633    0.0232 N   0  0  0  0  0  0
    4.2851   -2.1429    0.0274 C   0  0  0  0  0  0
    5.3545   -1.5663    0.0206 O   0  0  0  0  0  0
    4.2459   -3.4896    0.0486 O   0  0  0  0  0  0
    5.4817   -4.2517    0.0633 C   0  0  0  0  0  0
    4.2064    1.1998   -0.0260 Cl  0  0  0  0  0  0
    0.9270    1.6272   -0.0402 C   0  0  0  0  0  0
    1.1623    2.5371    0.9911 C   0  0  0  0  0  0
    0.5590    3.7774    0.9640 C   0  0  0  0  0  0
   -0.2789    4.1200   -0.0838 C   0  0  0  0  0  0
   -0.5164    3.2209   -1.1097 C   0  0  0  0  0  0
    0.0862    1.9800   -1.0963 C   0  0  0  0  0  0
   -1.0350    5.6824   -0.1110 Cl  0  0  0  0  0  0
   -4.9409   -1.6820   -0.0037 S   0  0  0  0  0  0
   -5.4922   -0.4298    0.3800 O   0  0  0  0  0  0
   -5.2373   -2.3771   -1.2072 O   0  0  0  0  0  0
   -5.3088   -2.7308    1.2239 N   0  0  0  0  0  0
   -2.8306   -3.0860   -1.3353 H   0  0  0  0  0  0
   -0.3898   -2.7708   -1.3388 H   0  0  0  0  0  0
   -0.8224    0.5341    1.3405 H   0  0  0  0  0  0
   -3.2621    0.2103    1.3373 H   0  0  0  0  0  0
    5.2515   -5.3170    0.0796 H   0  0  0  0  0  0
    6.0626   -4.0192   -0.8292 H   0  0  0  0  0  0
    6.0588   -3.9911    0.9505 H   0  0  0  0  0  0
    1.8151    2.2707    1.8092 H   0  0  0  0  0  0
    0.7404    4.4825    1.7617 H   0  0  0  0  0  0
   -1.1712    3.4933   -1.9242 H   0  0  0  0  0  0
   -0.0995    1.2797   -1.8972 H   0  0  0  0  0  0
   -6.2312   -2.9835    1.3858 H   0  0  0  0  0  0
   -4.6019   -3.0924    1.7811 H   0  0  0  0  0  0
  1  2  1  0  0  0
  1  6  2  0  0  0
  1 24  1  0  0  0
  2  3  2  0  0  0
  2 28  1  0  0  0
  3  4  1  0  0  0
  3 29  1  0  0  0
  4  5  2  0  0  0
  4  7  1  0  0  0
  5  6  1  0  0  0
  5 30  1  0  0  0
  6 31  1  0  0  0
  7  8  1  0  0  0
  7 11  1  0  0  0
  8  9  2  0  0  0
  8 17  1  0  0  0
  9 10  1  0  0  0
  9 16  1  0  0  0
 10 11  2  0  0  0
 10 12  1  0  0  0
 12 13  2  0  0  0
 12 14  1  0  0  0
 14 15  1  0  0  0
 15 32  1  0  0  0
 15 33  1  0  0  0
 15 34  1  0  0  0
 17 18  1  0  0  0
 17 22  2  0  0  0
 18 19  2  0  0  0
 18 35  1  0  0  0
 19 20  1  0  0  0
 19 36  1  0  0  0
 20 21  2  0  0  0
 20 23  1  0  0  0
 21 22  1  0  0  0
 21 37  1  0  0  0
 22 38  1  0  0  0
 24 25  2  0  0  0
 24 26  2  0  0  0
 24 27  1  0  0  0
 27 39  1  0  0  0
 27 40  1  0  0  0
M  END
>  <Activity>
6.79588

>  <set>
2

>  <Min_dist>
0.2

>  <Avg_dist>
0.597647

$$$$
8-20G
  Cerius2 12110214513D 1   1.00000                          
 
 38 40  0  0  0  0  0  0  0  0999 V2000
   -3.2545   -0.9755    0.0021 C   0  0  0  0  0  0
   -2.6335   -1.9584   -0.7466 C   0  0  0  0  0  0
   -1.2563   -2.0614   -0.7474 C   0  0  0  0  0  0
   -0.4949   -1.1761    0.0044 C   0  0  0  0  0  0
   -1.1215   -0.1897    0.7548 C   0  0  0  0  0  0
   -2.4991   -0.0924    0.7518 C   0  0  0  0  0  0
    0.9016   -1.2780    0.0060 N   0  0  0  0  0  0
    1.7657   -0.2188   -0.0131 C   0  0  0  0  0  0
    3.0301   -0.7407   -0.0033 C   0  0  0  0  0  0
    2.8582   -2.1428    0.0222 C   0  0  0  0  0  0
    1.5603   -2.3805    0.0314 N   0  0  0  0  0  0
    3.9327   -3.1553    0.0404 C   0  0  0  0  0  0
    5.0972   -2.8061    0.0338 O   0  0  0  0  0  0
    3.6226   -4.4667    0.0642 N   0  0  0  0  0  0
    4.5292    0.1347   -0.0195 Cl  0  0  0  0  0  0
    1.4033    1.2152   -0.0392 C   0  0  0  0  0  0
    1.8165    2.0609    0.9908 C   0  0  0  0  0  0
    1.4755    3.3973    0.9611 C   0  0  0  0  0  0
    0.7247    3.8998   -0.0882 C   0  0  0  0  0  0
    0.3114    3.0652   -1.1128 C   0  0  0  0  0  0
    0.6518    1.7284   -1.0969 C   0  0  0  0  0  0
    0.2993    5.5826   -0.1189 Cl  0  0  0  0  0  0
   -5.0115   -0.8433   -0.0049 S   0  0  0  0  0  0
   -5.2995    0.4951    0.3758 O   0  0  0  0  0  0
   -5.4408   -1.4669   -1.2074 O   0  0  0  0  0  0
   -5.5844   -1.7939    1.2242 N   0  0  0  0  0  0
   -3.2262   -2.6466   -1.3310 H   0  0  0  0  0  0
   -0.7720   -2.8297   -1.3318 H   0  0  0  0  0  0
   -0.5322    0.5000    1.3408 H   0  0  0  0  0  0
   -2.9870    0.6746    1.3349 H   0  0  0  0  0  0
    4.3285   -5.1319    0.0762 H   0  0  0  0  0  0
    2.6935   -4.7453    0.0694 H   0  0  0  0  0  0
    2.4019    1.6699    1.8098 H   0  0  0  0  0  0
    1.7945    4.0527    1.7580 H   0  0  0  0  0  0
   -0.2746    3.4625   -1.9284 H   0  0  0  0  0  0
    0.3289    1.0783   -1.8966 H   0  0  0  0  0  0
   -6.5389   -1.8552    1.3853 H   0  0  0  0  0  0
   -4.9654   -2.2894    1.7830 H   0  0  0  0  0  0
  1  2  1  0  0  0
  1  6  2  0  0  0
  1 23  1  0  0  0
  2  3  2  0  0  0
  2 27  1  0  0  0
  3  4  1  0  0  0
  3 28  1  0  0  0
  4  5  2  0  0  0
  4  7  1  0  0  0
  5  6  1  0  0  0
  5 29  1  0  0  0
  6 30  1  0  0  0
  7  8  1  0  0  0
  7 11  1  0  0  0
  8  9  2  0  0  0
  8 16  1  0  0  0
  9 10  1  0  0  0
  9 15  1  0  0  0
 10 11  2  0  0  0
 10 12  1  0  0  0
 12 13  2  0  0  0
 12 14  1  0  0  0
 14 31  1  0  0  0
 14 32  1  0  0  0
 16 17  1  0  0  0
 16 21  2  0  0  0
 17 18  2  0  0  0
 17 33  1  0  0  0
 18 19  1  0  0  0
 18 34  1  0  0  0
 19 20  2  0  0  0
 19 22  1  0  0  0
 20 21  1  0  0  0
 20 35  1  0  0  0
 21 36  1  0  0  0
 23 24  2  0  0  0
 23 25  2  0  0  0
 23 26  1  0  0  0
 26 37  1  0  0  0
 26 38  1  0  0  0
M  END
>  <Activity>
5.96257

>  <set>
2

>  <Min_dist>
0.2

>  <Avg_dist>
0.602465

$$$$
8-21B
  Cerius2 12110214513D 1   1.00000                          
 
 34 36  0  0  0  0  0  0  0  0999 V2000
   -3.5792   -0.5427    0.0045 C   0  0  0  0  0  0
   -3.2040   -1.6483   -0.7365 C   0  0  0  0  0  0
   -1.8891   -2.0707   -0.7319 C   0  0  0  0  0  0
   -0.9434   -1.3839    0.0179 C   0  0  0  0  0  0
   -1.3233   -0.2741    0.7610 C   0  0  0  0  0  0
   -2.6398    0.1433    0.7522 C   0  0  0  0  0  0
    0.3910   -1.8101    0.0251 N   0  0  0  0  0  0
    1.4946   -1.0047    0.0042 C   0  0  0  0  0  0
    2.5921   -1.8195    0.0216 C   0  0  0  0  0  0
    2.1435   -3.1409    0.0537 C   0  0  0  0  0  0
    0.8341   -3.1384    0.0611 N   0  0  0  0  0  0
    4.3973   -1.2566    0.0047 Br  0  0  0  0  0  0
    1.5006    0.4739   -0.0313 C   0  0  0  0  0  0
    2.1084    1.1967    0.9959 C   0  0  0  0  0  0
    2.1108    2.5757    0.9575 C   0  0  0  0  0  0
    1.5117    3.2426   -0.0978 C   0  0  0  0  0  0
    0.9067    2.5307   -1.1197 C   0  0  0  0  0  0
    0.9034    1.1514   -1.0951 C   0  0  0  0  0  0
    1.5187    4.9781   -0.1394 Cl  0  0  0  0  0  0
   -5.2564   -0.0027   -0.0099 S   0  0  0  0  0  0
   -5.2237    1.3683    0.3625 O   0  0  0  0  0  0
   -5.8169   -0.5157   -1.2106 O   0  0  0  0  0  0
   -6.0390   -0.7850    1.2221 N   0  0  0  0  0  0
   -3.9401   -2.1823   -1.3192 H   0  0  0  0  0  0
   -1.5968   -2.9345   -1.3105 H   0  0  0  0  0  0
   -0.5902    0.2620    1.3454 H   0  0  0  0  0  0
   -2.9360    1.0064    1.3299 H   0  0  0  0  0  0
    2.7718   -4.0191    0.0735 H   0  0  0  0  0  0
    2.5756    0.6776    1.8197 H   0  0  0  0  0  0
    2.5806    3.1361    1.7522 H   0  0  0  0  0  0
    0.4406    3.0562   -1.9401 H   0  0  0  0  0  0
    0.4312    0.5971   -1.8928 H   0  0  0  0  0  0
   -6.9817   -0.6200    1.3800 H   0  0  0  0  0  0
   -5.5546   -1.4083    1.7859 H   0  0  0  0  0  0
  1  2  1  0  0  0
  1  6  2  0  0  0
  1 20  1  0  0  0
  2  3  2  0  0  0
  2 24  1  0  0  0
  3  4  1  0  0  0
  3 25  1  0  0  0
  4  5  2  0  0  0
  4  7  1  0  0  0
  5  6  1  0  0  0
  5 26  1  0  0  0
  6 27  1  0  0  0
  7  8  1  0  0  0
  7 11  1  0  0  0
  8  9  2  0  0  0
  8 13  1  0  0  0
  9 10  1  0  0  0
  9 12  1  0  0  0
 10 11  2  0  0  0
 10 28  1  0  0  0
 13 14  1  0  0  0
 13 18  2  0  0  0
 14 15  2  0  0  0
 14 29  1  0  0  0
 15 16  1  0  0  0
 15 30  1  0  0  0
 16 17  2  0  0  0
 16 19  1  0  0  0
 17 18  1  0  0  0
 17 31  1  0  0  0
 18 32  1  0  0  0
 20 21  2  0  0  0
 20 22  2  0  0  0
 20 23  1  0  0  0
 23 33  1  0  0  0
 23 34  1  0  0  0
M  END
>  <Activity>
7.50864

>  <set>
2

>  <Min_dist>
0.09375

>  <Avg_dist>
0.512748

$$$$
8-22D
  Cerius2 12110214513D 1   1.00000                          
 
 38 40  0  0  0  0  0  0  0  0999 V2000
   -2.8123   -0.3111    0.0058 C   0  0  0  0  0  0
   -2.4877   -1.4423   -0.7204 C   0  0  0  0  0  0
   -1.1928   -1.9224   -0.7114 C   0  0  0  0  0  0
   -0.2162   -1.2680    0.0279 C   0  0  0  0  0  0
   -0.5454   -0.1322    0.7561 C   0  0  0  0  0  0
   -1.8421    0.3429    0.7430 C   0  0  0  0  0  0
    1.0976   -1.7525    0.0394 N   0  0  0  0  0  0
    2.2281   -0.9946    0.0061 C   0  0  0  0  0  0
    3.3085   -1.8759    0.0339 C   0  0  0  0  0  0
    2.7773   -3.1818    0.0848 C   0  0  0  0  0  0
    1.4748   -3.0989    0.0933 N   0  0  0  0  0  0
    4.6959   -1.5219    0.0140 C   0  0  0  0  0  0
    5.7965   -1.2411   -0.0018 N   0  0  0  0  0  0
    2.2971    0.4793   -0.0496 C   0  0  0  0  0  0
    2.9374    1.1905    0.9675 C   0  0  0  0  0  0
    2.9981    2.5674    0.9091 C   0  0  0  0  0  0
    2.4264    3.2438   -0.1540 C   0  0  0  0  0  0
    1.7904    2.5454   -1.1652 C   0  0  0  0  0  0
    1.7273    1.1681   -1.1225 C   0  0  0  0  0  0
    2.4963    4.7481   -0.2106 C   0  0  0  0  0  0
   -4.4639    0.3025   -0.0140 S   0  0  0  0  0  0
   -4.3699    1.6756    0.3394 O   0  0  0  0  0  0
   -5.0486   -0.2016   -1.2070 O   0  0  0  0  0  0
   -5.2782   -0.4275    1.2295 N   0  0  0  0  0  0
   -3.2477   -1.9510   -1.2949 H   0  0  0  0  0  0
   -0.9400   -2.8061   -1.2785 H   0  0  0  0  0  0
    0.2117    0.3788    1.3324 H   0  0  0  0  0  0
   -2.0988    1.2261    1.3091 H   0  0  0  0  0  0
    3.3516   -4.0959    0.1155 H   0  0  0  0  0  0
    3.3837    0.6638    1.7980 H   0  0  0  0  0  0
    3.4927    3.1187    1.6951 H   0  0  0  0  0  0
    1.3463    3.0797   -1.9921 H   0  0  0  0  0  0
    1.2310    0.6243   -1.9126 H   0  0  0  0  0  0
    3.4001    5.0502   -0.7398 H   0  0  0  0  0  0
    1.6221    5.1330   -0.7357 H   0  0  0  0  0  0
    2.5174    5.1492    0.8026 H   0  0  0  0  0  0
   -6.2124   -0.2188    1.3861 H   0  0  0  0  0  0
   -4.8209   -1.0639    1.8012 H   0  0  0  0  0  0
  1  2  1  0  0  0
  1  6  2  0  0  0
  1 21  1  0  0  0
  2  3  2  0  0  0
  2 25  1  0  0  0
  3  4  1  0  0  0
  3 26  1  0  0  0
  4  5  2  0  0  0
  4  7  1  0  0  0
  5  6  1  0  0  0
  5 27  1  0  0  0
  6 28  1  0  0  0
  7  8  1  0  0  0
  7 11  1  0  0  0
  8  9  2  0  0  0
  8 14  1  0  0  0
  9 10  1  0  0  0
  9 12  1  0  0  0
 10 11  2  0  0  0
 10 29  1  0  0  0
 12 13  3  0  0  0
 14 15  1  0  0  0
 14 19  2  0  0  0
 15 16  2  0  0  0
 15 30  1  0  0  0
 16 17  1  0  0  0
 16 31  1  0  0  0
 17 18  2  0  0  0
 17 20  1  0  0  0
 18 19  1  0  0  0
 18 32  1  0  0  0
 19 33  1  0  0  0
 20 34  1  0  0  0
 20 35  1  0  0  0
 20 36  1  0  0  0
 21 22  2  0  0  0
 21 23  2  0  0  0
 21 24  1  0  0  0
 24 37  1  0  0  0
 24 38  1  0  0  0
M  END
>  <Activity>
7.11919

>  <set>
2

>  <Min_dist>
0.303797

>  <Avg_dist>
0.559737

$$$$
8-22E
  Cerius2 12110214513D 1   1.00000                          
 
 36 38  0  0  0  0  0  0  0  0999 V2000
   -2.9837   -0.3181    0.0073 C   0  0  0  0  0  0
   -2.5546   -1.4267   -0.6991 C   0  0  0  0  0  0
   -1.2200   -1.7820   -0.6855 C   0  0  0  0  0  0
   -0.3087   -1.0244    0.0382 C   0  0  0  0  0  0
   -0.7427    0.0886    0.7462 C   0  0  0  0  0  0
   -2.0786    0.4384    0.7290 C   0  0  0  0  0  0
    1.0455   -1.3823    0.0543 N   0  0  0  0  0  0
    2.1065   -0.5240    0.0033 C   0  0  0  0  0  0
    3.2435   -1.2810    0.0424 C   0  0  0  0  0  0
    2.8630   -2.6212    0.1185 C   0  0  0  0  0  0
    1.5552   -2.6848    0.1319 N   0  0  0  0  0  0
    4.6324   -0.7700    0.0094 N   0  3  0  0  0  0
    5.5687   -1.5479    0.0503 O   0  0  0  0  0  0
    4.8389    0.4285   -0.0586 O   0  0  0  0  0  0
    2.0377    0.9514   -0.0795 C   0  0  0  0  0  0
    2.6105    1.7367    0.9215 C   0  0  0  0  0  0
    2.5434    3.1123    0.8382 C   0  0  0  0  0  0
    1.9094    3.7131   -0.2347 C   0  0  0  0  0  0
    1.3390    2.9401   -1.2302 C   0  0  0  0  0  0
    1.4048    1.5636   -1.1618 C   0  0  0  0  0  0
   -4.6861    0.1357   -0.0180 S   0  0  0  0  0  0
   -4.7221    1.5179    0.3099 O   0  0  0  0  0  0
   -5.2225   -0.4435   -1.1995 O   0  0  0  0  0  0
   -5.4253   -0.6449    1.2416 N   0  0  0  0  0  0
   -3.2639   -2.0155   -1.2618 H   0  0  0  0  0  0
   -0.8856   -2.6483   -1.2369 H   0  0  0  0  0  0
   -0.0363    0.6796    1.3103 H   0  0  0  0  0  0
   -2.4167    1.3041    1.2791 H   0  0  0  0  0  0
    3.5352   -3.4653    0.1638 H   0  0  0  0  0  0
    3.1051    1.2688    1.7599 H   0  0  0  0  0  0
    2.9864    3.7212    1.6123 H   0  0  0  0  0  0
    1.8592    4.7903   -0.2951 H   0  0  0  0  0  0
    0.8452    3.4151   -2.0650 H   0  0  0  0  0  0
    0.9595    0.9612   -1.9397 H   0  0  0  0  0  0
   -6.3749   -0.5228    1.3976 H   0  0  0  0  0  0
   -4.9088   -1.2243    1.8233 H   0  0  0  0  0  0
  1  2  1  0  0  0
  1  6  2  0  0  0
  1 21  1  0  0  0
  2  3  2  0  0  0
  2 25  1  0  0  0
  3  4  1  0  0  0
  3 26  1  0  0  0
  4  5  2  0  0  0
  4  7  1  0  0  0
  5  6  1  0  0  0
  5 27  1  0  0  0
  6 28  1  0  0  0
  7  8  1  0  0  0
  7 11  1  0  0  0
  8  9  2  0  0  0
  8 15  1  0  0  0
  9 10  1  0  0  0
  9 12  1  0  0  0
 10 11  2  0  0  0
 10 29  1  0  0  0
 12 13  2  0  0  0
 12 14  1  0  0  0
 15 16  1  0  0  0
 15 20  2  0  0  0
 16 17  2  0  0  0
 16 30  1  0  0  0
 17 18  1  0  0  0
 17 31  1  0  0  0
 18 19  2  0  0  0
 18 32  1  0  0  0
 19 20  1  0  0  0
 19 33  1  0  0  0
 20 34  1  0  0  0
 21 22  2  0  0  0
 21 23  2  0  0  0
 21 24  1  0  0  0
 24 35  1  0  0  0
 24 36  1  0  0  0
M  CHG  1  12   1
M  END
>  <Activity>
6.5376

>  <set>
2

>  <Min_dist>
0.304878

>  <Avg_dist>
0.588962

$$$$
8-22F
  Cerius2 12110214513D 1   1.00000                          
 
 40 42  0  0  0  0  0  0  0  0999 V2000
   -3.5834   -0.5468    0.0010 C   0  0  0  0  0  0
   -3.1963   -1.6254   -0.7729 C   0  0  0  0  0  0
   -1.8826   -2.0515   -0.7585 C   0  0  0  0  0  0
   -0.9500   -1.3951    0.0338 C   0  0  0  0  0  0
   -1.3418   -0.3120    0.8095 C   0  0  0  0  0  0
   -2.6571    0.1089    0.7911 C   0  0  0  0  0  0
    0.3831   -1.8251    0.0510 N   0  0  0  0  0  0
    1.4885   -1.0233    0.0348 C   0  0  0  0  0  0
    2.5834   -1.8407    0.0620 C   0  0  0  0  0  0
    2.1315   -3.1604    0.0951 C   0  0  0  0  0  0
    0.8221   -3.1546    0.0940 N   0  0  0  0  0  0
    4.2668   -1.3205    0.0552 S   0  0  0  0  0  0
    4.3120   -0.3859    1.1246 O   0  0  0  0  0  0
    4.9769   -2.5507    0.0969 O   0  0  0  0  0  0
    4.4402   -0.5029   -1.5548 C   0  0  0  0  0  0
    1.4989    0.4553   -0.0047 C   0  0  0  0  0  0
    0.8537    1.1327   -1.0400 C   0  0  0  0  0  0
    0.8663    2.5118   -1.0715 C   0  0  0  0  0  0
    1.5175    3.2237   -0.0783 C   0  0  0  0  0  0
    2.1594    2.5569    0.9516 C   0  0  0  0  0  0
    2.1489    1.1781    0.9962 C   0  0  0  0  0  0
    1.5296    4.9591   -0.1247 Cl  0  0  0  0  0  0
   -5.2589   -0.0022   -0.0253 S   0  0  0  0  0  0
   -5.2307    1.3541    0.3977 O   0  0  0  0  0  0
   -5.7975   -0.4693   -1.2545 O   0  0  0  0  0  0
   -6.0663   -0.8271    1.1621 N   0  0  0  0  0  0
   -3.9221   -2.1355   -1.3889 H   0  0  0  0  0  0
   -1.5810   -2.8944   -1.3626 H   0  0  0  0  0  0
   -0.6189    0.2003    1.4270 H   0  0  0  0  0  0
   -2.9623    0.9515    1.3938 H   0  0  0  0  0  0
    2.7575   -4.0400    0.1217 H   0  0  0  0  0  0
    5.4334   -0.0606   -1.6325 H   0  0  0  0  0  0
    4.3054   -1.2354   -2.3507 H   0  0  0  0  0  0
    3.6861    0.2785   -1.6485 H   0  0  0  0  0  0
    0.3458    0.5785   -1.8154 H   0  0  0  0  0  0
    0.3676    3.0372   -1.8725 H   0  0  0  0  0  0
    2.6657    3.1173    1.7235 H   0  0  0  0  0  0
    2.6500    0.6590    1.7999 H   0  0  0  0  0  0
   -7.0116   -0.6655    1.3080 H   0  0  0  0  0  0
   -5.5940   -1.4719    1.7117 H   0  0  0  0  0  0
  1  2  1  0  0  0
  1  6  2  0  0  0
  1 23  1  0  0  0
  2  3  2  0  0  0
  2 27  1  0  0  0
  3  4  1  0  0  0
  3 28  1  0  0  0
  4  5  2  0  0  0
  4  7  1  0  0  0
  5  6  1  0  0  0
  5 29  1  0  0  0
  6 30  1  0  0  0
  7  8  1  0  0  0
  7 11  1  0  0  0
  8  9  2  0  0  0
  8 16  1  0  0  0
  9 10  1  0  0  0
  9 12  1  0  0  0
 10 11  2  0  0  0
 10 31  1  0  0  0
 12 13  2  0  0  0
 12 14  2  0  0  0
 12 15  1  0  0  0
 15 32  1  0  0  0
 15 33  1  0  0  0
 15 34  1  0  0  0
 16 17  1  0  0  0
 16 21  2  0  0  0
 17 18  2  0  0  0
 17 35  1  0  0  0
 18 19  1  0  0  0
 18 36  1  0  0  0
 19 20  2  0  0  0
 19 22  1  0  0  0
 20 21  1  0  0  0
 20 37  1  0  0  0
 21 38  1  0  0  0
 23 24  2  0  0  0
 23 25  2  0  0  0
 23 26  1  0  0  0
 26 39  1  0  0  0
 26 40  1  0  0  0
M  END
>  <Activity>
4.70333

>  <set>
2

>  <Min_dist>
0.314607

>  <Avg_dist>
0.555317

$$$$
8-25B
  Cerius2 12110214513D 1   1.00000                          
 
 43 45  0  0  0  0  0  0  0  0999 V2000
   -3.3260    1.2929   -0.0222 C   0  0  0  0  0  0
   -2.7229    0.3482    0.7878 C   0  0  0  0  0  0
   -1.3464    0.2399    0.8179 C   0  0  0  0  0  0
   -0.5679    1.0806    0.0335 C   0  0  0  0  0  0
   -1.1765    2.0280   -0.7791 C   0  0  0  0  0  0
   -2.5535    2.1316   -0.8045 C   0  0  0  0  0  0
    0.8285    0.9736    0.0622 N   0  0  0  0  0  0
    1.5477   -0.1874    0.0664 C   0  0  0  0  0  0
    2.8705    0.1546    0.0970 C   0  0  0  0  0  0
    2.9523    1.5473    0.1115 C   0  0  0  0  0  0
    1.7387    2.0381    0.0855 N   0  0  0  0  0  0
    4.2256    2.3527    0.1453 C   0  0  0  0  0  0
    3.9146    3.7167    0.1514 F   0  0  0  0  0  0
    4.9485    2.0340    1.2999 F   0  0  0  0  0  0
    4.9958    2.0550   -0.9841 F   0  0  0  0  0  0
    4.0343   -0.8028    0.1130 C   0  0  0  0  0  0
    4.4582   -1.1144   -1.3237 C   0  0  0  0  0  0
    0.9972   -1.5601    0.0423 C   0  0  0  0  0  0
    0.1096   -1.9411   -0.9646 C   0  0  0  0  0  0
   -0.4003   -3.2228   -0.9823 C   0  0  0  0  0  0
   -0.0329   -4.1304   -0.0032 C   0  0  0  0  0  0
    0.8475   -3.7579    0.9985 C   0  0  0  0  0  0
    1.3679   -2.4806    1.0233 C   0  0  0  0  0  0
   -0.6790   -5.7415   -0.0314 Cl  0  0  0  0  0  0
   -5.0827    1.4235   -0.0628 S   0  0  0  0  0  0
   -5.3950    2.0455   -1.3017 O   0  0  0  0  0  0
   -5.5737    0.1626    0.3712 O   0  0  0  0  0  0
   -5.5259    2.5065    1.1088 N   0  0  0  0  0  0
   -3.3289   -0.3054    1.3976 H   0  0  0  0  0  0
   -0.8759   -0.4977    1.4512 H   0  0  0  0  0  0
   -0.5737    2.6836   -1.3901 H   0  0  0  0  0  0
   -3.0275    2.8680   -1.4366 H   0  0  0  0  0  0
    4.8693   -0.3507    0.6483 H   0  0  0  0  0  0
    3.7390   -1.7253    0.6129 H   0  0  0  0  0  0
    5.2999   -1.8068   -1.3120 H   0  0  0  0  0  0
    3.6232   -1.5664   -1.8590 H   0  0  0  0  0  0
    4.7535   -0.1918   -1.8235 H   0  0  0  0  0  0
   -0.1779   -1.2339   -1.7286 H   0  0  0  0  0  0
   -1.0876   -3.5188   -1.7610 H   0  0  0  0  0  0
    1.1305   -4.4700    1.7596 H   0  0  0  0  0  0
    2.0544   -2.1911    1.8051 H   0  0  0  0  0  0
   -6.4630    2.7168    1.2454 H   0  0  0  0  0  0
   -4.8485    2.9307    1.6585 H   0  0  0  0  0  0
  1  2  1  0  0  0
  1  6  2  0  0  0
  1 25  1  0  0  0
  2  3  2  0  0  0
  2 29  1  0  0  0
  3  4  1  0  0  0
  3 30  1  0  0  0
  4  5  2  0  0  0
  4  7  1  0  0  0
  5  6  1  0  0  0
  5 31  1  0  0  0
  6 32  1  0  0  0
  7  8  1  0  0  0
  7 11  1  0  0  0
  8  9  2  0  0  0
  8 18  1  0  0  0
  9 10  1  0  0  0
  9 16  1  0  0  0
 10 11  2  0  0  0
 10 12  1  0  0  0
 12 13  1  0  0  0
 12 14  1  0  0  0
 12 15  1  0  0  0
 16 17  1  0  0  0
 16 33  1  0  0  0
 16 34  1  0  0  0
 17 35  1  0  0  0
 17 36  1  0  0  0
 17 37  1  0  0  0
 18 19  1  0  0  0
 18 23  2  0  0  0
 19 20  2  0  0  0
 19 38  1  0  0  0
 20 21  1  0  0  0
 20 39  1  0  0  0
 21 22  2  0  0  0
 21 24  1  0  0  0
 22 23  1  0  0  0
 22 40  1  0  0  0
 23 41  1  0  0  0
 25 26  2  0  0  0
 25 27  2  0  0  0
 25 28  1  0  0  0
 28 42  1  0  0  0
 28 43  1  0  0  0
M  END
>  <Activity>
7.55284

>  <set>
2

>  <Min_dist>
0.068493

>  <Avg_dist>
0.510655

$$$$
8-25D
  Cerius2 12110214513D 1   1.00000                          
 
 41 43  0  0  0  0  0  0  0  0999 V2000
   -3.4197   -0.6525   -0.0199 C   0  0  0  0  0  0
   -2.6817   -1.5588   -0.7590 C   0  0  0  0  0  0
   -1.3016   -1.5103   -0.7352 C   0  0  0  0  0  0
   -0.6552   -0.5498    0.0317 C   0  0  0  0  0  0
   -1.3992    0.3591    0.7724 C   0  0  0  0  0  0
   -2.7790    0.3050    0.7448 C   0  0  0  0  0  0
    0.7443   -0.4983    0.0583 N   0  0  0  0  0  0
    1.5105    0.6372    0.0574 C   0  0  0  0  0  0
    2.8297    0.2347    0.0897 C   0  0  0  0  0  0
    2.8451   -1.1639    0.1101 C   0  0  0  0  0  0
    1.6101   -1.5982    0.0969 N   0  0  0  0  0  0
    4.0792   -2.0280    0.1469 C   0  0  0  0  0  0
    3.7046   -3.3758    0.1589 F   0  0  0  0  0  0
    4.8618   -1.7716   -0.9840 F   0  0  0  0  0  0
    4.8169   -1.7387    1.2999 F   0  0  0  0  0  0
    3.9191    1.0507    0.0994 O   0  0  0  0  0  0
    4.2013    1.3792   -1.2624 C   0  0  0  0  0  0
    1.0172    2.0302    0.0267 C   0  0  0  0  0  0
    1.4330    2.9426    0.9977 C   0  0  0  0  0  0
    0.9692    4.2414    0.9630 C   0  0  0  0  0  0
    0.0937    4.6402   -0.0314 C   0  0  0  0  0  0
   -0.3227    3.7407   -0.9966 C   0  0  0  0  0  0
    0.1380    2.4405   -0.9768 C   0  0  0  0  0  0
   -5.1802   -0.7135   -0.0583 S   0  0  0  0  0  0
   -5.6198    0.5839    0.3195 O   0  0  0  0  0  0
   -5.5173   -1.3758   -1.2694 O   0  0  0  0  0  0
   -5.6672   -1.7256    1.1586 N   0  0  0  0  0  0
   -3.1850   -2.3055   -1.3552 H   0  0  0  0  0  0
   -0.7258   -2.2188   -1.3121 H   0  0  0  0  0  0
   -0.8994    1.1070    1.3701 H   0  0  0  0  0  0
   -3.3582    1.0119    1.3204 H   0  0  0  0  0  0
    5.1214    1.9614   -1.3126 H   0  0  0  0  0  0
    4.3193    0.4626   -1.8403 H   0  0  0  0  0  0
    3.3783    1.9642   -1.6731 H   0  0  0  0  0  0
    2.1161    2.6324    1.7746 H   0  0  0  0  0  0
    1.2899    4.9483    1.7139 H   0  0  0  0  0  0
   -0.2664    5.6582   -0.0540 H   0  0  0  0  0  0
   -1.0068    4.0582   -1.7697 H   0  0  0  0  0  0
   -0.1879    1.7393   -1.7308 H   0  0  0  0  0  0
   -6.6120   -1.8916    1.3025 H   0  0  0  0  0  0
   -5.0077   -2.1524    1.7276 H   0  0  0  0  0  0
  1  2  1  0  0  0
  1  6  2  0  0  0
  1 24  1  0  0  0
  2  3  2  0  0  0
  2 28  1  0  0  0
  3  4  1  0  0  0
  3 29  1  0  0  0
  4  5  2  0  0  0
  4  7  1  0  0  0
  5  6  1  0  0  0
  5 30  1  0  0  0
  6 31  1  0  0  0
  7  8  1  0  0  0
  7 11  1  0  0  0
  8  9  2  0  0  0
  8 18  1  0  0  0
  9 10  1  0  0  0
  9 16  1  0  0  0
 10 11  2  0  0  0
 10 12  1  0  0  0
 12 13  1  0  0  0
 12 14  1  0  0  0
 12 15  1  0  0  0
 16 17  1  0  0  0
 17 32  1  0  0  0
 17 33  1  0  0  0
 17 34  1  0  0  0
 18 19  1  0  0  0
 18 23  2  0  0  0
 19 20  2  0  0  0
 19 35  1  0  0  0
 20 21  1  0  0  0
 20 36  1  0  0  0
 21 22  2  0  0  0
 21 37  1  0  0  0
 22 23  1  0  0  0
 22 38  1  0  0  0
 23 39  1  0  0  0
 24 25  2  0  0  0
 24 26  2  0  0  0
 24 27  1  0  0  0
 27 40  1  0  0  0
 27 41  1  0  0  0
M  END
>  <Activity>
7.09691

>  <set>
2

>  <Min_dist>
0.1125

>  <Avg_dist>
0.545412

$$$$
8-37
  Cerius2 12110214513D 1   1.00000                          
 
 36 38  0  0  0  0  0  0  0  0999 V2000
   -2.5547   -2.9266    0.1186 C   0  0  0  0  0  0
   -1.4847   -3.3213   -0.6653 C   0  0  0  0  0  0
   -0.3327   -2.5603   -0.6972 C   0  0  0  0  0  0
   -0.2486   -1.3981    0.0580 C   0  0  0  0  0  0
   -1.3237   -1.0041    0.8437 C   0  0  0  0  0  0
   -2.4734   -1.7687    0.8723 C   0  0  0  0  0  0
    0.9191   -0.6245    0.0277 N   0  0  0  0  0  0
    0.9817    0.7397    0.0137 C   0  0  0  0  0  0
    2.3038    1.0852   -0.0156 C   0  0  0  0  0  0
    3.0536   -0.0914   -0.0195 C   0  0  0  0  0  0
    2.2326   -1.1110    0.0124 N   0  0  0  0  0  0
    4.5580   -0.1749   -0.0492 C   0  0  0  0  0  0
    4.9507   -1.5176   -0.0442 F   0  0  0  0  0  0
    5.0368    0.4467   -1.2075 F   0  0  0  0  0  0
    5.0831    0.4688    1.0765 F   0  0  0  0  0  0
   -0.1677    1.6703    0.0273 C   0  0  0  0  0  0
   -0.1121    2.8396    0.7873 C   0  0  0  0  0  0
   -1.1853    3.7049    0.7970 C   0  0  0  0  0  0
   -2.3207    3.4141    0.0525 C   0  0  0  0  0  0
   -2.3799    2.2515   -0.7045 C   0  0  0  0  0  0
   -1.3083    1.3844   -0.7242 C   0  0  0  0  0  0
   -3.3767    4.2691    0.0650 O   0  0  0  0  0  0
   -4.3765    3.7031   -0.7848 C   0  0  0  0  0  0
   -4.0040   -3.8816    0.1510 Cl  0  0  0  0  0  0
   -1.5505   -4.2255   -1.2522 H   0  0  0  0  0  0
    0.5022   -2.8690   -1.3088 H   0  0  0  0  0  0
   -1.2607   -0.1006    1.4320 H   0  0  0  0  0  0
   -3.3099   -1.4625    1.4829 H   0  0  0  0  0  0
    2.6981    2.0905   -0.0331 H   0  0  0  0  0  0
    0.7704    3.0661    1.3672 H   0  0  0  0  0  0
   -1.1431    4.6099    1.3849 H   0  0  0  0  0  0
   -3.2649    2.0285   -1.2821 H   0  0  0  0  0  0
   -1.3550    0.4805   -1.3135 H   0  0  0  0  0  0
   -5.2478    4.3576   -0.8065 H   0  0  0  0  0  0
   -3.9776    3.5956   -1.7935 H   0  0  0  0  0  0
   -4.6666    2.7244   -0.4026 H   0  0  0  0  0  0
  1  2  1  0  0  0
  1  6  2  0  0  0
  1 24  1  0  0  0
  2  3  2  0  0  0
  2 25  1  0  0  0
  3  4  1  0  0  0
  3 26  1  0  0  0
  4  5  2  0  0  0
  4  7  1  0  0  0
  5  6  1  0  0  0
  5 27  1  0  0  0
  6 28  1  0  0  0
  7  8  1  0  0  0
  7 11  1  0  0  0
  8  9  2  0  0  0
  8 16  1  0  0  0
  9 10  1  0  0  0
  9 29  1  0  0  0
 10 11  2  0  0  0
 10 12  1  0  0  0
 12 13  1  0  0  0
 12 14  1  0  0  0
 12 15  1  0  0  0
 16 17  1  0  0  0
 16 21  2  0  0  0
 17 18  2  0  0  0
 17 30  1  0  0  0
 18 19  1  0  0  0
 18 31  1  0  0  0
 19 20  2  0  0  0
 19 22  1  0  0  0
 20 21  1  0  0  0
 20 32  1  0  0  0
 21 33  1  0  0  0
 22 23  1  0  0  0
 23 34  1  0  0  0
 23 35  1  0  0  0
 23 36  1  0  0  0
M  END
>  <Activity>
6.12494

>  <set>
2

>  <Min_dist>
0.065574

>  <Avg_dist>
0.562639

$$$$
8-39
  Cerius2 12110214513D 1   1.00000                          
 
 38 40  0  0  0  0  0  0  0  0999 V2000
   -3.0331   -1.0798    0.0131 C   0  0  0  0  0  0
   -2.2428   -1.9342   -0.7337 C   0  0  0  0  0  0
   -0.8705   -1.7786   -0.7408 C   0  0  0  0  0  0
   -0.2845   -0.7629    0.0030 C   0  0  0  0  0  0
   -1.0809    0.0934    0.7519 C   0  0  0  0  0  0
   -2.4526   -0.0673    0.7548 C   0  0  0  0  0  0
    1.1071   -0.6027   -0.0017 N   0  0  0  0  0  0
    1.7814    0.5846   -0.0296 C   0  0  0  0  0  0
    3.1166    0.2934   -0.0239 C   0  0  0  0  0  0
    3.2518   -1.0949    0.0080 C   0  0  0  0  0  0
    2.0575   -1.6313    0.0274 N   0  0  0  0  0  0
    4.5553   -1.8510    0.0238 C   0  0  0  0  0  0
    4.2968   -3.2255    0.0560 F   0  0  0  0  0  0
    5.2881   -1.5411   -1.1270 F   0  0  0  0  0  0
    5.2911   -1.4882    1.1570 F   0  0  0  0  0  0
    1.1785    1.9350   -0.0608 C   0  0  0  0  0  0
    1.7412    2.9703    0.6865 C   0  0  0  0  0  0
    1.1750    4.2277    0.6540 C   0  0  0  0  0  0
    0.0494    4.4636   -0.1191 C   0  0  0  0  0  0
   -0.5136    3.4387   -0.8627 C   0  0  0  0  0  0
    0.0484    2.1792   -0.8421 C   0  0  0  0  0  0
   -0.5013    5.6969   -0.1475 F   0  0  0  0  0  0
   -4.7841   -1.2771    0.0137 S   0  0  0  0  0  0
   -5.2486    0.0327    0.3101 O   0  0  0  0  0  0
   -5.0313   -1.9006   -1.2390 O   0  0  0  0  0  0
   -5.0710   -2.4167    1.3956 C   0  0  0  0  0  0
   -2.6991   -2.7242   -1.3117 H   0  0  0  0  0  0
   -0.2538   -2.4464   -1.3239 H   0  0  0  0  0  0
   -0.6281    0.8841    1.3317 H   0  0  0  0  0  0
   -3.0725    0.5983    1.3370 H   0  0  0  0  0  0
    3.9239    1.0106   -0.0414 H   0  0  0  0  0  0
    2.6182    2.7874    1.2896 H   0  0  0  0  0  0
    1.6096    5.0296    1.2323 H   0  0  0  0  0  0
   -1.3911    3.6277   -1.4633 H   0  0  0  0  0  0
   -0.3909    1.3813   -1.4223 H   0  0  0  0  0  0
   -6.1392   -2.6121    1.4897 H   0  0  0  0  0  0
   -4.5453   -3.3532    1.2094 H   0  0  0  0  0  0
   -4.7009   -1.9695    2.3182 H   0  0  0  0  0  0
  1  2  1  0  0  0
  1  6  2  0  0  0
  1 23  1  0  0  0
  2  3  2  0  0  0
  2 27  1  0  0  0
  3  4  1  0  0  0
  3 28  1  0  0  0
  4  5  2  0  0  0
  4  7  1  0  0  0
  5  6  1  0  0  0
  5 29  1  0  0  0
  6 30  1  0  0  0
  7  8  1  0  0  0
  7 11  1  0  0  0
  8  9  2  0  0  0
  8 16  1  0  0  0
  9 10  1  0  0  0
  9 31  1  0  0  0
 10 11  2  0  0  0
 10 12  1  0  0  0
 12 13  1  0  0  0
 12 14  1  0  0  0
 12 15  1  0  0  0
 16 17  1  0  0  0
 16 21  2  0  0  0
 17 18  2  0  0  0
 17 32  1  0  0  0
 18 19  1  0  0  0
 18 33  1  0  0  0
 19 20  2  0  0  0
 19 22  1  0  0  0
 20 21  1  0  0  0
 20 34  1  0  0  0
 21 35  1  0  0  0
 23 24  2  0  0  0
 23 25  2  0  0  0
 23 26  1  0  0  0
 26 36  1  0  0  0
 26 37  1  0  0  0
 26 38  1  0  0  0
M  END
>  <Activity>
7

>  <set>
2

>  <Min_dist>
0.132353

>  <Avg_dist>
0.479315

$$$$
8-1V
  Cerius2 12110214513D 1   1.00000                          
 
 41 43  0  0  0  0  0  0  0  0999 V2000
   -3.0313   -1.2513   -0.0063 C   0  0  0  0  0  0
   -2.2515   -2.0813   -0.7907 C   0  0  0  0  0  0
   -0.8771   -1.9451   -0.7886 C   0  0  0  0  0  0
   -0.2785   -0.9733    0.0024 C   0  0  0  0  0  0
   -1.0643   -0.1414    0.7890 C   0  0  0  0  0  0
   -2.4381   -0.2827    0.7825 C   0  0  0  0  0  0
    1.1153   -0.8329    0.0072 N   0  0  0  0  0  0
    1.8064    0.3447    0.0353 C   0  0  0  0  0  0
    3.1373    0.0347    0.0296 C   0  0  0  0  0  0
    3.2528   -1.3554   -0.0027 C   0  0  0  0  0  0
    2.0510   -1.8751   -0.0100 N   0  0  0  0  0  0
    4.5455   -2.1298   -0.0198 C   0  0  0  0  0  0
    4.2675   -3.5005   -0.0518 F   0  0  0  0  0  0
    5.2853   -1.7773   -1.1536 F   0  0  0  0  0  0
    5.2837   -1.8304    1.1303 F   0  0  0  0  0  0
    1.2226    1.7036    0.0659 C   0  0  0  0  0  0
    1.7978    2.6955    0.8610 C   0  0  0  0  0  0
    1.2488    3.9610    0.8847 C   0  0  0  0  0  0
    0.1301    4.2474    0.1228 C   0  0  0  0  0  0
   -0.4449    3.2683   -0.6676 C   0  0  0  0  0  0
    0.0979    2.0004   -0.7046 C   0  0  0  0  0  0
   -0.4648    5.6316    0.1543 C   0  0  0  0  0  0
    0.1397    6.4332   -0.8626 O   0  0  0  0  0  0
   -4.7848   -1.4235   -0.0175 S   0  0  0  0  0  0
   -5.2985   -0.1713    0.4154 O   0  0  0  0  0  0
   -5.1022   -2.0622   -1.2465 O   0  0  0  0  0  0
   -5.1834   -2.5077    1.1691 N   0  0  0  0  0  0
   -2.7177   -2.8371   -1.4054 H   0  0  0  0  0  0
   -0.2686   -2.5938   -1.4011 H   0  0  0  0  0  0
   -0.6016    0.6151    1.4055 H   0  0  0  0  0  0
   -3.0499    0.3640    1.3940 H   0  0  0  0  0  0
    3.9546    0.7404    0.0465 H   0  0  0  0  0  0
    2.6707    2.4729    1.4568 H   0  0  0  0  0  0
    1.6931    4.7297    1.4997 H   0  0  0  0  0  0
   -1.3181    3.4981   -1.2602 H   0  0  0  0  0  0
   -0.3517    1.2370   -1.3223 H   0  0  0  0  0  0
   -1.5386    5.5696   -0.0224 H   0  0  0  0  0  0
   -0.2825    6.0834    1.1294 H   0  0  0  0  0  0
   -0.2682    7.3083   -0.8081 H   0  0  0  0  0  0
   -6.1128   -2.7390    1.3224 H   0  0  0  0  0  0
   -4.4874   -2.9116    1.7107 H   0  0  0  0  0  0
  1  2  1  0  0  0
  1  6  2  0  0  0
  1 24  1  0  0  0
  2  3  2  0  0  0
  2 28  1  0  0  0
  3  4  1  0  0  0
  3 29  1  0  0  0
  4  5  2  0  0  0
  4  7  1  0  0  0
  5  6  1  0  0  0
  5 30  1  0  0  0
  6 31  1  0  0  0
  7  8  1  0  0  0
  7 11  1  0  0  0
  8  9  2  0  0  0
  8 16  1  0  0  0
  9 10  1  0  0  0
  9 32  1  0  0  0
 10 11  2  0  0  0
 10 12  1  0  0  0
 12 13  1  0  0  0
 12 14  1  0  0  0
 12 15  1  0  0  0
 16 17  1  0  0  0
 16 21  2  0  0  0
 17 18  2  0  0  0
 17 33  1  0  0  0
 18 19  1  0  0  0
 18 34  1  0  0  0
 19 20  2  0  0  0
 19 22  1  0  0  0
 20 21  1  0  0  0
 20 35  1  0  0  0
 21 36  1  0  0  0
 22 23  1  0  0  0
 22 37  1  0  0  0
 22 38  1  0  0  0
 23 39  1  0  0  0
 24 25  2  0  0  0
 24 26  2  0  0  0
 24 27  1  0  0  0
 27 40  1  0  0  0
 27 41  1  0  0  0
M  END
>  <Activity>
4.03012

>  <set>
2

>  <Min_dist>
0.046154

>  <Avg_dist>
0.507134

$$$$
8-2C
  Cerius2 12110214513D 1   1.00000                          
 
 38 40  0  0  0  0  0  0  0  0999 V2000
   -2.8631   -1.0397    0.0123 C   0  0  0  0  0  0
   -2.1377   -1.9872   -0.6864 C   0  0  0  0  0  0
   -0.7572   -1.9683   -0.6484 C   0  0  0  0  0  0
   -0.0978   -0.9963    0.0925 C   0  0  0  0  0  0
   -0.8291   -0.0462    0.7930 C   0  0  0  0  0  0
   -2.2094   -0.0705    0.7510 C   0  0  0  0  0  0
    1.3022   -0.9747    0.1334 N   0  0  0  0  0  0
    2.0921    0.1400    0.1024 C   0  0  0  0  0  0
    3.3999   -0.2886    0.1627 C   0  0  0  0  0  0
    3.3867   -1.6816    0.2307 C   0  0  0  0  0  0
    2.1431   -2.0912    0.2196 N   0  0  0  0  0  0
    4.6026   -2.5684    0.3107 C   0  0  0  0  0  0
    4.3245   -3.7970   -0.2979 F   0  0  0  0  0  0
    5.6726   -1.9532   -0.3480 F   0  0  0  0  0  0
    1.6304    1.5411    0.0190 C   0  0  0  0  0  0
    2.2723    2.5335    0.7642 C   0  0  0  0  0  0
    1.8446    3.8337    0.6869 C   0  0  0  0  0  0
    0.7658    4.1666   -0.1379 C   0  0  0  0  0  0
    0.1238    3.1732   -0.8834 C   0  0  0  0  0  0
    0.5557    1.8741   -0.8094 C   0  0  0  0  0  0
    0.3183    5.5245   -0.2187 C   0  0  0  0  0  0
   -0.0367    6.6017   -0.2829 N   0  0  0  0  0  0
   -4.6240   -1.0628   -0.0446 S   0  0  0  0  0  0
   -5.0383    0.2564    0.2830 O   0  0  0  0  0  0
   -4.9627   -1.7592   -1.2361 O   0  0  0  0  0  0
   -5.1471   -2.0210    1.2006 N   0  0  0  0  0  0
   -2.6512   -2.7431   -1.2621 H   0  0  0  0  0  0
   -0.1912   -2.7088   -1.1940 H   0  0  0  0  0  0
   -0.3191    0.7107    1.3704 H   0  0  0  0  0  0
   -2.7787    0.6681    1.2956 H   0  0  0  0  0  0
    4.2775    0.3408    0.1578 H   0  0  0  0  0  0
    4.8649   -2.7318    1.3560 H   0  0  0  0  0  0
    3.1054    2.2761    1.4016 H   0  0  0  0  0  0
    2.3406    4.6006    1.2632 H   0  0  0  0  0  0
   -0.7095    3.4298   -1.5207 H   0  0  0  0  0  0
    0.0601    1.1067   -1.3855 H   0  0  0  0  0  0
   -6.0969   -2.1609    1.3390 H   0  0  0  0  0  0
   -4.5037   -2.4423    1.7917 H   0  0  0  0  0  0
  1  2  1  0  0  0
  1  6  2  0  0  0
  1 23  1  0  0  0
  2  3  2  0  0  0
  2 27  1  0  0  0
  3  4  1  0  0  0
  3 28  1  0  0  0
  4  5  2  0  0  0
  4  7  1  0  0  0
  5  6  1  0  0  0
  5 29  1  0  0  0
  6 30  1  0  0  0
  7  8  1  0  0  0
  7 11  1  0  0  0
  8  9  2  0  0  0
  8 15  1  0  0  0
  9 10  1  0  0  0
  9 31  1  0  0  0
 10 11  2  0  0  0
 10 12  1  0  0  0
 12 13  1  0  0  0
 12 14  1  0  0  0
 12 32  1  0  0  0
 15 16  1  0  0  0
 15 20  2  0  0  0
 16 17  2  0  0  0
 16 33  1  0  0  0
 17 18  1  0  0  0
 17 34  1  0  0  0
 18 19  2  0  0  0
 18 21  1  0  0  0
 19 20  1  0  0  0
 19 35  1  0  0  0
 20 36  1  0  0  0
 21 22  3  0  0  0
 23 24  2  0  0  0
 23 25  2  0  0  0
 23 26  1  0  0  0
 26 37  1  0  0  0
 26 38  1  0  0  0
M  END
>  <Activity>
4.52724

>  <set>
2

>  <Min_dist>
0.088235

>  <Avg_dist>
0.526371

$$$$
8-8A
  Cerius2 12110214513D 1   1.00000                          
 
 37 39  0  0  0  0  0  0  0  0999 V2000
   -2.4218   -0.3221    0.0096 C   0  0  0  0  0  0
   -1.9563   -1.4080   -0.7090 C   0  0  0  0  0  0
   -0.6095   -1.7140   -0.7058 C   0  0  0  0  0  0
    0.2774   -0.9300    0.0201 C   0  0  0  0  0  0
   -0.1931    0.1597    0.7408 C   0  0  0  0  0  0
   -1.5411    0.4606    0.7335 C   0  0  0  0  0  0
    1.6439   -1.2381    0.0258 N   0  0  0  0  0  0
    2.6724   -0.3408   -0.0228 C   0  0  0  0  0  0
    3.8367   -1.0559    0.0032 C   0  0  0  0  0  0
    3.5060   -2.4098    0.0688 C   0  0  0  0  0  0
    2.2015   -2.5216    0.0885 N   0  0  0  0  0  0
    4.4869   -3.5529    0.1157 C   0  0  0  0  0  0
    2.5490    1.1317   -0.0915 C   0  0  0  0  0  0
    3.4202    1.9424    0.6369 C   0  0  0  0  0  0
    3.3001    3.3152    0.5682 C   0  0  0  0  0  0
    2.3184    3.8881   -0.2204 C   0  0  0  0  0  0
    1.4515    3.0897   -0.9451 C   0  0  0  0  0  0
    1.5647    1.7158   -0.8895 C   0  0  0  0  0  0
   -4.1397    0.0694   -0.0030 S   0  0  0  0  0  0
   -4.2244    1.4464    0.3376 O   0  0  0  0  0  0
   -4.6610   -0.5186   -1.1870 O   0  0  0  0  0  0
   -4.8432   -0.7489    1.2531 N   0  0  0  0  0  0
   -2.6467   -2.0175   -1.2731 H   0  0  0  0  0  0
   -0.2466   -2.5624   -1.2670 H   0  0  0  0  0  0
    0.4942    0.7712    1.3066 H   0  0  0  0  0  0
   -1.9077    1.3080    1.2938 H   0  0  0  0  0  0
    4.8354   -0.6458   -0.0227 H   0  0  0  0  0  0
    4.7304   -3.7804    1.1535 H   0  0  0  0  0  0
    4.0444   -4.4309   -0.3547 H   0  0  0  0  0  0
    5.3956   -3.2740   -0.4179 H   0  0  0  0  0  0
    4.1865    1.4964    1.2534 H   0  0  0  0  0  0
    3.9738    3.9439    1.1315 H   0  0  0  0  0  0
    2.2281    4.9632   -0.2703 H   0  0  0  0  0  0
    0.6871    3.5430   -1.5589 H   0  0  0  0  0  0
    0.8876    1.0936   -1.4559 H   0  0  0  0  0  0
   -5.7957   -0.6629    1.4151 H   0  0  0  0  0  0
   -4.3027   -1.3142    1.8269 H   0  0  0  0  0  0
  1  2  1  0  0  0
  1  6  2  0  0  0
  1 19  1  0  0  0
  2  3  2  0  0  0
  2 23  1  0  0  0
  3  4  1  0  0  0
  3 24  1  0  0  0
  4  5  2  0  0  0
  4  7  1  0  0  0
  5  6  1  0  0  0
  5 25  1  0  0  0
  6 26  1  0  0  0
  7  8  1  0  0  0
  7 11  1  0  0  0
  8  9  2  0  0  0
  8 13  1  0  0  0
  9 10  1  0  0  0
  9 27  1  0  0  0
 10 11  2  0  0  0
 10 12  1  0  0  0
 12 28  1  0  0  0
 12 29  1  0  0  0
 12 30  1  0  0  0
 13 14  1  0  0  0
 13 18  2  0  0  0
 14 15  2  0  0  0
 14 31  1  0  0  0
 15 16  1  0  0  0
 15 32  1  0  0  0
 16 17  2  0  0  0
 16 33  1  0  0  0
 17 18  1  0  0  0
 17 34  1  0  0  0
 18 35  1  0  0  0
 19 20  2  0  0  0
 19 21  2  0  0  0
 19 22  1  0  0  0
 22 36  1  0  0  0
 22 37  1  0  0  0
M  END
>  <Activity>
4.20204

>  <set>
2

>  <Min_dist>
0.114754

>  <Avg_dist>
0.521028

$$$$
8-20E
  Cerius2 12110214513D 1   1.00000                          
 
 36 38  0  0  0  0  0  0  0  0999 V2000
   -3.2596   -0.9695    0.0025 C   0  0  0  0  0  0
   -2.6429   -1.9555   -0.7457 C   0  0  0  0  0  0
   -1.2661   -2.0643   -0.7465 C   0  0  0  0  0  0
   -0.5009   -1.1822    0.0053 C   0  0  0  0  0  0
   -1.1234   -0.1931    0.7557 C   0  0  0  0  0  0
   -2.5005   -0.0897    0.7522 C   0  0  0  0  0  0
    0.8951   -1.2901    0.0071 N   0  0  0  0  0  0
    1.7636   -0.2341   -0.0121 C   0  0  0  0  0  0
    3.0258   -0.7601   -0.0028 C   0  0  0  0  0  0
    2.8489   -2.1629    0.0226 C   0  0  0  0  0  0
    1.5487   -2.3956    0.0325 N   0  0  0  0  0  0
    3.9171   -3.1770    0.0408 C   0  0  0  0  0  0
    5.0901   -2.8299    0.0344 O   0  0  0  0  0  0
    3.6312   -4.3662    0.0623 O   0  0  0  0  0  0
    4.5278    0.1102   -0.0195 Cl  0  0  0  0  0  0
    1.4064    1.2012   -0.0387 C   0  0  0  0  0  0
    1.8226    2.0456    0.9911 C   0  0  0  0  0  0
    1.4869    3.3833    0.9607 C   0  0  0  0  0  0
    0.7382    3.8884   -0.0888 C   0  0  0  0  0  0
    0.3221    3.0550   -1.1134 C   0  0  0  0  0  0
    0.6571    1.7169   -1.0967 C   0  0  0  0  0  0
    0.3192    5.5727   -0.1201 Cl  0  0  0  0  0  0
   -5.0160   -0.8295   -0.0051 S   0  0  0  0  0  0
   -5.2981    0.5103    0.3751 O   0  0  0  0  0  0
   -5.4477   -1.4515   -1.2076 O   0  0  0  0  0  0
   -5.5935   -1.7771    1.2241 N   0  0  0  0  0  0
   -3.2385   -2.6414   -1.3299 H   0  0  0  0  0  0
   -0.7851   -2.8348   -1.3308 H   0  0  0  0  0  0
   -0.5311    0.4942    1.3416 H   0  0  0  0  0  0
   -2.9852    0.6793    1.3354 H   0  0  0  0  0  0
    2.4060    1.6526    1.8106 H   0  0  0  0  0  0
    1.8085    4.0379    1.7573 H   0  0  0  0  0  0
   -0.2619    3.4543   -1.9293 H   0  0  0  0  0  0
    0.3320    1.0678   -1.8963 H   0  0  0  0  0  0
   -6.5484   -1.8340    1.3850 H   0  0  0  0  0  0
   -4.9769   -2.2752    1.7832 H   0  0  0  0  0  0
  1  2  1  0  0  0
  1  6  2  0  0  0
  1 23  1  0  0  0
  2  3  2  0  0  0
  2 27  1  0  0  0
  3  4  1  0  0  0
  3 28  1  0  0  0
  4  5  2  0  0  0
  4  7  1  0  0  0
  5  6  1  0  0  0
  5 29  1  0  0  0
  6 30  1  0  0  0
  7  8  1  0  0  0
  7 11  1  0  0  0
  8  9  2  0  0  0
  8 16  1  0  0  0
  9 10  1  0  0  0
  9 15  1  0  0  0
 10 11  2  0  0  0
 10 12  1  0  0  0
 12 13  2  0  0  0
 12 14  1  0  0  0
 16 17  1  0  0  0
 16 21  2  0  0  0
 17 18  2  0  0  0
 17 31  1  0  0  0
 18 19  1  0  0  0
 18 32  1  0  0  0
 19 20  2  0  0  0
 19 22  1  0  0  0
 20 21  1  0  0  0
 20 33  1  0  0  0
 21 34  1  0  0  0
 23 24  2  0  0  0
 23 25  2  0  0  0
 23 26  1  0  0  0
 26 35  1  0  0  0
 26 36  1  0  0  0
M  END
>  <Activity>
4.1549

>  <set>
2

>  <Min_dist>
0.1

>  <Avg_dist>
0.572935

$$$$
8-22C
  Cerius2 12110214513D 1   1.00000                          
 
 37 39  0  0  0  0  0  0  0  0999 V2000
   -2.4873   -0.2532    0.0078 C   0  0  0  0  0  0
   -2.1130   -1.3833   -0.6957 C   0  0  0  0  0  0
   -0.7974   -1.8033   -0.6814 C   0  0  0  0  0  0
    0.1500   -1.0894    0.0406 C   0  0  0  0  0  0
   -0.2290    0.0451    0.7461 C   0  0  0  0  0  0
   -1.5462    0.4599    0.7278 C   0  0  0  0  0  0
    1.4851   -1.5130    0.0575 N   0  0  0  0  0  0
    2.5867   -0.7076    0.0045 C   0  0  0  0  0  0
    3.6854   -1.5192    0.0453 C   0  0  0  0  0  0
    3.2399   -2.8390    0.1244 C   0  0  0  0  0  0
    1.9306   -2.8386    0.1380 N   0  0  0  0  0  0
    5.1231   -1.0686    0.0104 C   0  0  0  0  0  0
    2.5900    0.7692   -0.0817 C   0  0  0  0  0  0
    3.2007    1.5279    0.9175 C   0  0  0  0  0  0
    3.2007    2.9049    0.8311 C   0  0  0  0  0  0
    2.5967    3.5335   -0.2432 C   0  0  0  0  0  0
    1.9895    2.7870   -1.2371 C   0  0  0  0  0  0
    1.9876    1.4091   -1.1653 C   0  0  0  0  0  0
   -4.1653    0.2835   -0.0190 S   0  0  0  0  0  0
   -4.1335    1.6666    0.3055 O   0  0  0  0  0  0
   -4.7295   -0.2717   -1.1991 O   0  0  0  0  0  0
   -4.9421   -0.4568    1.2424 N   0  0  0  0  0  0
   -2.8503   -1.9383   -1.2568 H   0  0  0  0  0  0
   -0.5057   -2.6861   -1.2308 H   0  0  0  0  0  0
    0.5054    0.6022    1.3088 H   0  0  0  0  0  0
   -1.8416    1.3421    1.2763 H   0  0  0  0  0  0
    3.8701   -3.7148    0.1713 H   0  0  0  0  0  0
    5.4758   -0.9002    1.0280 H   0  0  0  0  0  0
    5.7335   -1.8376   -0.4631 H   0  0  0  0  0  0
    5.1998   -0.1422   -0.5587 H   0  0  0  0  0  0
    3.6719    1.0383    1.7569 H   0  0  0  0  0  0
    3.6730    3.4933    1.6038 H   0  0  0  0  0  0
    2.5988    4.6117   -0.3059 H   0  0  0  0  0  0
    1.5197    3.2836   -2.0732 H   0  0  0  0  0  0
    1.5136    0.8274   -1.9421 H   0  0  0  0  0  0
   -5.8845   -0.2878    1.3979 H   0  0  0  0  0  0
   -4.4546   -1.0593    1.8256 H   0  0  0  0  0  0
  1  2  1  0  0  0
  1  6  2  0  0  0
  1 19  1  0  0  0
  2  3  2  0  0  0
  2 23  1  0  0  0
  3  4  1  0  0  0
  3 24  1  0  0  0
  4  5  2  0  0  0
  4  7  1  0  0  0
  5  6  1  0  0  0
  5 25  1  0  0  0
  6 26  1  0  0  0
  7  8  1  0  0  0
  7 11  1  0  0  0
  8  9  2  0  0  0
  8 13  1  0  0  0
  9 10  1  0  0  0
  9 12  1  0  0  0
 10 11  2  0  0  0
 10 27  1  0  0  0
 12 28  1  0  0  0
 12 29  1  0  0  0
 12 30  1  0  0  0
 13 14  1  0  0  0
 13 18  2  0  0  0
 14 15  2  0  0  0
 14 31  1  0  0  0
 15 16  1  0  0  0
 15 32  1  0  0  0
 16 17  2  0  0  0
 16 33  1  0  0  0
 17 18  1  0  0  0
 17 34  1  0  0  0
 18 35  1  0  0  0
 19 20  2  0  0  0
 19 21  2  0  0  0
 19 22  1  0  0  0
 22 36  1  0  0  0
 22 37  1  0  0  0
M  END
>  <Activity>
4.32698

>  <set>
2

>  <Min_dist>
0.212121

>  <Avg_dist>
0.514737

$$$$
8-23
  Cerius2 12110214513D 1   1.00000                          
 
 36 38  0  0  0  0  0  0  0  0999 V2000
   -2.5002   -0.2547    0.0076 C   0  0  0  0  0  0
   -2.1225   -1.3830   -0.6971 C   0  0  0  0  0  0
   -0.8057   -1.7991   -0.6829 C   0  0  0  0  0  0
    0.1396   -1.0829    0.0395 C   0  0  0  0  0  0
   -0.2428    0.0500    0.7457 C   0  0  0  0  0  0
   -1.5613    0.4607    0.7280 C   0  0  0  0  0  0
    1.4758   -1.5026    0.0562 N   0  0  0  0  0  0
    2.5784   -0.6898    0.0035 C   0  0  0  0  0  0
    3.6880   -1.5112    0.0450 C   0  0  0  0  0  0
    3.2326   -2.8330    0.1237 C   0  0  0  0  0  0
    1.9237   -2.8268    0.1359 N   0  0  0  0  0  0
    5.0285   -1.0964    0.0136 N   0  0  0  0  0  0
    2.5796    0.7852   -0.0821 C   0  0  0  0  0  0
    3.1891    1.5451    0.9180 C   0  0  0  0  0  0
    3.1865    2.9219    0.8320 C   0  0  0  0  0  0
    2.5814    3.5499   -0.2422 C   0  0  0  0  0  0
    1.9755    2.8029   -1.2368 C   0  0  0  0  0  0
    1.9762    1.4252   -1.1663 C   0  0  0  0  0  0
   -4.1799    0.2768   -0.0185 S   0  0  0  0  0  0
   -4.1524    1.6597    0.3072 O   0  0  0  0  0  0
   -4.7425   -0.2792   -1.1990 O   0  0  0  0  0  0
   -4.9542   -0.4670    1.2424 N   0  0  0  0  0  0
   -2.8582   -1.9396   -1.2587 H   0  0  0  0  0  0
   -0.5115   -2.6808   -1.2329 H   0  0  0  0  0  0
    0.4900    0.6089    1.3088 H   0  0  0  0  0  0
   -1.8592    1.3419    1.2767 H   0  0  0  0  0  0
    3.8581   -3.7122    0.1711 H   0  0  0  0  0  0
    5.7406   -1.7541    0.0478 H   0  0  0  0  0  0
    5.2427   -0.1521   -0.0424 H   0  0  0  0  0  0
    3.6612    1.0561    1.7574 H   0  0  0  0  0  0
    3.6577    3.5109    1.6049 H   0  0  0  0  0  0
    2.5816    4.6281   -0.3043 H   0  0  0  0  0  0
    1.5046    3.2994   -2.0724 H   0  0  0  0  0  0
    1.5030    0.8432   -1.9433 H   0  0  0  0  0  0
   -5.8971   -0.3011    1.3982 H   0  0  0  0  0  0
   -4.4647   -1.0686    1.8250 H   0  0  0  0  0  0
  1  2  1  0  0  0
  1  6  2  0  0  0
  1 19  1  0  0  0
  2  3  2  0  0  0
  2 23  1  0  0  0
  3  4  1  0  0  0
  3 24  1  0  0  0
  4  5  2  0  0  0
  4  7  1  0  0  0
  5  6  1  0  0  0
  5 25  1  0  0  0
  6 26  1  0  0  0
  7  8  1  0  0  0
  7 11  1  0  0  0
  8  9  2  0  0  0
  8 13  1  0  0  0
  9 10  1  0  0  0
  9 12  1  0  0  0
 10 11  2  0  0  0
 10 27  1  0  0  0
 12 28  1  0  0  0
 12 29  1  0  0  0
 13 14  1  0  0  0
 13 18  2  0  0  0
 14 15  2  0  0  0
 14 30  1  0  0  0
 15 16  1  0  0  0
 15 31  1  0  0  0
 16 17  2  0  0  0
 16 32  1  0  0  0
 17 18  1  0  0  0
 17 33  1  0  0  0
 18 34  1  0  0  0
 19 20  2  0  0  0
 19 21  2  0  0  0
 19 22  1  0  0  0
 22 35  1  0  0  0
 22 36  1  0  0  0
M  END
>  <Activity>
4.52724

>  <set>
2

>  <Min_dist>
0.246377

>  <Avg_dist>
0.547066

$$$$
8-38
  Cerius2 12110214513D 1   1.00000                          
 
 36 38  0  0  0  0  0  0  0  0999 V2000
    1.9685   -3.5336    0.0509 C   0  0  0  0  0  0
    0.8143   -3.7263    0.7963 C   0  0  0  0  0  0
   -0.1828   -2.7715    0.7848 C   0  0  0  0  0  0
   -0.0301   -1.6177    0.0273 C   0  0  0  0  0  0
    1.1255   -1.4252   -0.7182 C   0  0  0  0  0  0
    2.1217   -2.3810   -0.7062 C   0  0  0  0  0  0
   -1.0424   -0.6480    0.0148 N   0  0  0  0  0  0
   -0.8616    0.7053    0.0272 C   0  0  0  0  0  0
   -2.1012    1.2809    0.0069 C   0  0  0  0  0  0
   -3.0481    0.2568   -0.0181 C   0  0  0  0  0  0
   -2.4211   -0.8930   -0.0188 N   0  0  0  0  0  0
   -4.5434    0.4427   -0.0454 C   0  0  0  0  0  0
   -5.1685   -0.8087   -0.0659 F   0  0  0  0  0  0
   -4.9466    1.1468    1.0942 F   0  0  0  0  0  0
   -4.9030    1.1624   -1.1899 F   0  0  0  0  0  0
    0.4350    1.4166    0.0574 C   0  0  0  0  0  0
    0.6177    2.5723   -0.7029 C   0  0  0  0  0  0
    1.8290    3.2316   -0.6704 C   0  0  0  0  0  0
    2.8624    2.7485    0.1143 C   0  0  0  0  0  0
    2.6870    1.6020    0.8705 C   0  0  0  0  0  0
    1.4781    0.9377    0.8507 C   0  0  0  0  0  0
    4.3842    3.5833    0.1498 Cl  0  0  0  0  0  0
    2.9522   -4.4717    0.0668 O   0  0  0  0  0  0
    3.9938   -3.9925   -0.7862 C   0  0  0  0  0  0
    0.6956   -4.6237    1.3854 H   0  0  0  0  0  0
   -1.0815   -2.9220    1.3645 H   0  0  0  0  0  0
    1.2447   -0.5282   -1.3078 H   0  0  0  0  0  0
    3.0205   -2.2313   -1.2860 H   0  0  0  0  0  0
   -2.3105    2.3404    0.0102 H   0  0  0  0  0  0
   -0.1874    2.9496   -1.3159 H   0  0  0  0  0  0
    1.9716    4.1262   -1.2585 H   0  0  0  0  0  0
    3.4967    1.2295    1.4805 H   0  0  0  0  0  0
    1.3423    0.0437    1.4412 H   0  0  0  0  0  0
    4.8092   -4.7156   -0.8053 H   0  0  0  0  0  0
    3.6040   -3.8577   -1.7951 H   0  0  0  0  0  0
    4.3626   -3.0388   -0.4087 H   0  0  0  0  0  0
  1  2  1  0  0  0
  1  6  2  0  0  0
  1 23  1  0  0  0
  2  3  2  0  0  0
  2 25  1  0  0  0
  3  4  1  0  0  0
  3 26  1  0  0  0
  4  5  2  0  0  0
  4  7  1  0  0  0
  5  6  1  0  0  0
  5 27  1  0  0  0
  6 28  1  0  0  0
  7  8  1  0  0  0
  7 11  1  0  0  0
  8  9  2  0  0  0
  8 16  1  0  0  0
  9 10  1  0  0  0
  9 29  1  0  0  0
 10 11  2  0  0  0
 10 12  1  0  0  0
 12 13  1  0  0  0
 12 14  1  0  0  0
 12 15  1  0  0  0
 16 17  1  0  0  0
 16 21  2  0  0  0
 17 18  2  0  0  0
 17 30  1  0  0  0
 18 19  1  0  0  0
 18 31  1  0  0  0
 19 20  2  0  0  0
 19 22  1  0  0  0
 20 21  1  0  0  0
 20 32  1  0  0  0
 21 33  1  0  0  0
 23 24  1  0  0  0
 24 34  1  0  0  0
 24 35  1  0  0  0
 24 36  1  0  0  0
M  END
>  <Activity>
4.12552

>  <set>
2

>  <Min_dist>
0.065574

>  <Avg_dist>
0.552521

$$$$
8-1AJ
  Cerius2 12110214513D 1   1.00000                          
 
 36 38  0  0  0  0  0  0  0  0999 V2000
   -3.0653   -0.7045    0.0023 C   0  0  0  0  0  0
   -2.3063   -1.5205   -0.8163 C   0  0  0  0  0  0
   -0.9297   -1.4083   -0.8208 C   0  0  0  0  0  0
   -0.3080   -0.4748   -0.0021 C   0  0  0  0  0  0
   -1.0730    0.3432    0.8188 C   0  0  0  0  0  0
   -2.4492    0.2261    0.8188 C   0  0  0  0  0  0
    1.0880   -0.3588   -0.0040 N   0  0  0  0  0  0
    1.7996    0.8061   -0.0459 C   0  0  0  0  0  0
    3.1249    0.4730   -0.0313 C   0  0  0  0  0  0
    3.2160   -0.9183    0.0203 C   0  0  0  0  0  0
    2.0052   -1.4164    0.0428 N   0  0  0  0  0  0
    4.4948   -1.7149    0.0520 C   0  0  0  0  0  0
    4.1928   -3.0800    0.1020 F   0  0  0  0  0  0
    5.2414   -1.4443   -1.0998 F   0  0  0  0  0  0
    5.2375   -1.3598    1.1832 F   0  0  0  0  0  0
    1.2399    2.1744   -0.0983 C   0  0  0  0  0  0
    1.9736    3.2598    0.3817 C   0  0  0  0  0  0
    1.4755    4.4780    0.3352 N   0  0  0  0  0  0
    0.2774    4.7222   -0.1603 C   0  0  0  0  0  0
   -0.5120    3.7005   -0.6558 C   0  0  0  0  0  0
   -0.0318    2.4025   -0.6351 C   0  0  0  0  0  0
   -4.8216   -0.8458   -0.0002 S   0  0  0  0  0  0
   -5.3099    0.3996    0.4794 O   0  0  0  0  0  0
   -5.1596   -1.4364   -1.2477 O   0  0  0  0  0  0
   -5.2301   -1.9630    1.1519 N   0  0  0  0  0  0
   -2.7904   -2.2466   -1.4526 H   0  0  0  0  0  0
   -0.3375   -2.0461   -1.4602 H   0  0  0  0  0  0
   -0.5924    1.0702    1.4567 H   0  0  0  0  0  0
   -3.0447    0.8620    1.4570 H   0  0  0  0  0  0
    3.9545    1.1640   -0.0558 H   0  0  0  0  0  0
    2.9583    3.0995    0.7951 H   0  0  0  0  0  0
   -0.0931    5.7365   -0.1789 H   0  0  0  0  0  0
   -1.4911    3.9138   -1.0587 H   0  0  0  0  0  0
   -0.6271    1.5857   -1.0156 H   0  0  0  0  0  0
   -6.1623   -2.1832    1.3049 H   0  0  0  0  0  0
   -4.5372   -2.3971    1.6737 H   0  0  0  0  0  0
  1  2  1  0  0  0
  1  6  2  0  0  0
  1 22  1  0  0  0
  2  3  2  0  0  0
  2 26  1  0  0  0
  3  4  1  0  0  0
  3 27  1  0  0  0
  4  5  2  0  0  0
  4  7  1  0  0  0
  5  6  1  0  0  0
  5 28  1  0  0  0
  6 29  1  0  0  0
  7  8  1  0  0  0
  7 11  1  0  0  0
  8  9  2  0  0  0
  8 16  1  0  0  0
  9 10  1  0  0  0
  9 30  1  0  0  0
 10 11  2  0  0  0
 10 12  1  0  0  0
 12 13  1  0  0  0
 12 14  1  0  0  0
 12 15  1  0  0  0
 16 17  1  0  0  0
 16 21  2  0  0  0
 17 18  2  0  0  0
 17 31  1  0  0  0
 18 19  1  0  0  0
 19 20  2  0  0  0
 19 32  1  0  0  0
 20 21  1  0  0  0
 20 33  1  0  0  0
 21 34  1  0  0  0
 22 23  2  0  0  0
 22 24  2  0  0  0
 22 25  1  0  0  0
 25 35  1  0  0  0
 25 36  1  0  0  0
M  END
>  <Activity>
4.34679

>  <set>
2

>  <Min_dist>
0.186667

>  <Avg_dist>
0.508904

$$$$
8-1AN
  Cerius2 12110214513D 1   1.00000                          
 
 40 43  0  0  0  0  0  0  0  0999 V2000
   -3.5546   -0.5537    0.1107 C   0  0  0  0  0  0
   -3.0470   -1.6594   -0.5467 C   0  0  0  0  0  0
   -1.6816   -1.8527   -0.6229 C   0  0  0  0  0  0
   -0.8183   -0.9354   -0.0386 C   0  0  0  0  0  0
   -1.3311    0.1739    0.6208 C   0  0  0  0  0  0
   -2.6975    0.3616    0.6936 C   0  0  0  0  0  0
    0.5670   -1.1288   -0.1137 N   0  0  0  0  0  0
    1.5016   -0.1670   -0.3745 C   0  0  0  0  0  0
    2.7336   -0.7836   -0.3554 C   0  0  0  0  0  0
    2.5265   -2.1354   -0.0783 C   0  0  0  0  0  0
    1.2424   -2.3416    0.0709 N   0  0  0  0  0  0
    3.6033   -3.1834    0.0364 C   0  0  0  0  0  0
    3.0198   -4.4224    0.3222 F   0  0  0  0  0  0
    4.3045   -3.2657   -1.1713 F   0  0  0  0  0  0
    4.4853   -2.8351    1.0650 F   0  0  0  0  0  0
    1.2404    1.2644   -0.6295 C   0  0  0  0  0  0
    0.2911    1.6451   -1.5191 C   0  0  0  0  0  0
    0.3613    3.4251   -1.4664 S   0  0  0  0  0  0
    1.6504    3.6200   -0.2634 C   0  0  0  0  0  0
    1.9975    2.2975    0.0781 C   0  0  0  0  0  0
    3.0217    2.1382    1.0384 C   0  0  0  0  0  0
    3.6294    3.2207    1.5941 C   0  0  0  0  0  0
    3.2698    4.5142    1.2413 C   0  0  0  0  0  0
    2.2710    4.7110    0.3086 C   0  0  0  0  0  0
   -5.2970   -0.3069    0.1995 S   0  0  0  0  0  0
   -5.4787    1.0841    0.4265 O   0  0  0  0  0  0
   -5.8468   -1.0419   -0.8852 O   0  0  0  0  0  0
   -5.8345   -1.0609    1.5724 N   0  0  0  0  0  0
   -3.7190   -2.3727   -1.0006 H   0  0  0  0  0  0
   -1.2858   -2.7167   -1.1361 H   0  0  0  0  0  0
   -0.6622    0.8890    1.0766 H   0  0  0  0  0  0
   -3.0970    1.2241    1.2063 H   0  0  0  0  0  0
    3.6877   -0.3067   -0.5247 H   0  0  0  0  0  0
   -0.3539    1.0188   -2.1176 H   0  0  0  0  0  0
    3.3252    1.1451    1.3350 H   0  0  0  0  0  0
    4.4089    3.0706    2.3264 H   0  0  0  0  0  0
    3.7653    5.3599    1.6948 H   0  0  0  0  0  0
    1.9813    5.7120    0.0250 H   0  0  0  0  0  0
   -6.7770   -1.0386    1.8006 H   0  0  0  0  0  0
   -5.2069   -1.5249    2.1483 H   0  0  0  0  0  0
  1  2  1  0  0  0
  1  6  2  0  0  0
  1 25  1  0  0  0
  2  3  2  0  0  0
  2 29  1  0  0  0
  3  4  1  0  0  0
  3 30  1  0  0  0
  4  5  2  0  0  0
  4  7  1  0  0  0
  5  6  1  0  0  0
  5 31  1  0  0  0
  6 32  1  0  0  0
  7  8  1  0  0  0
  7 11  1  0  0  0
  8  9  2  0  0  0
  8 16  1  0  0  0
  9 10  1  0  0  0
  9 33  1  0  0  0
 10 11  2  0  0  0
 10 12  1  0  0  0
 12 13  1  0  0  0
 12 14  1  0  0  0
 12 15  1  0  0  0
 16 17  2  0  0  0
 16 20  1  0  0  0
 17 18  1  0  0  0
 17 34  1  0  0  0
 18 19  1  0  0  0
 19 20  2  0  0  0
 19 24  1  0  0  0
 20 21  1  0  0  0
 21 22  2  0  0  0
 21 35  1  0  0  0
 22 23  1  0  0  0
 22 36  1  0  0  0
 23 24  2  0  0  0
 23 37  1  0  0  0
 24 38  1  0  0  0
 25 26  2  0  0  0
 25 27  2  0  0  0
 25 28  1  0  0  0
 28 39  1  0  0  0
 28 40  1  0  0  0
M  END
>  <Activity>
6.45593

>  <set>
2

>  <Min_dist>
0.217949

>  <Avg_dist>
0.551243

$$$$
8-1AO
  Cerius2 12110214513D 1   1.00000                          
 
 40 43  0  0  0  0  0  0  0  0999 V2000
   -2.8897   -1.5096   -0.0293 C   0  0  0  0  0  0
   -2.0542   -2.3173   -0.7788 C   0  0  0  0  0  0
   -0.6904   -2.0995   -0.7700 C   0  0  0  0  0  0
   -0.1584   -1.0677   -0.0077 C   0  0  0  0  0  0
   -1.0002   -0.2581    0.7436 C   0  0  0  0  0  0
   -2.3631   -0.4814    0.7309 C   0  0  0  0  0  0
    1.2241   -0.8446    0.0038 N   0  0  0  0  0  0
    1.8446    0.3745   -0.0026 C   0  0  0  0  0  0
    3.2037    0.1365    0.0134 C   0  0  0  0  0  0
    3.3913   -1.2449    0.0295 C   0  0  0  0  0  0
    2.2195   -1.8293    0.0299 N   0  0  0  0  0  0
    4.7233   -1.9495    0.0499 C   0  0  0  0  0  0
    4.5187   -3.3334    0.0621 F   0  0  0  0  0  0
    5.4552   -1.5963   -1.0888 F   0  0  0  0  0  0
    5.4325   -1.5728    1.1955 F   0  0  0  0  0  0
    1.1867    1.6914   -0.0231 C   0  0  0  0  0  0
   -0.1463    1.8921   -0.0384 O   0  0  0  0  0  0
   -0.4340    3.2096   -0.0553 C   0  0  0  0  0  0
    0.7855    3.9105   -0.0507 C   0  0  0  0  0  0
    1.8310    2.8859   -0.0235 C   0  0  0  0  0  0
    0.7911    5.3065   -0.0655 C   0  0  0  0  0  0
   -0.3935    5.9886   -0.0845 C   0  0  0  0  0  0
   -1.5994    5.3022   -0.0886 C   0  0  0  0  0  0
   -1.6253    3.9235   -0.0750 C   0  0  0  0  0  0
   -4.6297   -1.7865   -0.0486 S   0  0  0  0  0  0
   -5.2212   -0.5534    0.3374 O   0  0  0  0  0  0
   -4.8963   -2.4837   -1.2577 O   0  0  0  0  0  0
   -4.9749   -2.8523    1.1709 N   0  0  0  0  0  0
   -2.4685   -3.1195   -1.3715 H   0  0  0  0  0  0
   -0.0383   -2.7311   -1.3550 H   0  0  0  0  0  0
   -0.5895    0.5448    1.3377 H   0  0  0  0  0  0
   -3.0183    0.1481    1.3146 H   0  0  0  0  0  0
    3.9819    0.8854    0.0134 H   0  0  0  0  0  0
    2.8987    3.0478   -0.0131 H   0  0  0  0  0  0
    1.7272    5.8451   -0.0616 H   0  0  0  0  0  0
   -0.3907    7.0685   -0.0959 H   0  0  0  0  0  0
   -2.5278    5.8537   -0.1033 H   0  0  0  0  0  0
   -2.5699    3.3999   -0.0788 H   0  0  0  0  0  0
   -5.8905   -3.1335    1.3246 H   0  0  0  0  0  0
   -4.2616   -3.1956    1.7315 H   0  0  0  0  0  0
  1  2  1  0  0  0
  1  6  2  0  0  0
  1 25  1  0  0  0
  2  3  2  0  0  0
  2 29  1  0  0  0
  3  4  1  0  0  0
  3 30  1  0  0  0
  4  5  2  0  0  0
  4  7  1  0  0  0
  5  6  1  0  0  0
  5 31  1  0  0  0
  6 32  1  0  0  0
  7  8  1  0  0  0
  7 11  1  0  0  0
  8  9  2  0  0  0
  8 16  1  0  0  0
  9 10  1  0  0  0
  9 33  1  0  0  0
 10 11  2  0  0  0
 10 12  1  0  0  0
 12 13  1  0  0  0
 12 14  1  0  0  0
 12 15  1  0  0  0
 16 17  1  0  0  0
 16 20  2  0  0  0
 17 18  1  0  0  0
 18 19  2  0  0  0
 18 24  1  0  0  0
 19 20  1  0  0  0
 19 21  1  0  0  0
 20 34  1  0  0  0
 21 22  2  0  0  0
 21 35  1  0  0  0
 22 23  1  0  0  0
 22 36  1  0  0  0
 23 24  2  0  0  0
 23 37  1  0  0  0
 24 38  1  0  0  0
 25 26  2  0  0  0
 25 27  2  0  0  0
 25 28  1  0  0  0
 28 39  1  0  0  0
 28 40  1  0  0  0
M  END
>  <Activity>
6.05061

>  <set>
2

>  <Min_dist>
0.125

>  <Avg_dist>
0.557919

$$$$
8-1AP
  Cerius2 12110214513D 1   1.00000                          
 
 41 43  0  0  0  0  0  0  0  0999 V2000
   -3.0608   -0.7595    0.0074 C   0  0  0  0  0  0
   -2.2933   -1.6109   -0.7661 C   0  0  0  0  0  0
   -0.9176   -1.4889   -0.7725 C   0  0  0  0  0  0
   -0.3052   -0.5099   -0.0012 C   0  0  0  0  0  0
   -1.0788    0.3436    0.7744 C   0  0  0  0  0  0
   -2.4540    0.2165    0.7765 C   0  0  0  0  0  0
    1.0897   -0.3838   -0.0052 N   0  0  0  0  0  0
    1.7933    0.7878   -0.0491 C   0  0  0  0  0  0
    3.1320    0.4565   -0.0350 C   0  0  0  0  0  0
    3.2235   -0.9340    0.0181 C   0  0  0  0  0  0
    2.0140   -1.4349    0.0411 N   0  0  0  0  0  0
    4.5034   -1.7290    0.0493 C   0  0  0  0  0  0
    4.2032   -3.0944    0.1012 F   0  0  0  0  0  0
    5.2484   -1.4587   -1.1035 F   0  0  0  0  0  0
    5.2468   -1.3717    1.1794 F   0  0  0  0  0  0
    1.2284    2.1465   -0.1019 C   0  0  0  0  0  0
    0.4646    2.4599   -1.1245 C   0  0  0  0  0  0
   -0.1687    3.8078   -1.3116 C   0  0  0  0  0  0
   -0.1606    4.5814    0.0084 C   0  0  0  0  0  0
    1.2565    4.5322    0.5928 C   0  0  0  0  0  0
    1.5535    3.0912    1.0182 C   0  0  0  0  0  0
   -4.8160   -0.9137    0.0073 S   0  0  0  0  0  0
   -5.3148    0.3510    0.4207 O   0  0  0  0  0  0
   -5.1458   -1.5702   -1.2091 O   0  0  0  0  0  0
   -5.2200   -1.9731    1.2142 N   0  0  0  0  0  0
   -2.7701   -2.3724   -1.3654 H   0  0  0  0  0  0
   -0.3187   -2.1544   -1.3765 H   0  0  0  0  0  0
   -0.6054    1.1058    1.3756 H   0  0  0  0  0  0
   -3.0562    0.8800    1.3795 H   0  0  0  0  0  0
    3.9603    1.1491   -0.0611 H   0  0  0  0  0  0
    0.2823    1.7038   -1.8738 H   0  0  0  0  0  0
    0.3889    4.3679   -2.0622 H   0  0  0  0  0  0
   -1.1972    3.6800   -1.6492 H   0  0  0  0  0  0
   -0.4462    5.6176   -0.1727 H   0  0  0  0  0  0
   -0.8607    4.1222    0.7063 H   0  0  0  0  0  0
    1.9753    4.8500   -0.1625 H   0  0  0  0  0  0
    1.3179    5.1892    1.4603 H   0  0  0  0  0  0
    0.9540    2.8421    1.8938 H   0  0  0  0  0  0
    2.6104    2.9988    1.2682 H   0  0  0  0  0  0
   -6.1511   -2.1921    1.3759 H   0  0  0  0  0  0
   -4.5256   -2.3747    1.7596 H   0  0  0  0  0  0
  1  2  1  0  0  0
  1  6  2  0  0  0
  1 22  1  0  0  0
  2  3  2  0  0  0
  2 26  1  0  0  0
  3  4  1  0  0  0
  3 27  1  0  0  0
  4  5  2  0  0  0
  4  7  1  0  0  0
  5  6  1  0  0  0
  5 28  1  0  0  0
  6 29  1  0  0  0
  7  8  1  0  0  0
  7 11  1  0  0  0
  8  9  2  0  0  0
  8 16  1  0  0  0
  9 10  1  0  0  0
  9 30  1  0  0  0
 10 11  2  0  0  0
 10 12  1  0  0  0
 12 13  1  0  0  0
 12 14  1  0  0  0
 12 15  1  0  0  0
 16 17  2  0  0  0
 16 21  1  0  0  0
 17 18  1  0  0  0
 17 31  1  0  0  0
 18 19  1  0  0  0
 18 32  1  0  0  0
 18 33  1  0  0  0
 19 20  1  0  0  0
 19 34  1  0  0  0
 19 35  1  0  0  0
 20 21  1  0  0  0
 20 36  1  0  0  0
 20 37  1  0  0  0
 21 38  1  0  0  0
 21 39  1  0  0  0
 22 23  2  0  0  0
 22 24  2  0  0  0
 22 25  1  0  0  0
 25 40  1  0  0  0
 25 41  1  0  0  0
M  END
>  <Activity>
7.07572

>  <set>
2

>  <Min_dist>
0.2

>  <Avg_dist>
0.545734

$$$$
8-1AQ
  Cerius2 12110214513D 1   1.00000                          
 
 44 47  0  0  0  0  0  0  0  0999 V2000
   -2.7126    1.6261   -0.0381 C   0  0  0  0  0  0
   -1.8635    2.2634    0.8479 C   0  0  0  0  0  0
   -0.5167    1.9577    0.8571 C   0  0  0  0  0  0
   -0.0155    1.0093   -0.0247 C   0  0  0  0  0  0
   -0.8707    0.3711   -0.9132 C   0  0  0  0  0  0
   -2.2166    0.6812   -0.9175 C   0  0  0  0  0  0
    1.3502    0.6973   -0.0182 N   0  0  0  0  0  0
    1.8905   -0.5563   -0.0591 C   0  0  0  0  0  0
    3.2494   -0.4137   -0.0352 C   0  0  0  0  0  0
    3.5356    0.9507    0.0212 C   0  0  0  0  0  0
    2.4074    1.6152    0.0253 N   0  0  0  0  0  0
    4.9139    1.5586    0.0637 C   0  0  0  0  0  0
    4.8074    2.9525    0.1157 F   0  0  0  0  0  0
    5.5911    1.0999    1.1987 F   0  0  0  0  0  0
    5.6228    1.1875   -1.0840 F   0  0  0  0  0  0
    1.1435   -1.8317   -0.1178 C   0  0  0  0  0  0
    1.7318   -2.9640   -0.6827 C   0  0  0  0  0  0
    1.0285   -4.1481   -0.7333 C   0  0  0  0  0  0
   -0.2601   -4.2212   -0.2266 C   0  0  0  0  0  0
   -0.8488   -3.1019    0.3347 C   0  0  0  0  0  0
   -0.1498   -1.9107    0.3960 C   0  0  0  0  0  0
   -2.2459   -3.4420    0.8086 C   0  0  0  0  0  0
   -2.2853   -4.9834    0.8763 C   0  0  0  0  0  0
   -1.2228   -5.3884   -0.1672 C   0  0  0  0  0  0
   -4.4315    2.0137   -0.0417 S   0  0  0  0  0  0
   -5.0796    0.8890   -0.6199 O   0  0  0  0  0  0
   -4.7086    2.5516    1.2441 O   0  0  0  0  0  0
   -4.6558    3.2601   -1.1087 N   0  0  0  0  0  0
   -2.2539    3.0013    1.5332 H   0  0  0  0  0  0
    0.1461    2.4560    1.5491 H   0  0  0  0  0  0
   -0.4838   -0.3668   -1.6005 H   0  0  0  0  0  0
   -2.8823    0.1852   -1.6083 H   0  0  0  0  0  0
    3.9733   -1.2149   -0.0559 H   0  0  0  0  0  0
    2.7349   -2.9124   -1.0795 H   0  0  0  0  0  0
    1.4837   -5.0245   -1.1705 H   0  0  0  0  0  0
   -0.6099   -1.0376    0.8347 H   0  0  0  0  0  0
   -2.4248   -3.0154    1.7956 H   0  0  0  0  0  0
   -2.9862   -3.0756    0.0975 H   0  0  0  0  0  0
   -2.0064   -5.3348    1.8697 H   0  0  0  0  0  0
   -3.2689   -5.3585    0.5934 H   0  0  0  0  0  0
   -1.6886   -5.5445   -1.1402 H   0  0  0  0  0  0
   -0.7030   -6.2914    0.1533 H   0  0  0  0  0  0
   -5.5446    3.6206   -1.2534 H   0  0  0  0  0  0
   -3.8984    3.6296   -1.5890 H   0  0  0  0  0  0
  1  2  1  0  0  0
  1  6  2  0  0  0
  1 25  1  0  0  0
  2  3  2  0  0  0
  2 29  1  0  0  0
  3  4  1  0  0  0
  3 30  1  0  0  0
  4  5  2  0  0  0
  4  7  1  0  0  0
  5  6  1  0  0  0
  5 31  1  0  0  0
  6 32  1  0  0  0
  7  8  1  0  0  0
  7 11  1  0  0  0
  8  9  2  0  0  0
  8 16  1  0  0  0
  9 10  1  0  0  0
  9 33  1  0  0  0
 10 11  2  0  0  0
 10 12  1  0  0  0
 12 13  1  0  0  0
 12 14  1  0  0  0
 12 15  1  0  0  0
 16 17  1  0  0  0
 16 21  2  0  0  0
 17 18  2  0  0  0
 17 34  1  0  0  0
 18 19  1  0  0  0
 18 35  1  0  0  0
 19 20  2  0  0  0
 19 24  1  0  0  0
 20 21  1  0  0  0
 20 22  1  0  0  0
 21 36  1  0  0  0
 22 23  1  0  0  0
 22 37  1  0  0  0
 22 38  1  0  0  0
 23 24  1  0  0  0
 23 39  1  0  0  0
 23 40  1  0  0  0
 24 41  1  0  0  0
 24 42  1  0  0  0
 25 26  2  0  0  0
 25 27  2  0  0  0
 25 28  1  0  0  0
 28 43  1  0  0  0
 28 44  1  0  0  0
M  END
>  <Activity>
7.50864

>  <set>
2

>  <Min_dist>
0.121951

>  <Avg_dist>
0.538167

$$$$
8-2N
  Cerius2 12110214513D 1   1.00000                          
 
 40 43  0  0  0  0  0  0  0  0999 V2000
   -2.6705    1.4152   -0.0466 C   0  0  0  0  0  0
   -1.8814    2.1771    0.7953 C   0  0  0  0  0  0
   -0.5070    2.0438    0.7643 C   0  0  0  0  0  0
    0.0821    1.1435   -0.1136 C   0  0  0  0  0  0
   -0.7131    0.3798   -0.9578 C   0  0  0  0  0  0
   -2.0869    0.5177   -0.9219 C   0  0  0  0  0  0
    1.4758    1.0063   -0.1478 N   0  0  0  0  0  0
    2.1691   -0.1699   -0.1802 C   0  0  0  0  0  0
    3.4992    0.1434   -0.2067 C   0  0  0  0  0  0
    3.6116    1.5341   -0.1900 C   0  0  0  0  0  0
    2.4089    2.0509   -0.1610 N   0  0  0  0  0  0
    4.9023    2.3118   -0.2087 C   0  0  0  0  0  0
    4.7277    3.5216    0.4718 F   0  0  0  0  0  0
    5.9058    1.5650    0.4178 F   0  0  0  0  0  0
    1.5884   -1.5301   -0.1856 C   0  0  0  0  0  0
    2.2986   -2.5915   -0.7480 C   0  0  0  0  0  0
    1.7554   -3.8594   -0.7527 C   0  0  0  0  0  0
    0.5035   -4.0844   -0.1995 C   0  0  0  0  0  0
   -0.2108   -3.0281    0.3643 C   0  0  0  0  0  0
    0.3316   -1.7562    0.3767 C   0  0  0  0  0  0
   -1.4001   -3.5073    0.8334 O   0  0  0  0  0  0
   -1.2322   -4.9347    0.9194 C   0  0  0  0  0  0
   -0.2397   -5.2237   -0.0828 O   0  0  0  0  0  0
   -4.4239    1.5829    0.0011 S   0  0  0  0  0  0
   -4.9423    0.3709   -0.5296 O   0  0  0  0  0  0
   -4.7261    2.1148    1.2837 O   0  0  0  0  0  0
   -4.8381    2.7630   -1.0843 N   0  0  0  0  0  0
   -2.3401    2.8774    1.4776 H   0  0  0  0  0  0
    0.1088    2.6395    1.4218 H   0  0  0  0  0  0
   -0.2578   -0.3210   -1.6419 H   0  0  0  0  0  0
   -2.7059   -0.0760   -1.5782 H   0  0  0  0  0  0
    4.3178   -0.5604   -0.2351 H   0  0  0  0  0  0
    5.1901    2.5135   -1.2405 H   0  0  0  0  0  0
    3.2735   -2.4202   -1.1800 H   0  0  0  0  0  0
    2.3065   -4.6795   -1.1887 H   0  0  0  0  0  0
   -0.2207   -0.9371    0.8132 H   0  0  0  0  0  0
   -0.8721   -5.2190    1.9081 H   0  0  0  0  0  0
   -2.1677   -5.4448    0.6901 H   0  0  0  0  0  0
   -5.7696    3.0048   -1.2058 H   0  0  0  0  0  0
   -4.1492    3.2123   -1.5986 H   0  0  0  0  0  0
  1  2  1  0  0  0
  1  6  2  0  0  0
  1 24  1  0  0  0
  2  3  2  0  0  0
  2 28  1  0  0  0
  3  4  1  0  0  0
  3 29  1  0  0  0
  4  5  2  0  0  0
  4  7  1  0  0  0
  5  6  1  0  0  0
  5 30  1  0  0  0
  6 31  1  0  0  0
  7  8  1  0  0  0
  7 11  1  0  0  0
  8  9  2  0  0  0
  8 15  1  0  0  0
  9 10  1  0  0  0
  9 32  1  0  0  0
 10 11  2  0  0  0
 10 12  1  0  0  0
 12 13  1  0  0  0
 12 14  1  0  0  0
 12 33  1  0  0  0
 15 16  1  0  0  0
 15 20  2  0  0  0
 16 17  2  0  0  0
 16 34  1  0  0  0
 17 18  1  0  0  0
 17 35  1  0  0  0
 18 19  2  0  0  0
 18 23  1  0  0  0
 19 20  1  0  0  0
 19 21  1  0  0  0
 20 36  1  0  0  0
 21 22  1  0  0  0
 22 23  1  0  0  0
 22 37  1  0  0  0
 22 38  1  0  0  0
 24 25  2  0  0  0
 24 26  2  0  0  0
 24 27  1  0  0  0
 27 39  1  0  0  0
 27 40  1  0  0  0
M  END
>  <Activity>
7.61979

>  <set>
2

>  <Min_dist>
0.057471

>  <Avg_dist>
0.579609

$$$$
8-1AI
  Cerius2 12110214513D 1   1.00000                          
 
 36 38  0  0  0  0  0  0  0  0999 V2000
   -3.0595   -0.7147    0.0061 C   0  0  0  0  0  0
   -2.2905   -1.5997   -0.7270 C   0  0  0  0  0  0
   -0.9145   -1.4807   -0.7327 C   0  0  0  0  0  0
   -0.3034   -0.4705   -0.0015 C   0  0  0  0  0  0
   -1.0785    0.4170    0.7333 C   0  0  0  0  0  0
   -2.4540    0.2923    0.7352 C   0  0  0  0  0  0
    1.0919   -0.3474   -0.0049 N   0  0  0  0  0  0
    1.7979    0.8214   -0.0476 C   0  0  0  0  0  0
    3.1251    0.4946   -0.0343 C   0  0  0  0  0  0
    3.2230   -0.8958    0.0173 C   0  0  0  0  0  0
    2.0147   -1.4002    0.0411 N   0  0  0  0  0  0
    4.5059   -1.6859    0.0478 C   0  0  0  0  0  0
    4.2108   -3.0525    0.0981 F   0  0  0  0  0  0
    5.2499   -1.4117   -1.1048 F   0  0  0  0  0  0
    5.2479   -1.3271    1.1782 F   0  0  0  0  0  0
    1.2317    2.1862   -0.0991 C   0  0  0  0  0  0
    1.7977    3.1615    0.6030 N   0  0  0  0  0  0
    1.3236    4.3903    0.5838 C   0  0  0  0  0  0
    0.2114    4.7110   -0.1730 C   0  0  0  0  0  0
   -0.4114    3.7222   -0.9219 C   0  0  0  0  0  0
    0.1104    2.4410   -0.8890 C   0  0  0  0  0  0
   -4.8150   -0.8658    0.0054 S   0  0  0  0  0  0
   -5.3130    0.4163    0.3622 O   0  0  0  0  0  0
   -5.1411   -1.5733   -1.1830 O   0  0  0  0  0  0
   -5.2258   -1.8718    1.2550 N   0  0  0  0  0  0
   -2.7663   -2.3852   -1.2954 H   0  0  0  0  0  0
   -0.3144   -2.1727   -1.3049 H   0  0  0  0  0  0
   -0.6062    1.2034    1.3032 H   0  0  0  0  0  0
   -3.0574    0.9825    1.3062 H   0  0  0  0  0  0
    3.9514    1.1896   -0.0598 H   0  0  0  0  0  0
    1.8100    5.1580    1.1674 H   0  0  0  0  0  0
   -0.1694    5.7216   -0.1809 H   0  0  0  0  0  0
   -1.2812    3.9487   -1.5205 H   0  0  0  0  0  0
   -0.3491    1.6477   -1.4599 H   0  0  0  0  0  0
   -6.1579   -2.0821    1.4221 H   0  0  0  0  0  0
   -4.5343   -2.2508    1.8199 H   0  0  0  0  0  0
  1  2  1  0  0  0
  1  6  2  0  0  0
  1 22  1  0  0  0
  2  3  2  0  0  0
  2 26  1  0  0  0
  3  4  1  0  0  0
  3 27  1  0  0  0
  4  5  2  0  0  0
  4  7  1  0  0  0
  5  6  1  0  0  0
  5 28  1  0  0  0
  6 29  1  0  0  0
  7  8  1  0  0  0
  7 11  1  0  0  0
  8  9  2  0  0  0
  8 16  1  0  0  0
  9 10  1  0  0  0
  9 30  1  0  0  0
 10 11  2  0  0  0
 10 12  1  0  0  0
 12 13  1  0  0  0
 12 14  1  0  0  0
 12 15  1  0  0  0
 16 17  1  0  0  0
 16 21  2  0  0  0
 17 18  2  0  0  0
 18 19  1  0  0  0
 18 31  1  0  0  0
 19 20  2  0  0  0
 19 32  1  0  0  0
 20 21  1  0  0  0
 20 33  1  0  0  0
 21 34  1  0  0  0
 22 23  2  0  0  0
 22 24  2  0  0  0
 22 25  1  0  0  0
 25 35  1  0  0  0
 25 36  1  0  0  0
M  END
>  <Activity>
4.34104

>  <set>
2

>  <Min_dist>
0.210526

>  <Avg_dist>
0.528599

$$$$
8-1AK
  Cerius2 12110214513D 1   1.00000                          
 
 36 38  0  0  0  0  0  0  0  0999 V2000
   -3.0550   -0.7265    0.0062 C   0  0  0  0  0  0
   -2.2853   -1.6103   -0.7278 C   0  0  0  0  0  0
   -0.9095   -1.4901   -0.7335 C   0  0  0  0  0  0
   -0.2992   -0.4801   -0.0015 C   0  0  0  0  0  0
   -1.0749    0.4060    0.7342 C   0  0  0  0  0  0
   -2.4503    0.2802    0.7363 C   0  0  0  0  0  0
    1.0960   -0.3558   -0.0048 N   0  0  0  0  0  0
    1.8010    0.8135   -0.0464 C   0  0  0  0  0  0
    3.1285    0.4879   -0.0331 C   0  0  0  0  0  0
    3.2276   -0.9025    0.0174 C   0  0  0  0  0  0
    2.0197   -1.4080    0.0400 N   0  0  0  0  0  0
    4.5112   -1.6916    0.0468 C   0  0  0  0  0  0
    4.2173   -3.0585    0.0963 F   0  0  0  0  0  0
    5.2545   -1.4159   -1.1059 F   0  0  0  0  0  0
    5.2533   -1.3329    1.1771 F   0  0  0  0  0  0
    1.2335    2.1780   -0.0973 C   0  0  0  0  0  0
    1.8090    3.2242    0.6333 C   0  0  0  0  0  0
    1.2470    4.4813    0.5567 C   0  0  0  0  0  0
    0.1830    4.7035   -0.1914 N   0  0  0  0  0  0
   -0.3904    3.7461   -0.8956 C   0  0  0  0  0  0
    0.1093    2.4607   -0.8819 C   0  0  0  0  0  0
   -4.8104   -0.8791    0.0055 S   0  0  0  0  0  0
   -5.3095    0.4023    0.3636 O   0  0  0  0  0  0
   -5.1360   -1.5857   -1.1836 O   0  0  0  0  0  0
   -5.2203   -1.8867    1.2541 N   0  0  0  0  0  0
   -2.7606   -2.3956   -1.2969 H   0  0  0  0  0  0
   -0.3089   -2.1811   -1.3064 H   0  0  0  0  0  0
   -0.6032    1.1923    1.3049 H   0  0  0  0  0  0
   -3.0541    0.9691    1.3083 H   0  0  0  0  0  0
    3.9541    1.1837   -0.0577 H   0  0  0  0  0  0
    2.6796    3.0494    1.2479 H   0  0  0  0  0  0
    1.6836    5.2948    1.1169 H   0  0  0  0  0  0
   -1.2602    3.9731   -1.4941 H   0  0  0  0  0  0
   -0.3649    1.6821   -1.4609 H   0  0  0  0  0  0
   -6.1522   -2.0978    1.4210 H   0  0  0  0  0  0
   -4.5285   -2.2656    1.8186 H   0  0  0  0  0  0
  1  2  1  0  0  0
  1  6  2  0  0  0
  1 22  1  0  0  0
  2  3  2  0  0  0
  2 26  1  0  0  0
  3  4  1  0  0  0
  3 27  1  0  0  0
  4  5  2  0  0  0
  4  7  1  0  0  0
  5  6  1  0  0  0
  5 28  1  0  0  0
  6 29  1  0  0  0
  7  8  1  0  0  0
  7 11  1  0  0  0
  8  9  2  0  0  0
  8 16  1  0  0  0
  9 10  1  0  0  0
  9 30  1  0  0  0
 10 11  2  0  0  0
 10 12  1  0  0  0
 12 13  1  0  0  0
 12 14  1  0  0  0
 12 15  1  0  0  0
 16 17  1  0  0  0
 16 21  2  0  0  0
 17 18  2  0  0  0
 17 31  1  0  0  0
 18 19  1  0  0  0
 18 32  1  0  0  0
 19 20  2  0  0  0
 20 21  1  0  0  0
 20 33  1  0  0  0
 21 34  1  0  0  0
 22 23  2  0  0  0
 22 24  2  0  0  0
 22 25  1  0  0  0
 25 35  1  0  0  0
 25 36  1  0  0  0
M  END
>  <Activity>
4.1891

>  <set>
2

>  <Min_dist>
0.152778

>  <Avg_dist>
0.504456

$$$$
9-20
  Cerius2 12110214513D 1   1.00000                          
 
 47 50  0  0  0  0  0  0  0  0999 V2000
    2.1322    1.2858    0.2865 C   0  0  0  0  0  0
    1.0335    2.0539    0.2586 C   0  0  0  0  0  0
    1.4089    3.5205    0.2719 C   0  0  0  0  0  0
    2.9004    3.5412   -0.0891 C   0  0  0  0  0  0
    3.3799    2.1425    0.3219 C   0  0  0  0  0  0
    3.4296    4.2533   -1.3212 C   0  0  0  0  0  0
    3.7620    4.7796    0.0792 C   0  0  0  0  0  0
   -0.3478    1.5416    0.2198 C   0  0  0  0  0  0
   -0.8245    0.7290    1.2519 C   0  0  0  0  0  0
   -2.1183    0.2532    1.2088 C   0  0  0  0  0  0
   -2.9438    0.5788    0.1470 C   0  0  0  0  0  0
   -2.4787    1.3830   -0.8786 C   0  0  0  0  0  0
   -1.1891    1.8709   -0.8463 C   0  0  0  0  0  0
   -4.5951   -0.0342    0.1003 S   0  0  0  0  0  0
   -4.8845   -0.0542   -1.2907 O   0  0  0  0  0  0
   -4.5110   -1.2249    0.8713 O   0  0  0  0  0  0
   -5.5386    1.2541    0.9609 C   0  0  0  0  0  0
    2.1259   -0.1876    0.2887 C   0  0  0  0  0  0
    1.5442   -0.8879   -0.7723 C   0  0  0  0  0  0
    1.5412   -2.2665   -0.7658 C   0  0  0  0  0  0
    2.1155   -2.9596    0.2937 C   0  0  0  0  0  0
    2.6938   -2.2677    1.3494 C   0  0  0  0  0  0
    2.7065   -0.8894    1.3487 C   0  0  0  0  0  0
    2.1105   -4.3184    0.2963 O   0  0  0  0  0  0
    2.7638   -4.7316    1.4982 C   0  0  0  0  0  0
    0.8189   -3.1381   -2.0819 Cl  0  0  0  0  0  0
    0.8301    4.0678   -0.4721 H   0  0  0  0  0  0
    1.2520    3.9441    1.2639 H   0  0  0  0  0  0
    3.7975    2.1644    1.3285 H   0  0  0  0  0  0
    4.1175    1.7694   -0.3886 H   0  0  0  0  0  0
    4.2294    3.7669   -1.8796 H   0  0  0  0  0  0
    2.7179    4.8237   -1.9180 H   0  0  0  0  0  0
    3.2689    5.6962    0.4031 H   0  0  0  0  0  0
    4.7804    4.6394    0.4415 H   0  0  0  0  0  0
   -0.1812    0.4738    2.0810 H   0  0  0  0  0  0
   -2.4879   -0.3752    2.0055 H   0  0  0  0  0  0
   -3.1287    1.6330   -1.7041 H   0  0  0  0  0  0
   -0.8276    2.4987   -1.6472 H   0  0  0  0  0  0
   -6.5916    0.9742    0.9913 H   0  0  0  0  0  0
   -5.1619    1.3621    1.9781 H   0  0  0  0  0  0
   -5.4292    2.2000    0.4306 H   0  0  0  0  0  0
    1.0976   -0.3498   -1.5954 H   0  0  0  0  0  0
    3.1384   -2.8105    2.1705 H   0  0  0  0  0  0
    3.1566   -0.3524    2.1705 H   0  0  0  0  0  0
    2.7841   -5.8204    1.5449 H   0  0  0  0  0  0
    3.7842   -4.3485    1.5073 H   0  0  0  0  0  0
    2.2214   -4.3411    2.3593 H   0  0  0  0  0  0
  1  2  2  0  0  0
  1  5  1  0  0  0
  1 18  1  0  0  0
  2  3  1  0  0  0
  2  8  1  0  0  0
  3  4  1  0  0  0
  3 27  1  0  0  0
  3 28  1  0  0  0
  4  5  1  0  0  0
  4  6  1  0  0  0
  4  7  1  0  0  0
  5 29  1  0  0  0
  5 30  1  0  0  0
  6  7  1  0  0  0
  6 31  1  0  0  0
  6 32  1  0  0  0
  7 33  1  0  0  0
  7 34  1  0  0  0
  8  9  1  0  0  0
  8 13  2  0  0  0
  9 10  2  0  0  0
  9 35  1  0  0  0
 10 11  1  0  0  0
 10 36  1  0  0  0
 11 12  2  0  0  0
 11 14  1  0  0  0
 12 13  1  0  0  0
 12 37  1  0  0  0
 13 38  1  0  0  0
 14 15  2  0  0  0
 14 16  2  0  0  0
 14 17  1  0  0  0
 17 39  1  0  0  0
 17 40  1  0  0  0
 17 41  1  0  0  0
 18 19  1  0  0  0
 18 23  2  0  0  0
 19 20  2  0  0  0
 19 42  1  0  0  0
 20 21  1  0  0  0
 20 26  1  0  0  0
 21 22  2  0  0  0
 21 24  1  0  0  0
 22 23  1  0  0  0
 22 43  1  0  0  0
 23 44  1  0  0  0
 24 25  1  0  0  0
 25 45  1  0  0  0
 25 46  1  0  0  0
 25 47  1  0  0  0
M  END
>  <Activity>
7.76955

>  <set>
2

>  <Min_dist>
0.070175

>  <Avg_dist>
0.596313

$$$$
9-32
  Cerius2 12110214513D 1   1.00000                          
 
 42 45  0  0  0  0  0  0  0  0999 V2000
    2.4475    0.3524    0.1935 C   0  0  0  0  0  0
    1.5038    1.3027    0.2535 C   0  0  0  0  0  0
    2.1346    2.6703    0.4076 C   0  0  0  0  0  0
    3.6083    2.4607    0.0344 C   0  0  0  0  0  0
    3.8277    0.9652    0.2999 C   0  0  0  0  0  0
    4.2647    3.1858   -1.1269 C   0  0  0  0  0  0
    4.6757    3.5029    0.3150 C   0  0  0  0  0  0
    0.0535    1.0511    0.1790 C   0  0  0  0  0  0
   -0.5678    0.2379    1.1305 C   0  0  0  0  0  0
   -1.9254    0.0069    1.0543 C   0  0  0  0  0  0
   -2.6719    0.5777    0.0386 C   0  0  0  0  0  0
   -2.0634    1.3837   -0.9075 C   0  0  0  0  0  0
   -0.7079    1.6291   -0.8402 C   0  0  0  0  0  0
   -4.4056    0.2764   -0.0509 S   0  0  0  0  0  0
   -4.7694    0.5137   -1.4039 O   0  0  0  0  0  0
   -4.6241   -0.9349    0.6593 O   0  0  0  0  0  0
   -5.1596    1.4576    0.8315 N   0  0  0  0  0  0
    2.1783   -1.0895    0.0502 C   0  0  0  0  0  0
    1.4888   -1.5668   -1.0677 C   0  0  0  0  0  0
    1.2400   -2.9168   -1.1960 C   0  0  0  0  0  0
    1.6719   -3.8000   -0.2189 C   0  0  0  0  0  0
    2.3564   -3.3327    0.8922 C   0  0  0  0  0  0
    2.6167   -1.9857    1.0289 C   0  0  0  0  0  0
    1.4244   -5.1216   -0.3498 F   0  0  0  0  0  0
    1.6679    3.3830   -0.2724 H   0  0  0  0  0  0
    2.0487    3.0146    1.4382 H   0  0  0  0  0  0
    4.2355    0.8123    1.2991 H   0  0  0  0  0  0
    4.4919    0.5390   -0.4520 H   0  0  0  0  0  0
    4.9689    2.6225   -1.7392 H   0  0  0  0  0  0
    3.6704    3.9302   -1.6567 H   0  0  0  0  0  0
    4.3518    4.4559    0.7332 H   0  0  0  0  0  0
    5.6502    3.1482    0.6507 H   0  0  0  0  0  0
    0.0137   -0.2089    1.9234 H   0  0  0  0  0  0
   -2.4069   -0.6214    1.7890 H   0  0  0  0  0  0
   -2.6523    1.8254   -1.6978 H   0  0  0  0  0  0
   -0.2344    2.2586   -1.5791 H   0  0  0  0  0  0
   -6.1268    1.4652    0.9050 H   0  0  0  0  0  0
   -4.6341    2.1418    1.2749 H   0  0  0  0  0  0
    1.1512   -0.8795   -1.8293 H   0  0  0  0  0  0
    0.7072   -3.2869   -2.0595 H   0  0  0  0  0  0
    2.6901   -4.0256    1.6504 H   0  0  0  0  0  0
    3.1500   -1.6227    1.8950 H   0  0  0  0  0  0
  1  2  2  0  0  0
  1  5  1  0  0  0
  1 18  1  0  0  0
  2  3  1  0  0  0
  2  8  1  0  0  0
  3  4  1  0  0  0
  3 25  1  0  0  0
  3 26  1  0  0  0
  4  5  1  0  0  0
  4  6  1  0  0  0
  4  7  1  0  0  0
  5 27  1  0  0  0
  5 28  1  0  0  0
  6  7  1  0  0  0
  6 29  1  0  0  0
  6 30  1  0  0  0
  7 31  1  0  0  0
  7 32  1  0  0  0
  8  9  1  0  0  0
  8 13  2  0  0  0
  9 10  2  0  0  0
  9 33  1  0  0  0
 10 11  1  0  0  0
 10 34  1  0  0  0
 11 12  2  0  0  0
 11 14  1  0  0  0
 12 13  1  0  0  0
 12 35  1  0  0  0
 13 36  1  0  0  0
 14 15  2  0  0  0
 14 16  2  0  0  0
 14 17  1  0  0  0
 17 37  1  0  0  0
 17 38  1  0  0  0
 18 19  1  0  0  0
 18 23  2  0  0  0
 19 20  2  0  0  0
 19 39  1  0  0  0
 20 21  1  0  0  0
 20 40  1  0  0  0
 21 22  2  0  0  0
 21 24  1  0  0  0
 22 23  1  0  0  0
 22 41  1  0  0  0
 23 42  1  0  0  0
M  END
>  <Activity>
8.52288

>  <set>
2

>  <Min_dist>
0.086957

>  <Avg_dist>
0.631731

$$$$
9-40
  Cerius2 12110214513D 1   1.00000                          
 
 46 49  0  0  0  0  0  0  0  0999 V2000
    1.2491    2.1854    0.2165 C   0  0  0  0  0  0
   -0.0660    2.4438    0.2386 C   0  0  0  0  0  0
   -0.3143    3.9334    0.3451 C   0  0  0  0  0  0
    1.0318    4.5764   -0.0151 C   0  0  0  0  0  0
    2.0456    3.4698    0.3053 C   0  0  0  0  0  0
    1.1956    5.5119   -1.1996 C   0  0  0  0  0  0
    1.3245    6.0454    0.2312 C   0  0  0  0  0  0
   -1.1237    1.4196    0.1682 C   0  0  0  0  0  0
   -1.2042    0.4251    1.1465 C   0  0  0  0  0  0
   -2.1969   -0.5296    1.0744 C   0  0  0  0  0  0
   -3.1116   -0.5045    0.0362 C   0  0  0  0  0  0
   -3.0378    0.4770   -0.9364 C   0  0  0  0  0  0
   -2.0543    1.4420   -0.8739 C   0  0  0  0  0  0
   -4.3760   -1.7288   -0.0479 S   0  0  0  0  0  0
   -4.6697   -1.7834   -1.4371 O   0  0  0  0  0  0
   -3.7983   -2.8264    0.6455 O   0  0  0  0  0  0
   -5.7357   -0.9840    0.8940 C   0  0  0  0  0  0
    1.8381    0.8374    0.1247 C   0  0  0  0  0  0
    1.5613    0.0238   -0.9771 C   0  0  0  0  0  0
    2.1164   -1.2362   -1.0563 C   0  0  0  0  0  0
    2.9457   -1.6953   -0.0481 C   0  0  0  0  0  0
    3.2239   -0.8954    1.0463 C   0  0  0  0  0  0
    2.6806    0.3691    1.1364 C   0  0  0  0  0  0
    3.5483   -3.0734   -0.1421 C   0  0  0  0  0  0
    4.3434   -3.3125    0.9839 F   0  0  0  0  0  0
    2.5258   -4.0264   -0.2018 F   0  0  0  0  0  0
    4.3350   -3.1606   -1.2956 F   0  0  0  0  0  0
   -1.0843    4.2419   -0.3620 H   0  0  0  0  0  0
   -0.6025    4.1990    1.3622 H   0  0  0  0  0  0
    2.4456    3.6003    1.3108 H   0  0  0  0  0  0
    2.8518    3.4687   -0.4283 H   0  0  0  0  0  0
    2.1085    5.4239   -1.7887 H   0  0  0  0  0  0
    0.2986    5.7794   -1.7582 H   0  0  0  0  0  0
    0.5123    6.6638    0.6134 H   0  0  0  0  0  0
    2.3221    6.3083    0.5829 H   0  0  0  0  0  0
   -0.4906    0.4039    1.9569 H   0  0  0  0  0  0
   -2.2604   -1.2989    1.8297 H   0  0  0  0  0  0
   -3.7546    0.4900   -1.7441 H   0  0  0  0  0  0
   -1.9979    2.2074   -1.6337 H   0  0  0  0  0  0
   -6.5851   -1.6669    0.9074 H   0  0  0  0  0  0
   -5.4076   -0.7921    1.9156 H   0  0  0  0  0  0
   -6.0313   -0.0455    0.4249 H   0  0  0  0  0  0
    0.9141    0.3807   -1.7645 H   0  0  0  0  0  0
    1.9032   -1.8663   -1.9071 H   0  0  0  0  0  0
    3.8716   -1.2605    1.8296 H   0  0  0  0  0  0
    2.8988    0.9924    1.9909 H   0  0  0  0  0  0
  1  2  2  0  0  0
  1  5  1  0  0  0
  1 18  1  0  0  0
  2  3  1  0  0  0
  2  8  1  0  0  0
  3  4  1  0  0  0
  3 28  1  0  0  0
  3 29  1  0  0  0
  4  5  1  0  0  0
  4  6  1  0  0  0
  4  7  1  0  0  0
  5 30  1  0  0  0
  5 31  1  0  0  0
  6  7  1  0  0  0
  6 32  1  0  0  0
  6 33  1  0  0  0
  7 34  1  0  0  0
  7 35  1  0  0  0
  8  9  1  0  0  0
  8 13  2  0  0  0
  9 10  2  0  0  0
  9 36  1  0  0  0
 10 11  1  0  0  0
 10 37  1  0  0  0
 11 12  2  0  0  0
 11 14  1  0  0  0
 12 13  1  0  0  0
 12 38  1  0  0  0
 13 39  1  0  0  0
 14 15  2  0  0  0
 14 16  2  0  0  0
 14 17  1  0  0  0
 17 40  1  0  0  0
 17 41  1  0  0  0
 17 42  1  0  0  0
 18 19  1  0  0  0
 18 23  2  0  0  0
 19 20  2  0  0  0
 19 43  1  0  0  0
 20 21  1  0  0  0
 20 44  1  0  0  0
 21 22  2  0  0  0
 21 24  1  0  0  0
 22 23  1  0  0  0
 22 45  1  0  0  0
 23 46  1  0  0  0
 24 25  1  0  0  0
 24 26  1  0  0  0
 24 27  1  0  0  0
M  END
>  <Activity>
8.69897

>  <set>
2

>  <Min_dist>
0.0625

>  <Avg_dist>
0.617355

$$$$
9-19
  Cerius2 12110214513D 1   1.00000                          
 
 41 44  0  0  0  0  0  0  0  0999 V2000
   -2.4922    0.4719    0.0131 C   0  0  0  0  0  0
   -3.6788    1.0934    0.0089 C   0  0  0  0  0  0
   -3.3933    2.5733   -0.0207 C   0  0  0  0  0  0
   -1.8916    2.7048   -0.0325 C   0  0  0  0  0  0
   -1.3955    1.4608   -0.0122 C   0  0  0  0  0  0
    0.0489    1.1244   -0.0149 C   0  0  0  0  0  0
    0.6124    0.4685   -1.1081 C   0  0  0  0  0  0
    1.9571    0.1584   -1.1053 C   0  0  0  0  0  0
    2.7455    0.4973   -0.0204 C   0  0  0  0  0  0
    2.1916    1.1479    1.0675 C   0  0  0  0  0  0
    0.8492    1.4681    1.0732 C   0  0  0  0  0  0
    4.4617    0.0982   -0.0238 S   0  0  0  0  0  0
    4.7652    0.0004    1.3609 O   0  0  0  0  0  0
    4.5220   -1.0258   -0.8912 O   0  0  0  0  0  0
    5.2251    1.5629   -0.7737 C   0  0  0  0  0  0
   -4.2817    3.5387   -0.7990 C   0  0  0  0  0  0
   -4.2723    3.5675    0.7316 C   0  0  0  0  0  0
   -2.3062   -0.9990    0.0452 C   0  0  0  0  0  0
   -2.7133   -1.7788   -1.0362 C   0  0  0  0  0  0
   -2.5379   -3.1468   -1.0022 C   0  0  0  0  0  0
   -1.9581   -3.7458    0.1046 C   0  0  0  0  0  0
   -1.5519   -2.9746    1.1817 C   0  0  0  0  0  0
   -1.7186   -1.6054    1.1543 C   0  0  0  0  0  0
   -1.7886   -5.0858    0.1337 F   0  0  0  0  0  0
   -4.6518    0.6249    0.0232 H   0  0  0  0  0  0
   -1.3253    3.6242   -0.0532 H   0  0  0  0  0  0
   -0.0023    0.2031   -1.9556 H   0  0  0  0  0  0
    2.3947   -0.3502   -1.9517 H   0  0  0  0  0  0
    2.8118    1.4098    1.9120 H   0  0  0  0  0  0
    0.4179    1.9764    1.9229 H   0  0  0  0  0  0
    6.3048    1.4231   -0.8265 H   0  0  0  0  0  0
    4.8276    1.7057   -1.7785 H   0  0  0  0  0  0
    5.0017    2.4402   -0.1665 H   0  0  0  0  0  0
   -3.7942    4.3620   -1.3211 H   0  0  0  0  0  0
   -5.1638    3.1270   -1.2894 H   0  0  0  0  0  0
   -5.1482    3.1748    1.2480 H   0  0  0  0  0  0
   -3.7786    4.4098    1.2163 H   0  0  0  0  0  0
   -3.1657   -1.3129   -1.8991 H   0  0  0  0  0  0
   -2.8533   -3.7518   -1.8394 H   0  0  0  0  0  0
   -1.1007   -3.4457    2.0425 H   0  0  0  0  0  0
   -1.4014   -1.0050    1.9941 H   0  0  0  0  0  0
  1  2  2  0  0  0
  1  5  1  0  0  0
  1 18  1  0  0  0
  2  3  1  0  0  0
  2 25  1  0  0  0
  3  4  1  0  0  0
  3 16  1  0  0  0
  3 17  1  0  0  0
  4  5  2  0  0  0
  4 26  1  0  0  0
  5  6  1  0  0  0
  6  7  1  0  0  0
  6 11  2  0  0  0
  7  8  2  0  0  0
  7 27  1  0  0  0
  8  9  1  0  0  0
  8 28  1  0  0  0
  9 10  2  0  0  0
  9 12  1  0  0  0
 10 11  1  0  0  0
 10 29  1  0  0  0
 11 30  1  0  0  0
 12 13  2  0  0  0
 12 14  2  0  0  0
 12 15  1  0  0  0
 15 31  1  0  0  0
 15 32  1  0  0  0
 15 33  1  0  0  0
 16 17  1  0  0  0
 16 34  1  0  0  0
 16 35  1  0  0  0
 17 36  1  0  0  0
 17 37  1  0  0  0
 18 19  1  0  0  0
 18 23  2  0  0  0
 19 20  2  0  0  0
 19 38  1  0  0  0
 20 21  1  0  0  0
 20 39  1  0  0  0
 21 22  2  0  0  0
 21 24  1  0  0  0
 22 23  1  0  0  0
 22 40  1  0  0  0
 23 41  1  0  0  0
M  END
>  <Activity>
7.58503

>  <set>
2

>  <Min_dist>
0.188679

>  <Avg_dist>
0.64133

$$$$
10-3
  Cerius2 12110214513D 1   1.00000                          
 
 37 39  0  0  0  0  0  0  0  0999 V2000
    2.7910    0.2912   -0.0788 C   0  0  0  0  0  0
    1.5799    1.1286   -0.1676 C   0  0  0  0  0  0
    2.0873    2.3898   -0.2973 C   0  0  0  0  0  0
    3.4208    2.2701   -0.2826 O   0  0  0  0  0  0
    3.7947    1.1288   -0.1638 N   0  0  0  0  0  0
    1.2997    3.6675   -0.4317 C   0  0  0  0  0  0
    1.0476    4.2104    0.8658 O   0  0  0  0  0  0
    0.1589    0.7045   -0.1269 C   0  0  0  0  0  0
   -0.6863    1.1858    0.8711 C   0  0  0  0  0  0
   -2.0075    0.7883    0.9039 C   0  0  0  0  0  0
   -2.4932   -0.0864   -0.0512 C   0  0  0  0  0  0
   -1.6588   -0.5673   -1.0442 C   0  0  0  0  0  0
   -0.3372   -0.1721   -1.0900 C   0  0  0  0  0  0
   -4.1808   -0.5905   -0.0025 S   0  0  0  0  0  0
   -4.2368   -1.8210   -0.7111 O   0  0  0  0  0  0
   -4.6038   -0.3944    1.3398 O   0  0  0  0  0  0
   -5.0469    0.4908   -0.9097 N   0  0  0  0  0  0
    2.8579   -1.1822    0.0792 C   0  0  0  0  0  0
    3.8150   -1.9176   -0.6175 C   0  0  0  0  0  0
    3.8731   -3.2882   -0.4662 C   0  0  0  0  0  0
    2.9836   -3.9320    0.3749 C   0  0  0  0  0  0
    2.0315   -3.2072    1.0689 C   0  0  0  0  0  0
    1.9677   -1.8356    0.9294 C   0  0  0  0  0  0
    1.8697    4.3854   -1.0215 H   0  0  0  0  0  0
    0.3522    3.4597   -0.9290 H   0  0  0  0  0  0
    0.5428    5.0248    0.7349 H   0  0  0  0  0  0
   -0.3079    1.8683    1.6178 H   0  0  0  0  0  0
   -2.6634    1.1607    1.6769 H   0  0  0  0  0  0
   -2.0432   -1.2501   -1.7874 H   0  0  0  0  0  0
    0.3134   -0.5481   -1.8657 H   0  0  0  0  0  0
   -6.0060    0.3838   -1.0069 H   0  0  0  0  0  0
   -4.5950    1.2312   -1.3439 H   0  0  0  0  0  0
    4.5098   -1.4159   -1.2748 H   0  0  0  0  0  0
    4.6141   -3.8591   -1.0059 H   0  0  0  0  0  0
    3.0323   -5.0048    0.4900 H   0  0  0  0  0  0
    1.3393   -3.7151    1.7241 H   0  0  0  0  0  0
    1.2240   -1.2706    1.4717 H   0  0  0  0  0  0
  1  2  1  0  0  0
  1  5  2  0  0  0
  1 18  1  0  0  0
  2  3  2  0  0  0
  2  8  1  0  0  0
  3  4  1  0  0  0
  3  6  1  0  0  0
  4  5  1  0  0  0
  6  7  1  0  0  0
  6 24  1  0  0  0
  6 25  1  0  0  0
  7 26  1  0  0  0
  8  9  1  0  0  0
  8 13  2  0  0  0
  9 10  2  0  0  0
  9 27  1  0  0  0
 10 11  1  0  0  0
 10 28  1  0  0  0
 11 12  2  0  0  0
 11 14  1  0  0  0
 12 13  1  0  0  0
 12 29  1  0  0  0
 13 30  1  0  0  0
 14 15  2  0  0  0
 14 16  2  0  0  0
 14 17  1  0  0  0
 17 31  1  0  0  0
 17 32  1  0  0  0
 18 19  1  0  0  0
 18 23  2  0  0  0
 19 20  2  0  0  0
 19 33  1  0  0  0
 20 21  1  0  0  0
 20 34  1  0  0  0
 21 22  2  0  0  0
 21 35  1  0  0  0
 22 23  1  0  0  0
 22 36  1  0  0  0
 23 37  1  0  0  0
M  END
>  <Activity>
6.74473

>  <set>
2

>  <Min_dist>
0.169231

>  <Avg_dist>
0.632466

$$$$
6-DUP697
  Cerius2 12110214513D 1   1.00000                          
 
 35 37  0  0  0  0  0  0  0  0999 V2000
    2.3992    0.1319    0.0311 C   0  0  0  0  0  0
    1.3024    0.9872    0.0091 C   0  0  0  0  0  0
    1.5451    2.3548   -0.0055 C   0  0  0  0  0  0
    2.8231    2.7999    0.0023 C   0  0  0  0  0  0
    3.7630    1.2834    0.0309 S   0  0  0  0  0  0
    0.1059    3.5810   -0.0363 Br  0  0  0  0  0  0
   -0.0806    0.4563    0.0009 C   0  0  0  0  0  0
   -0.9613    0.7811    1.0323 C   0  0  0  0  0  0
   -2.2485    0.2840    1.0189 C   0  0  0  0  0  0
   -2.6659   -0.5351   -0.0150 C   0  0  0  0  0  0
   -1.7967   -0.8612   -1.0407 C   0  0  0  0  0  0
   -0.5089   -0.3656   -1.0413 C   0  0  0  0  0  0
   -4.3110   -1.1660   -0.0250 S   0  0  0  0  0  0
   -4.1848   -2.3628   -0.7807 O   0  0  0  0  0  0
   -4.6529   -1.1762    1.3542 O   0  0  0  0  0  0
   -5.2349    0.1037   -0.9333 C   0  0  0  0  0  0
    2.4277   -1.3439    0.0550 C   0  0  0  0  0  0
    3.3760   -2.0390   -0.6989 C   0  0  0  0  0  0
    3.3977   -3.4176   -0.6727 C   0  0  0  0  0  0
    2.4811   -4.1133    0.0997 C   0  0  0  0  0  0
    1.5378   -3.4289    0.8498 C   0  0  0  0  0  0
    1.5101   -2.0503    0.8360 C   0  0  0  0  0  0
    2.5069   -5.4639    0.1211 F   0  0  0  0  0  0
    3.1838    3.8179   -0.0070 H   0  0  0  0  0  0
   -0.6365    1.4202    1.8401 H   0  0  0  0  0  0
   -2.9313    0.5346    1.8172 H   0  0  0  0  0  0
   -2.1280   -1.5016   -1.8447 H   0  0  0  0  0  0
    0.1688   -0.6208   -1.8426 H   0  0  0  0  0  0
   -6.2830   -0.1882   -1.0009 H   0  0  0  0  0  0
   -5.1560    1.0557   -0.4084 H   0  0  0  0  0  0
   -4.8210    0.2065   -1.9364 H   0  0  0  0  0  0
    4.0905   -1.4980   -1.3014 H   0  0  0  0  0  0
    4.1303   -3.9563   -1.2555 H   0  0  0  0  0  0
    0.8260   -3.9763    1.4498 H   0  0  0  0  0  0
    0.7748   -1.5180    1.4211 H   0  0  0  0  0  0
  1  2  2  0  0  0
  1  5  1  0  0  0
  1 17  1  0  0  0
  2  3  1  0  0  0
  2  7  1  0  0  0
  3  4  2  0  0  0
  3  6  1  0  0  0
  4  5  1  0  0  0
  4 24  1  0  0  0
  7  8  1  0  0  0
  7 12  2  0  0  0
  8  9  2  0  0  0
  8 25  1  0  0  0
  9 10  1  0  0  0
  9 26  1  0  0  0
 10 11  2  0  0  0
 10 13  1  0  0  0
 11 12  1  0  0  0
 11 27  1  0  0  0
 12 28  1  0  0  0
 13 14  2  0  0  0
 13 15  2  0  0  0
 13 16  1  0  0  0
 16 29  1  0  0  0
 16 30  1  0  0  0
 16 31  1  0  0  0
 17 18  1  0  0  0
 17 22  2  0  0  0
 18 19  2  0  0  0
 18 32  1  0  0  0
 19 20  1  0  0  0
 19 33  1  0  0  0
 20 21  2  0  0  0
 20 23  1  0  0  0
 21 22  1  0  0  0
 21 34  1  0  0  0
 22 35  1  0  0  0
M  END
>  <Activity>
8

>  <set>
2

>  <Min_dist>
0.310345

>  <Avg_dist>
0.615794

$$$$
11-16
  Cerius2 12110214513D 1   1.00000                          
 
 38 40  0  0  0  0  0  0  0  0999 V2000
    1.1462    0.9184    0.2782 C   0  0  0  0  0  0
    2.0637   -0.1291    0.2991 C   0  0  0  0  0  0
    3.3425    0.1881    0.4034 N   0  0  0  0  0  0
    3.7392    1.4347    0.4842 C   0  0  0  0  0  0
    2.2472    2.3192    0.4155 S   0  0  0  0  0  0
    5.1433    1.9681    0.6072 C   0  0  0  0  0  0
    5.6993    2.2005   -0.7358 C   0  0  0  0  0  0
    6.1284    2.3798   -1.7723 N   0  0  0  0  0  0
    1.6244   -1.5409    0.2088 C   0  0  0  0  0  0
    2.3551   -2.4538   -0.5515 C   0  0  0  0  0  0
    1.9421   -3.7676   -0.6321 C   0  0  0  0  0  0
    0.8034   -4.1808    0.0407 C   0  0  0  0  0  0
    0.0739   -3.2776    0.7969 C   0  0  0  0  0  0
    0.4819   -1.9630    0.8884 C   0  0  0  0  0  0
    0.4030   -5.4685   -0.0413 F   0  0  0  0  0  0
   -0.3256    0.8820    0.1669 C   0  0  0  0  0  0
   -1.1082    1.7575    0.9229 C   0  0  0  0  0  0
   -2.4826    1.7183    0.8136 C   0  0  0  0  0  0
   -3.0863    0.8143   -0.0425 C   0  0  0  0  0  0
   -2.3172   -0.0561   -0.7945 C   0  0  0  0  0  0
   -0.9414   -0.0242   -0.6991 C   0  0  0  0  0  0
   -4.8428    0.7708   -0.1753 S   0  0  0  0  0  0
   -5.0950   -0.5676   -0.5807 O   0  0  0  0  0  0
   -5.2665    1.2704    1.0857 O   0  0  0  0  0  0
   -5.1856    1.9496   -1.5107 C   0  0  0  0  0  0
    5.1282    2.9065    1.1615 H   0  0  0  0  0  0
    5.7622    1.2435    1.1363 H   0  0  0  0  0  0
    3.2425   -2.1326   -1.0765 H   0  0  0  0  0  0
    2.5070   -4.4751   -1.2209 H   0  0  0  0  0  0
   -0.8134   -3.6043    1.3189 H   0  0  0  0  0  0
   -0.0872   -1.2598    1.4784 H   0  0  0  0  0  0
   -0.6383    2.4633    1.5918 H   0  0  0  0  0  0
   -3.0890    2.3945    1.3979 H   0  0  0  0  0  0
   -2.7949   -0.7592   -1.4607 H   0  0  0  0  0  0
   -0.3422   -0.7041   -1.2866 H   0  0  0  0  0  0
   -6.2609    2.0034   -1.6808 H   0  0  0  0  0  0
   -4.8123    2.9346   -1.2306 H   0  0  0  0  0  0
   -4.6895    1.6191   -2.4233 H   0  0  0  0  0  0
  1  2  2  0  0  0
  1  5  1  0  0  0
  1 16  1  0  0  0
  2  3  1  0  0  0
  2  9  1  0  0  0
  3  4  2  0  0  0
  4  5  1  0  0  0
  4  6  1  0  0  0
  6  7  1  0  0  0
  6 26  1  0  0  0
  6 27  1  0  0  0
  7  8  3  0  0  0
  9 10  1  0  0  0
  9 14  2  0  0  0
 10 11  2  0  0  0
 10 28  1  0  0  0
 11 12  1  0  0  0
 11 29  1  0  0  0
 12 13  2  0  0  0
 12 15  1  0  0  0
 13 14  1  0  0  0
 13 30  1  0  0  0
 14 31  1  0  0  0
 16 17  1  0  0  0
 16 21  2  0  0  0
 17 18  2  0  0  0
 17 32  1  0  0  0
 18 19  1  0  0  0
 18 33  1  0  0  0
 19 20  2  0  0  0
 19 22  1  0  0  0
 20 21  1  0  0  0
 20 34  1  0  0  0
 21 35  1  0  0  0
 22 23  2  0  0  0
 22 24  2  0  0  0
 22 25  1  0  0  0
 25 36  1  0  0  0
 25 37  1  0  0  0
 25 38  1  0  0  0
M  END
>  <Activity>
6.45593

>  <set>
2

>  <Min_dist>
0.105263

>  <Avg_dist>
0.588721

$$$$
11-29
  Cerius2 12110214513D 1   1.00000                          
 
 44 47  0  0  0  0  0  0  0  0999 V2000
    0.2771    0.1202   -0.0424 C   0  0  0  0  0  0
    0.9396   -1.1072   -0.0362 C   0  0  0  0  0  0
    2.2565   -1.1160   -0.0326 N   0  0  0  0  0  0
    2.9575    0.0069   -0.0347 C   0  0  0  0  0  0
    1.6679    1.2444   -0.0426 S   0  0  0  0  0  0
    4.4239    0.1896   -0.0304 C   0  0  0  0  0  0
    5.2690   -0.9216   -0.0237 C   0  0  0  0  0  0
    6.6368   -0.7442   -0.0197 C   0  0  0  0  0  0
    7.1728    0.5318   -0.0224 C   0  0  0  0  0  0
    6.3423    1.6377   -0.0286 C   0  0  0  0  0  0
    4.9709    1.4748   -0.0389 C   0  0  0  0  0  0
    3.9295    2.8638   -0.0467 Cl  0  0  0  0  0  0
    0.1764   -2.3768   -0.0333 C   0  0  0  0  0  0
    0.6123   -3.4578   -0.7989 C   0  0  0  0  0  0
   -0.1024   -4.6380   -0.7919 C   0  0  0  0  0  0
   -1.2501   -4.7518   -0.0275 C   0  0  0  0  0  0
   -1.6896   -3.6844    0.7342 C   0  0  0  0  0  0
   -0.9797   -2.4983    0.7406 C   0  0  0  0  0  0
   -1.4092   -1.4558    1.4848 F   0  0  0  0  0  0
   -1.1698    0.4106   -0.0525 C   0  0  0  0  0  0
   -1.6802    1.4606    0.7145 C   0  0  0  0  0  0
   -3.0335    1.7266    0.6999 C   0  0  0  0  0  0
   -3.8851    0.9558   -0.0719 C   0  0  0  0  0  0
   -3.3865   -0.0859   -0.8342 C   0  0  0  0  0  0
   -2.0346   -0.3596   -0.8337 C   0  0  0  0  0  0
   -5.6127    1.3021   -0.0835 S   0  0  0  0  0  0
   -6.1842    0.0428   -0.4102 O   0  0  0  0  0  0
   -5.8186    1.9201    1.1794 O   0  0  0  0  0  0
   -5.7871    2.4886   -1.4446 C   0  0  0  0  0  0
    4.8526   -1.9181   -0.0212 H   0  0  0  0  0  0
    7.2913   -1.6032   -0.0141 H   0  0  0  0  0  0
    8.2446    0.6645   -0.0192 H   0  0  0  0  0  0
    6.7671    2.6307   -0.0300 H   0  0  0  0  0  0
    1.5077   -3.3711   -1.3966 H   0  0  0  0  0  0
    0.2348   -5.4752   -1.3850 H   0  0  0  0  0  0
   -1.8054   -5.6781   -0.0260 H   0  0  0  0  0  0
   -2.5863   -3.7793    1.3285 H   0  0  0  0  0  0
   -1.0167    2.0625    1.3179 H   0  0  0  0  0  0
   -3.4295    2.5380    1.2924 H   0  0  0  0  0  0
   -4.0569   -0.6836   -1.4339 H   0  0  0  0  0  0
   -1.6468   -1.1730   -1.4291 H   0  0  0  0  0  0
   -6.8338    2.7764   -1.5438 H   0  0  0  0  0  0
   -5.1854    3.3729   -1.2351 H   0  0  0  0  0  0
   -5.4471    2.0293   -2.3728 H   0  0  0  0  0  0
  1  2  2  0  0  0
  1  5  1  0  0  0
  1 20  1  0  0  0
  2  3  1  0  0  0
  2 13  1  0  0  0
  3  4  2  0  0  0
  4  5  1  0  0  0
  4  6  1  0  0  0
  6  7  1  0  0  0
  6 11  2  0  0  0
  7  8  2  0  0  0
  7 30  1  0  0  0
  8  9  1  0  0  0
  8 31  1  0  0  0
  9 10  2  0  0  0
  9 32  1  0  0  0
 10 11  1  0  0  0
 10 33  1  0  0  0
 11 12  1  0  0  0
 13 14  1  0  0  0
 13 18  2  0  0  0
 14 15  2  0  0  0
 14 34  1  0  0  0
 15 16  1  0  0  0
 15 35  1  0  0  0
 16 17  2  0  0  0
 16 36  1  0  0  0
 17 18  1  0  0  0
 17 37  1  0  0  0
 18 19  1  0  0  0
 20 21  1  0  0  0
 20 25  2  0  0  0
 21 22  2  0  0  0
 21 38  1  0  0  0
 22 23  1  0  0  0
 22 39  1  0  0  0
 23 24  2  0  0  0
 23 26  1  0  0  0
 24 25  1  0  0  0
 24 40  1  0  0  0
 25 41  1  0  0  0
 26 27  2  0  0  0
 26 28  2  0  0  0
 26 29  1  0  0  0
 29 42  1  0  0  0
 29 43  1  0  0  0
 29 44  1  0  0  0
M  END
>  <Activity>
8

>  <set>
2

>  <Min_dist>
0.028169

>  <Avg_dist>
0.568813

$$$$
12-10C
  Cerius2 12110214513D 1   1.00000                          
 
 40 42  0  0  0  0  0  0  0  0999 V2000
   -0.9695    1.8993    0.0189 C   0  0  0  0  0  0
   -2.1926    1.2336   -0.0038 C   0  0  0  0  0  0
   -3.2860    1.9760   -0.0096 N   0  0  0  0  0  0
   -3.2303    3.2855    0.0054 C   0  0  0  0  0  0
   -1.5231    3.5984    0.0304 S   0  0  0  0  0  0
   -4.3672    4.2747    0.0010 C   0  0  0  0  0  0
   -2.2650   -0.2458   -0.0213 C   0  0  0  0  0  0
   -3.2361   -0.9070    0.7307 C   0  0  0  0  0  0
   -3.3017   -2.2846    0.7123 C   0  0  0  0  0  0
   -2.4032   -3.0141   -0.0532 C   0  0  0  0  0  0
   -1.4337   -2.3596   -0.8042 C   0  0  0  0  0  0
   -1.3660   -0.9805   -0.7944 C   0  0  0  0  0  0
   -0.5602   -3.0731   -1.5480 F   0  0  0  0  0  0
   -2.4708   -4.3719   -0.0683 O   0  0  0  0  0  0
   -3.5527   -4.7411    0.7892 C   0  0  0  0  0  0
    0.4021    1.3534    0.0355 C   0  0  0  0  0  0
    1.4087    1.9622   -0.7172 C   0  0  0  0  0  0
    2.6879    1.4468   -0.6971 C   0  0  0  0  0  0
    2.9751    0.3292    0.0666 C   0  0  0  0  0  0
    1.9827   -0.2791    0.8149 C   0  0  0  0  0  0
    0.7003    0.2291    0.8086 C   0  0  0  0  0  0
    4.6119   -0.3228    0.0860 S   0  0  0  0  0  0
    4.4813   -1.6825    0.4775 O   0  0  0  0  0  0
    5.2231    0.1327   -1.1133 O   0  0  0  0  0  0
    5.4277    0.4240    1.3185 N   0  0  0  0  0  0
   -4.6546    4.5024    1.0275 H   0  0  0  0  0  0
   -4.0505    5.1900   -0.4991 H   0  0  0  0  0  0
   -5.2187    3.8473   -0.5285 H   0  0  0  0  0  0
   -3.9359   -0.3406    1.3272 H   0  0  0  0  0  0
   -4.0534   -2.7964    1.2949 H   0  0  0  0  0  0
   -0.6128   -0.4717   -1.3778 H   0  0  0  0  0  0
   -3.6463   -5.8269    0.8091 H   0  0  0  0  0  0
   -3.3588   -4.3746    1.7972 H   0  0  0  0  0  0
   -4.4783   -4.3034    0.4152 H   0  0  0  0  0  0
    1.1858    2.8343   -1.3140 H   0  0  0  0  0  0
    3.4672    1.9163   -1.2790 H   0  0  0  0  0  0
    2.2137   -1.1511    1.4087 H   0  0  0  0  0  0
   -0.0733   -0.2467    1.3930 H   0  0  0  0  0  0
    6.3548    0.1983    1.4932 H   0  0  0  0  0  0
    4.9785    1.0871    1.8657 H   0  0  0  0  0  0
  1  2  2  0  0  0
  1  5  1  0  0  0
  1 16  1  0  0  0
  2  3  1  0  0  0
  2  7  1  0  0  0
  3  4  2  0  0  0
  4  5  1  0  0  0
  4  6  1  0  0  0
  6 26  1  0  0  0
  6 27  1  0  0  0
  6 28  1  0  0  0
  7  8  1  0  0  0
  7 12  2  0  0  0
  8  9  2  0  0  0
  8 29  1  0  0  0
  9 10  1  0  0  0
  9 30  1  0  0  0
 10 11  2  0  0  0
 10 14  1  0  0  0
 11 12  1  0  0  0
 11 13  1  0  0  0
 12 31  1  0  0  0
 14 15  1  0  0  0
 15 32  1  0  0  0
 15 33  1  0  0  0
 15 34  1  0  0  0
 16 17  1  0  0  0
 16 21  2  0  0  0
 17 18  2  0  0  0
 17 35  1  0  0  0
 18 19  1  0  0  0
 18 36  1  0  0  0
 19 20  2  0  0  0
 19 22  1  0  0  0
 20 21  1  0  0  0
 20 37  1  0  0  0
 21 38  1  0  0  0
 22 23  2  0  0  0
 22 24  2  0  0  0
 22 25  1  0  0  0
 25 39  1  0  0  0
 25 40  1  0  0  0
M  END
>  <Activity>
7.55284

>  <set>
2

>  <Min_dist>
0.136986

>  <Avg_dist>
0.569096

$$$$
12-10B
  Cerius2 12110214513D 1   1.00000                          
 
 47 50  0  0  0  0  0  0  0  0999 V2000
    0.5091    0.5597   -0.0142 C   0  0  0  0  0  0
    1.0459   -0.7275    0.0073 C   0  0  0  0  0  0
    2.3553   -0.8673    0.0145 N   0  0  0  0  0  0
    3.1647    0.1801    0.0018 C   0  0  0  0  0  0
    2.0049    1.5397   -0.0232 S   0  0  0  0  0  0
    4.6421    0.2158    0.0071 C   0  0  0  0  0  0
    5.3723   -0.9738    0.0273 C   0  0  0  0  0  0
    6.7509   -0.9335    0.0321 C   0  0  0  0  0  0
    7.4114    0.2826    0.0174 C   0  0  0  0  0  0
    6.6952    1.4656   -0.0027 C   0  0  0  0  0  0
    5.3143    1.4401   -0.0140 C   0  0  0  0  0  0
    4.4165    2.9256   -0.0392 Cl  0  0  0  0  0  0
    0.1599   -1.9147    0.0222 C   0  0  0  0  0  0
    0.4887   -3.0416   -0.7311 C   0  0  0  0  0  0
   -0.3379   -4.1457   -0.7156 C   0  0  0  0  0  0
   -1.4965   -4.1371    0.0480 C   0  0  0  0  0  0
   -1.8283   -3.0163    0.8003 C   0  0  0  0  0  0
   -1.0019   -1.9100    0.7940 C   0  0  0  0  0  0
   -2.9574   -3.0112    1.5422 F   0  0  0  0  0  0
   -2.3091   -5.2269    0.0600 O   0  0  0  0  0  0
   -1.7087   -6.1992   -0.7981 C   0  0  0  0  0  0
   -0.9017    0.9925   -0.0314 C   0  0  0  0  0  0
   -1.3061    2.0967    0.7227 C   0  0  0  0  0  0
   -2.6263    2.4956    0.7020 C   0  0  0  0  0  0
   -3.5493    1.8046   -0.0631 C   0  0  0  0  0  0
   -3.1559    0.7096   -0.8123 C   0  0  0  0  0  0
   -1.8378    0.3035   -0.8063 C   0  0  0  0  0  0
   -5.2338    2.3210   -0.0831 S   0  0  0  0  0  0
   -5.9830    1.1794   -0.4764 O   0  0  0  0  0  0
   -5.4261    3.0577    1.1167 O   0  0  0  0  0  0
   -5.4016    3.4153   -1.3147 N   0  0  0  0  0  0
    4.8587   -1.9238    0.0395 H   0  0  0  0  0  0
    7.3166   -1.8534    0.0478 H   0  0  0  0  0  0
    8.4911    0.3080    0.0220 H   0  0  0  0  0  0
    7.2168    2.4113   -0.0141 H   0  0  0  0  0  0
    1.3897   -3.0496   -1.3264 H   0  0  0  0  0  0
   -0.0831   -5.0182   -1.2989 H   0  0  0  0  0  0
   -1.2595   -1.0391    1.3784 H   0  0  0  0  0  0
   -2.3280   -7.0959   -0.8205 H   0  0  0  0  0  0
   -1.6231   -5.7915   -1.8053 H   0  0  0  0  0  0
   -0.7170   -6.4519   -0.4229 H   0  0  0  0  0  0
   -0.5869    2.6365    1.3209 H   0  0  0  0  0  0
   -2.9404    3.3491    1.2845 H   0  0  0  0  0  0
   -3.8818    0.1746   -1.4066 H   0  0  0  0  0  0
   -1.5320   -0.5510   -1.3917 H   0  0  0  0  0  0
   -6.2656    3.8199   -1.4896 H   0  0  0  0  0  0
   -4.6358    3.6517   -1.8611 H   0  0  0  0  0  0
  1  2  2  0  0  0
  1  5  1  0  0  0
  1 22  1  0  0  0
  2  3  1  0  0  0
  2 13  1  0  0  0
  3  4  2  0  0  0
  4  5  1  0  0  0
  4  6  1  0  0  0
  6  7  1  0  0  0
  6 11  2  0  0  0
  7  8  2  0  0  0
  7 32  1  0  0  0
  8  9  1  0  0  0
  8 33  1  0  0  0
  9 10  2  0  0  0
  9 34  1  0  0  0
 10 11  1  0  0  0
 10 35  1  0  0  0
 11 12  1  0  0  0
 13 14  1  0  0  0
 13 18  2  0  0  0
 14 15  2  0  0  0
 14 36  1  0  0  0
 15 16  1  0  0  0
 15 37  1  0  0  0
 16 17  2  0  0  0
 16 20  1  0  0  0
 17 18  1  0  0  0
 17 19  1  0  0  0
 18 38  1  0  0  0
 20 21  1  0  0  0
 21 39  1  0  0  0
 21 40  1  0  0  0
 21 41  1  0  0  0
 22 23  1  0  0  0
 22 27  2  0  0  0
 23 24  2  0  0  0
 23 42  1  0  0  0
 24 25  1  0  0  0
 24 43  1  0  0  0
 25 26  2  0  0  0
 25 28  1  0  0  0
 26 27  1  0  0  0
 26 44  1  0  0  0
 27 45  1  0  0  0
 28 29  2  0  0  0
 28 30  2  0  0  0
 28 31  1  0  0  0
 31 46  1  0  0  0
 31 47  1  0  0  0
M  END
>  <Activity>
5.60555

>  <set>
2

>  <Min_dist>
0.12987

>  <Avg_dist>
0.578167

$$$$
11-34
  Cerius2 12110214513D 1   1.00000                          
 
 43 46  0  0  0  0  0  0  0  0999 V2000
   -0.1387   -0.6617   -1.0365 C   0  0  0  0  0  0
    0.6731   -1.0218    0.2278 C   0  0  0  0  0  0
    1.8109   -0.1538    0.4276 N   0  0  0  0  0  0
    2.0895    0.8134   -0.3877 C   0  0  0  0  0  0
    0.8344    0.7667   -1.6513 S   0  0  0  0  0  0
    3.2202    1.7637   -0.2895 C   0  0  0  0  0  0
    3.3853    2.7579   -1.2539 C   0  0  0  0  0  0
    4.4410    3.6406   -1.1571 C   0  0  0  0  0  0
    5.3361    3.5416   -0.1064 C   0  0  0  0  0  0
    5.1790    2.5588    0.8533 C   0  0  0  0  0  0
    4.1223    1.6724    0.7714 C   0  0  0  0  0  0
    3.9259    0.4387    1.9769 Cl  0  0  0  0  0  0
    1.1607   -2.4424    0.1046 C   0  0  0  0  0  0
    0.7911   -3.3942    1.0364 C   0  0  0  0  0  0
    1.2471   -4.6629    0.8964 C   0  0  0  0  0  0
    2.2313   -4.5400   -0.5880 S   0  0  0  0  0  0
    1.9637   -2.8072   -0.9247 C   0  0  0  0  0  0
   -1.5460   -0.2535   -0.6845 C   0  0  0  0  0  0
   -2.6185   -0.9663   -1.1868 C   0  0  0  0  0  0
   -3.9094   -0.5918   -0.8640 C   0  0  0  0  0  0
   -4.1277    0.4952   -0.0384 C   0  0  0  0  0  0
   -3.0551    1.2075    0.4647 C   0  0  0  0  0  0
   -1.7641    0.8304    0.1453 C   0  0  0  0  0  0
   -5.7732    0.9733    0.3722 S   0  0  0  0  0  0
   -5.6387    2.3608    0.6475 O   0  0  0  0  0  0
   -6.5260    0.4922   -0.7329 O   0  0  0  0  0  0
   -6.1159    0.0230    1.8788 C   0  0  0  0  0  0
   -0.1352   -1.4811   -1.7552 H   0  0  0  0  0  0
    0.0198   -0.9513    1.0974 H   0  0  0  0  0  0
    2.6882    2.8362   -2.0750 H   0  0  0  0  0  0
    4.5694    4.4106   -1.9035 H   0  0  0  0  0  0
    6.1612    4.2349   -0.0359 H   0  0  0  0  0  0
    5.8809    2.4868    1.6710 H   0  0  0  0  0  0
    0.1488   -3.1307    1.8637 H   0  0  0  0  0  0
    1.0632   -5.5245    1.5211 H   0  0  0  0  0  0
    2.3464   -2.2049   -1.7353 H   0  0  0  0  0  0
   -2.4480   -1.8156   -1.8318 H   0  0  0  0  0  0
   -4.7474   -1.1483   -1.2570 H   0  0  0  0  0  0
   -3.2257    2.0570    1.1094 H   0  0  0  0  0  0
   -0.9261    1.3869    0.5384 H   0  0  0  0  0  0
   -7.1247    0.2449    2.2268 H   0  0  0  0  0  0
   -6.0320   -1.0422    1.6635 H   0  0  0  0  0  0
   -5.3969    0.2952    2.6515 H   0  0  0  0  0  0
  1  2  1  0  0  0
  1  5  1  0  0  0
  1 18  1  0  0  0
  1 28  1  0  0  0
  2  3  1  0  0  0
  2 13  1  0  0  0
  2 29  1  0  0  0
  3  4  2  0  0  0
  4  5  1  0  0  0
  4  6  1  0  0  0
  6  7  1  0  0  0
  6 11  2  0  0  0
  7  8  2  0  0  0
  7 30  1  0  0  0
  8  9  1  0  0  0
  8 31  1  0  0  0
  9 10  2  0  0  0
  9 32  1  0  0  0
 10 11  1  0  0  0
 10 33  1  0  0  0
 11 12  1  0  0  0
 13 14  1  0  0  0
 13 17  2  0  0  0
 14 15  2  0  0  0
 14 34  1  0  0  0
 15 16  1  0  0  0
 15 35  1  0  0  0
 16 17  1  0  0  0
 17 36  1  0  0  0
 18 19  1  0  0  0
 18 23  2  0  0  0
 19 20  2  0  0  0
 19 37  1  0  0  0
 20 21  1  0  0  0
 20 38  1  0  0  0
 21 22  2  0  0  0
 21 24  1  0  0  0
 22 23  1  0  0  0
 22 39  1  0  0  0
 23 40  1  0  0  0
 24 25  2  0  0  0
 24 26  2  0  0  0
 24 27  1  0  0  0
 27 41  1  0  0  0
 27 42  1  0  0  0
 27 43  1  0  0  0
M  END
>  <Activity>
7.10237

>  <set>
2

>  <Min_dist>
0.078652

>  <Avg_dist>
0.644121

$$$$
13-7A
  Cerius2 12110214513D 1   1.00000                          
 
 45 47  0  0  0  0  0  0  0  0999 V2000
    0.4938   -4.0625    0.1039 C   0  0  0  0  0  0
    0.1840   -3.3674   -1.0537 C   0  0  0  0  0  0
    0.4714   -2.0212   -1.1504 C   0  0  0  0  0  0
    1.0737   -1.3610   -0.0812 C   0  0  0  0  0  0
    1.3831   -2.0639    1.0814 C   0  0  0  0  0  0
    1.0926   -3.4101    1.1692 C   0  0  0  0  0  0
    1.3850    0.0864   -0.1807 C   0  0  0  0  0  0
    0.4442    1.1464   -0.2068 C   0  0  0  0  0  0
    1.1122    2.2753   -0.3009 N   0  0  0  0  0  0
    2.4798    1.9784   -0.3376 N   0  0  0  0  0  0
    2.6278    0.6398   -0.2578 C   0  0  0  0  0  0
    3.9347   -0.1105   -0.2629 C   0  0  0  0  0  0
    4.9328    0.6876    0.3062 F   0  0  0  0  0  0
    3.7992   -1.2882    0.4799 F   0  0  0  0  0  0
    4.2853   -0.4274   -1.5797 F   0  0  0  0  0  0
    3.5663    2.9559   -0.4401 C   0  0  0  0  0  0
    3.9958    3.3763    0.9419 C   0  0  0  0  0  0
    5.2294    3.1750    1.3340 C   0  0  0  0  0  0
   -1.0308    1.0071   -0.1402 C   0  0  0  0  0  0
   -1.6079    0.0897    0.7361 C   0  0  0  0  0  0
   -2.9811   -0.0353    0.7941 C   0  0  0  0  0  0
   -3.7843    0.7474   -0.0156 C   0  0  0  0  0  0
   -3.2170    1.6595   -0.8872 C   0  0  0  0  0  0
   -1.8452    1.7971   -0.9495 C   0  0  0  0  0  0
   -5.5367    0.5815    0.0631 S   0  0  0  0  0  0
   -5.9513    1.0016   -1.2295 O   0  0  0  0  0  0
   -5.7067   -0.7556    0.5131 O   0  0  0  0  0  0
   -6.0085    1.7813    1.3392 C   0  0  0  0  0  0
    0.2060   -5.3793    0.1963 F   0  0  0  0  0  0
   -0.2827   -3.8800   -1.8818 H   0  0  0  0  0  0
    0.2302   -1.4803   -2.0535 H   0  0  0  0  0  0
    1.8502   -1.5561    1.9123 H   0  0  0  0  0  0
    1.3321   -3.9557    2.0700 H   0  0  0  0  0  0
    4.4111    2.5066   -0.9622 H   0  0  0  0  0  0
    3.2191    3.8282   -0.9938 H   0  0  0  0  0  0
    3.2865    3.8435    1.6090 H   0  0  0  0  0  0
    5.5372    3.4763    2.3244 H   0  0  0  0  0  0
    5.9386    2.7078    0.6669 H   0  0  0  0  0  0
   -0.9817   -0.5223    1.3682 H   0  0  0  0  0  0
   -3.4294   -0.7458    1.4728 H   0  0  0  0  0  0
   -3.8490    2.2680   -1.5171 H   0  0  0  0  0  0
   -1.4034    2.5098   -1.6302 H   0  0  0  0  0  0
   -7.0902    1.7632    1.4728 H   0  0  0  0  0  0
   -5.5219    1.5219    2.2795 H   0  0  0  0  0  0
   -5.6970    2.7797    1.0322 H   0  0  0  0  0  0
  1  2  1  0  0  0
  1  6  2  0  0  0
  1 29  1  0  0  0
  2  3  2  0  0  0
  2 30  1  0  0  0
  3  4  1  0  0  0
  3 31  1  0  0  0
  4  5  2  0  0  0
  4  7  1  0  0  0
  5  6  1  0  0  0
  5 32  1  0  0  0
  6 33  1  0  0  0
  7  8  1  0  0  0
  7 11  2  0  0  0
  8  9  2  0  0  0
  8 19  1  0  0  0
  9 10  1  0  0  0
 10 11  1  0  0  0
 10 16  1  0  0  0
 11 12  1  0  0  0
 12 13  1  0  0  0
 12 14  1  0  0  0
 12 15  1  0  0  0
 16 17  1  0  0  0
 16 34  1  0  0  0
 16 35  1  0  0  0
 17 18  2  0  0  0
 17 36  1  0  0  0
 18 37  1  0  0  0
 18 38  1  0  0  0
 19 20  1  0  0  0
 19 24  2  0  0  0
 20 21  2  0  0  0
 20 39  1  0  0  0
 21 22  1  0  0  0
 21 40  1  0  0  0
 22 23  2  0  0  0
 22 25  1  0  0  0
 23 24  1  0  0  0
 23 41  1  0  0  0
 24 42  1  0  0  0
 25 26  2  0  0  0
 25 27  2  0  0  0
 25 28  1  0  0  0
 28 43  1  0  0  0
 28 44  1  0  0  0
 28 45  1  0  0  0
M  END
>  <Activity>
7.12494

>  <set>
2

>  <Min_dist>
0.078947

>  <Avg_dist>
0.550664

$$$$
14-3
  Cerius2 12110214513D 1   1.00000                          
 
 43 46  0  0  0  0  0  0  0  0999 V2000
    2.0108   -0.2998   -0.0090 C   0  0  0  0  0  0
    1.0689   -1.2700    0.0177 C   0  0  0  0  0  0
    1.7779   -2.6036    0.0459 C   0  0  0  0  0  0
    3.2527   -2.2833    0.0322 C   0  0  0  0  0  0
    3.3636   -0.8922   -0.0009 C   0  0  0  0  0  0
    4.6333   -0.3091   -0.0208 C   0  0  0  0  0  0
    5.7575   -1.1080   -0.0077 C   0  0  0  0  0  0
    5.6352   -2.4856    0.0246 C   0  0  0  0  0  0
    4.3806   -3.0716    0.0455 C   0  0  0  0  0  0
   -0.3872   -1.0634    0.0190 C   0  0  0  0  0  0
   -1.1727   -1.5876   -1.0130 C   0  0  0  0  0  0
   -2.5372   -1.3899   -1.0042 C   0  0  0  0  0  0
   -3.1300   -0.6745    0.0218 C   0  0  0  0  0  0
   -2.3598   -0.1526    1.0465 C   0  0  0  0  0  0
   -0.9947   -0.3465    1.0553 C   0  0  0  0  0  0
   -4.8744   -0.4265    0.0230 S   0  0  0  0  0  0
   -5.0212    0.7752    0.7670 O   0  0  0  0  0  0
   -5.2049   -0.5055   -1.3567 O   0  0  0  0  0  0
   -5.4952   -1.8618    0.9423 C   0  0  0  0  0  0
    1.7258    1.1517   -0.0474 C   0  0  0  0  0  0
    2.1842    1.9826    0.9759 C   0  0  0  0  0  0
    1.9157    3.3347    0.9353 C   0  0  0  0  0  0
    1.1918    3.8686   -0.1191 C   0  0  0  0  0  0
    0.7339    3.0478   -1.1376 C   0  0  0  0  0  0
    1.0025    1.6954   -1.1100 C   0  0  0  0  0  0
    0.9311    5.1938   -0.1539 F   0  0  0  0  0  0
    1.5195   -3.1481    0.9542 H   0  0  0  0  0  0
    1.5120   -3.1900   -0.8336 H   0  0  0  0  0  0
    4.7342    0.7659   -0.0468 H   0  0  0  0  0  0
    6.7382   -0.6558   -0.0232 H   0  0  0  0  0  0
    6.5198   -3.1052    0.0343 H   0  0  0  0  0  0
    4.2874   -4.1472    0.0712 H   0  0  0  0  0  0
   -0.7115   -2.1454   -1.8146 H   0  0  0  0  0  0
   -3.1451   -1.7939   -1.8002 H   0  0  0  0  0  0
   -2.8298    0.4044    1.8435 H   0  0  0  0  0  0
   -0.3950    0.0614    1.8555 H   0  0  0  0  0  0
   -6.5822   -1.8105    1.0054 H   0  0  0  0  0  0
   -5.2040   -2.7770    0.4269 H   0  0  0  0  0  0
   -5.0725   -1.8603    1.9470 H   0  0  0  0  0  0
    2.7478    1.5674    1.7983 H   0  0  0  0  0  0
    2.2700    3.9787    1.7266 H   0  0  0  0  0  0
    0.1698    3.4688   -1.9568 H   0  0  0  0  0  0
    0.6455    1.0566   -1.9044 H   0  0  0  0  0  0
  1  2  2  0  0  0
  1  5  1  0  0  0
  1 20  1  0  0  0
  2  3  1  0  0  0
  2 10  1  0  0  0
  3  4  1  0  0  0
  3 27  1  0  0  0
  3 28  1  0  0  0
  4  5  1  0  0  0
  4  9  2  0  0  0
  5  6  2  0  0  0
  6  7  1  0  0  0
  6 29  1  0  0  0
  7  8  2  0  0  0
  7 30  1  0  0  0
  8  9  1  0  0  0
  8 31  1  0  0  0
  9 32  1  0  0  0
 10 11  1  0  0  0
 10 15  2  0  0  0
 11 12  2  0  0  0
 11 33  1  0  0  0
 12 13  1  0  0  0
 12 34  1  0  0  0
 13 14  2  0  0  0
 13 16  1  0  0  0
 14 15  1  0  0  0
 14 35  1  0  0  0
 15 36  1  0  0  0
 16 17  2  0  0  0
 16 18  2  0  0  0
 16 19  1  0  0  0
 19 37  1  0  0  0
 19 38  1  0  0  0
 19 39  1  0  0  0
 20 21  1  0  0  0
 20 25  2  0  0  0
 21 22  2  0  0  0
 21 40  1  0  0  0
 22 23  1  0  0  0
 22 41  1  0  0  0
 23 24  2  0  0  0
 23 26  1  0  0  0
 24 25  1  0  0  0
 24 42  1  0  0  0
 25 43  1  0  0  0
M  END
>  <Activity>
7.95861

>  <set>
2

>  <Min_dist>
0.157895

>  <Avg_dist>
0.659579

$$$$
14-12
  Cerius2 12110214513D 1   1.00000                          
 
 40 43  0  0  0  0  0  0  0  0999 V2000
    2.0375   -0.2347    0.0149 C   0  0  0  0  0  0
    1.1042   -1.2332   -0.0187 C   0  0  0  0  0  0
    1.7231   -2.4291   -0.0566 O   0  0  0  0  0  0
    3.0642   -2.2837   -0.0501 C   0  0  0  0  0  0
    3.3463   -0.9088   -0.0052 C   0  0  0  0  0  0
    4.6668   -0.4638    0.0110 C   0  0  0  0  0  0
    5.6947   -1.3805   -0.0173 C   0  0  0  0  0  0
    5.4178   -2.7393   -0.0622 C   0  0  0  0  0  0
    4.1157   -3.1917   -0.0786 C   0  0  0  0  0  0
   -0.3574   -1.0317   -0.0133 C   0  0  0  0  0  0
   -0.9399   -0.0948   -0.8705 C   0  0  0  0  0  0
   -2.3069    0.0879   -0.8604 C   0  0  0  0  0  0
   -3.1011   -0.6539   -0.0037 C   0  0  0  0  0  0
   -2.5311   -1.5837    0.8481 C   0  0  0  0  0  0
   -1.1661   -1.7811    0.8448 C   0  0  0  0  0  0
   -4.8465   -0.4129    0.0031 S   0  0  0  0  0  0
   -5.2943   -0.8691    1.2722 O   0  0  0  0  0  0
   -5.0585    0.8894   -0.5245 O   0  0  0  0  0  0
   -5.4950   -1.4585   -1.1054 N   0  0  0  0  0  0
    1.7844    1.2231    0.0565 C   0  0  0  0  0  0
    1.1830    1.7976    1.1768 C   0  0  0  0  0  0
    0.9493    3.1566    1.2105 C   0  0  0  0  0  0
    1.3104    3.9510    0.1340 C   0  0  0  0  0  0
    1.9076    3.3854   -0.9812 C   0  0  0  0  0  0
    2.1517    2.0284   -1.0221 C   0  0  0  0  0  0
    1.0790    5.2815    0.1717 F   0  0  0  0  0  0
    4.8831    0.5938    0.0452 H   0  0  0  0  0  0
    6.7196   -1.0404   -0.0050 H   0  0  0  0  0  0
    6.2307   -3.4499   -0.0846 H   0  0  0  0  0  0
    3.9129   -4.2520   -0.1131 H   0  0  0  0  0  0
   -0.3212    0.4853   -1.5392 H   0  0  0  0  0  0
   -2.7586    0.8118   -1.5225 H   0  0  0  0  0  0
   -3.1570   -2.1588    1.5143 H   0  0  0  0  0  0
   -0.7225   -2.5074    1.5098 H   0  0  0  0  0  0
   -6.4539   -1.4781   -1.2505 H   0  0  0  0  0  0
   -4.9159   -2.0512   -1.6095 H   0  0  0  0  0  0
    0.9006    1.1792    2.0160 H   0  0  0  0  0  0
    0.4839    3.6023    2.0771 H   0  0  0  0  0  0
    2.1864    4.0088   -1.8178 H   0  0  0  0  0  0
    2.6175    1.5886   -1.8916 H   0  0  0  0  0  0
  1  2  2  0  0  0
  1  5  1  0  0  0
  1 20  1  0  0  0
  2  3  1  0  0  0
  2 10  1  0  0  0
  3  4  1  0  0  0
  4  5  2  0  0  0
  4  9  1  0  0  0
  5  6  1  0  0  0
  6  7  2  0  0  0
  6 27  1  0  0  0
  7  8  1  0  0  0
  7 28  1  0  0  0
  8  9  2  0  0  0
  8 29  1  0  0  0
  9 30  1  0  0  0
 10 11  1  0  0  0
 10 15  2  0  0  0
 11 12  2  0  0  0
 11 31  1  0  0  0
 12 13  1  0  0  0
 12 32  1  0  0  0
 13 14  2  0  0  0
 13 16  1  0  0  0
 14 15  1  0  0  0
 14 33  1  0  0  0
 15 34  1  0  0  0
 16 17  2  0  0  0
 16 18  2  0  0  0
 16 19  1  0  0  0
 19 35  1  0  0  0
 19 36  1  0  0  0
 20 21  1  0  0  0
 20 25  2  0  0  0
 21 22  2  0  0  0
 21 37  1  0  0  0
 22 23  1  0  0  0
 22 38  1  0  0  0
 23 24  2  0  0  0
 23 26  1  0  0  0
 24 25  1  0  0  0
 24 39  1  0  0  0
 25 40  1  0  0  0
M  END
>  <Activity>
8.1549

>  <set>
2

>  <Min_dist>
0.148148

>  <Avg_dist>
0.641952

$$$$
14-14
  Cerius2 12110214513D 1   1.00000                          
 
 45 48  0  0  0  0  0  0  0  0999 V2000
    1.9032    0.7174    0.0232 C   0  0  0  0  0  0
    0.9058    1.6523    0.0386 C   0  0  0  0  0  0
    1.4441    2.8873    0.0448 O   0  0  0  0  0  0
    2.7919    2.8310    0.0341 C   0  0  0  0  0  0
    3.1644    1.4771    0.0200 C   0  0  0  0  0  0
    4.5115    1.1204    0.0067 C   0  0  0  0  0  0
    5.4763    2.1036    0.0076 C   0  0  0  0  0  0
    5.1100    3.4417    0.0220 C   0  0  0  0  0  0
    3.7809    3.8072    0.0347 C   0  0  0  0  0  0
   -0.5391    1.3542    0.0464 C   0  0  0  0  0  0
   -1.0545    0.4015    0.9288 C   0  0  0  0  0  0
   -2.4063    0.1280    0.9304 C   0  0  0  0  0  0
   -3.2515    0.7943    0.0606 C   0  0  0  0  0  0
   -2.7481    1.7393   -0.8162 C   0  0  0  0  0  0
   -1.3993    2.0275   -0.8247 C   0  0  0  0  0  0
   -4.9770    0.4375    0.0690 S   0  0  0  0  0  0
   -5.3744    0.7725   -1.2535 O   0  0  0  0  0  0
   -5.0203   -0.8969    0.5554 O   0  0  0  0  0  0
   -5.6362    1.6132    1.2830 C   0  0  0  0  0  0
    1.7475   -0.7546    0.0176 C   0  0  0  0  0  0
    1.1806   -1.3937   -1.0862 C   0  0  0  0  0  0
    1.0376   -2.7666   -1.0876 C   0  0  0  0  0  0
    1.4577   -3.5115    0.0090 C   0  0  0  0  0  0
    2.0209   -2.8780    1.1072 C   0  0  0  0  0  0
    2.1721   -1.5067    1.1130 C   0  0  0  0  0  0
    1.3156   -4.8636    0.0050 O   0  0  0  0  0  0
    1.8315   -5.3368    1.2508 C   0  0  0  0  0  0
    0.4888   -3.3871   -2.1548 F   0  0  0  0  0  0
    4.7974    0.0789   -0.0037 H   0  0  0  0  0  0
    6.5216    1.8319   -0.0026 H   0  0  0  0  0  0
    5.8741    4.2050    0.0232 H   0  0  0  0  0  0
    3.5083    4.8521    0.0458 H   0  0  0  0  0  0
   -0.3959   -0.1199    1.6077 H   0  0  0  0  0  0
   -2.8062   -0.6083    1.6119 H   0  0  0  0  0  0
   -3.4135    2.2552   -1.4925 H   0  0  0  0  0  0
   -1.0078    2.7653   -1.5094 H   0  0  0  0  0  0
   -6.7144    1.4791    1.3703 H   0  0  0  0  0  0
   -5.1684    1.4360    2.2515 H   0  0  0  0  0  0
   -5.4218    2.6309    0.9568 H   0  0  0  0  0  0
    0.8542   -0.8150   -1.9376 H   0  0  0  0  0  0
    2.3453   -3.4598    1.9574 H   0  0  0  0  0  0
    2.6107   -1.0150    1.9687 H   0  0  0  0  0  0
    1.7385   -6.4219    1.2939 H   0  0  0  0  0  0
    2.8817   -5.0583    1.3385 H   0  0  0  0  0  0
    1.2678   -4.8909    2.0703 H   0  0  0  0  0  0
  1  2  2  0  0  0
  1  5  1  0  0  0
  1 20  1  0  0  0
  2  3  1  0  0  0
  2 10  1  0  0  0
  3  4  1  0  0  0
  4  5  2  0  0  0
  4  9  1  0  0  0
  5  6  1  0  0  0
  6  7  2  0  0  0
  6 29  1  0  0  0
  7  8  1  0  0  0
  7 30  1  0  0  0
  8  9  2  0  0  0
  8 31  1  0  0  0
  9 32  1  0  0  0
 10 11  1  0  0  0
 10 15  2  0  0  0
 11 12  2  0  0  0
 11 33  1  0  0  0
 12 13  1  0  0  0
 12 34  1  0  0  0
 13 14  2  0  0  0
 13 16  1  0  0  0
 14 15  1  0  0  0
 14 35  1  0  0  0
 15 36  1  0  0  0
 16 17  2  0  0  0
 16 18  2  0  0  0
 16 19  1  0  0  0
 19 37  1  0  0  0
 19 38  1  0  0  0
 19 39  1  0  0  0
 20 21  1  0  0  0
 20 25  2  0  0  0
 21 22  2  0  0  0
 21 40  1  0  0  0
 22 23  1  0  0  0
 22 28  1  0  0  0
 23 24  2  0  0  0
 23 26  1  0  0  0
 24 25  1  0  0  0
 24 41  1  0  0  0
 25 42  1  0  0  0
 26 27  1  0  0  0
 27 43  1  0  0  0
 27 44  1  0  0  0
 27 45  1  0  0  0
M  END
>  <Activity>
7.03152

>  <set>
2

>  <Min_dist>
0.112903

>  <Avg_dist>
0.619916

$$$$
1-10
  Cerius2 12110214513D 1   1.00000                          
 
 42 44  0  0  0  0  0  0  0  0999 V2000
    2.1950    1.0204   -0.1646 N   0  0  0  0  0  0
    1.0554    1.7869   -0.1623 C   0  0  0  0  0  0
    1.4312    3.0946   -0.2355 C   0  0  0  0  0  0
    2.8346    3.1258   -0.2836 C   0  0  0  0  0  0
    3.2763    1.8501   -0.2391 C   0  0  0  0  0  0
    4.7192    1.4161   -0.2664 C   0  0  0  0  0  0
    5.2914    1.4579    1.1519 C   0  0  0  0  0  0
   -0.3325    1.2826   -0.0927 C   0  0  0  0  0  0
   -1.3687    2.1334    0.2955 C   0  0  0  0  0  0
   -2.6617    1.6565    0.3584 C   0  0  0  0  0  0
   -2.9324    0.3381    0.0377 C   0  0  0  0  0  0
   -1.9098   -0.5105   -0.3479 C   0  0  0  0  0  0
   -0.6133   -0.0447   -0.4205 C   0  0  0  0  0  0
   -4.5866   -0.2630    0.1212 S   0  0  0  0  0  0
   -4.4052   -1.6531    0.3536 O   0  0  0  0  0  0
   -5.1842    0.5922    1.0859 O   0  0  0  0  0  0
   -5.2276    0.0581   -1.5451 C   0  0  0  0  0  0
    2.2403   -0.3794   -0.0959 C   0  0  0  0  0  0
    1.8448   -1.0314    1.0642 C   0  0  0  0  0  0
    1.8901   -2.4102    1.1300 C   0  0  0  0  0  0
    2.3302   -3.1422    0.0400 C   0  0  0  0  0  0
    2.7256   -2.4935   -1.1179 C   0  0  0  0  0  0
    2.6753   -1.1152   -1.1898 C   0  0  0  0  0  0
    2.3743   -4.4908    0.1063 F   0  0  0  0  0  0
    0.7715    3.9496   -0.2532 H   0  0  0  0  0  0
    3.4502    4.0111   -0.3457 H   0  0  0  0  0  0
    4.7857    0.4000   -0.6552 H   0  0  0  0  0  0
    5.2887    2.0886   -0.9079 H   0  0  0  0  0  0
    6.3065    1.0610    1.1461 H   0  0  0  0  0  0
    5.3061    2.4882    1.5075 H   0  0  0  0  0  0
    4.6691    0.8544    1.8127 H   0  0  0  0  0  0
   -1.1586    3.1626    0.5464 H   0  0  0  0  0  0
   -3.4643    2.3137    0.6589 H   0  0  0  0  0  0
   -2.1278   -1.5385   -0.5969 H   0  0  0  0  0  0
    0.1840   -0.7081   -0.7215 H   0  0  0  0  0  0
   -6.2618   -0.2803   -1.6080 H   0  0  0  0  0  0
   -5.1818    1.1272   -1.7523 H   0  0  0  0  0  0
   -4.6242   -0.4799   -2.2764 H   0  0  0  0  0  0
    1.5022   -0.4608    1.9148 H   0  0  0  0  0  0
    1.5825   -2.9178    2.0323 H   0  0  0  0  0  0
    3.0692   -3.0660   -1.9667 H   0  0  0  0  0  0
    2.9834   -0.6096   -2.0930 H   0  0  0  0  0  0
  1  2  1  0  0  0
  1  5  1  0  0  0
  1 18  1  0  0  0
  2  3  2  0  0  0
  2  8  1  0  0  0
  3  4  1  0  0  0
  3 25  1  0  0  0
  4  5  2  0  0  0
  4 26  1  0  0  0
  5  6  1  0  0  0
  6  7  1  0  0  0
  6 27  1  0  0  0
  6 28  1  0  0  0
  7 29  1  0  0  0
  7 30  1  0  0  0
  7 31  1  0  0  0
  8  9  1  0  0  0
  8 13  2  0  0  0
  9 10  2  0  0  0
  9 32  1  0  0  0
 10 11  1  0  0  0
 10 33  1  0  0  0
 11 12  2  0  0  0
 11 14  1  0  0  0
 12 13  1  0  0  0
 12 34  1  0  0  0
 13 35  1  0  0  0
 14 15  2  0  0  0
 14 16  2  0  0  0
 14 17  1  0  0  0
 17 36  1  0  0  0
 17 37  1  0  0  0
 17 38  1  0  0  0
 18 19  1  0  0  0
 18 23  2  0  0  0
 19 20  2  0  0  0
 19 39  1  0  0  0
 20 21  1  0  0  0
 20 40  1  0  0  0
 21 22  2  0  0  0
 21 24  1  0  0  0
 22 23  1  0  0  0
 22 41  1  0  0  0
 23 42  1  0  0  0
M  END
>  <Activity>
4

>  <set>
3

>  <Min_dist>
0.084746

>  <Avg_dist>
0.512658

$$$$
1-16
  Cerius2 12110214513D 1   1.00000                          
 
 42 44  0  0  0  0  0  0  0  0999 V2000
    1.0768    2.3001   -0.1679 N   0  0  0  0  0  0
   -0.2303    2.5399    0.1793 C   0  0  0  0  0  0
   -0.3285    3.8437    0.5627 C   0  0  0  0  0  0
    0.9505    4.4128    0.4462 C   0  0  0  0  0  0
    1.7889    3.4527   -0.0006 C   0  0  0  0  0  0
   -1.3347    1.5578    0.1431 C   0  0  0  0  0  0
   -1.0591    0.1907    0.2006 C   0  0  0  0  0  0
   -2.0944   -0.7205    0.1668 C   0  0  0  0  0  0
   -3.4034   -0.2818    0.0757 C   0  0  0  0  0  0
   -3.6835    1.0719    0.0183 C   0  0  0  0  0  0
   -2.6578    1.9938    0.0570 C   0  0  0  0  0  0
   -4.7197   -1.4524    0.0319 S   0  0  0  0  0  0
   -5.7419   -0.7511   -0.6627 O   0  0  0  0  0  0
   -4.0953   -2.6085   -0.5093 O   0  0  0  0  0  0
   -5.1336   -1.6746    1.7841 C   0  0  0  0  0  0
    1.5937    1.0762   -0.6135 C   0  0  0  0  0  0
    2.6514    0.4808    0.0611 C   0  0  0  0  0  0
    3.1587   -0.7253   -0.3804 C   0  0  0  0  0  0
    2.6148   -1.3400   -1.4936 C   0  0  0  0  0  0
    1.5621   -0.7494   -2.1676 C   0  0  0  0  0  0
    1.0459    0.4538   -1.7269 C   0  0  0  0  0  0
    4.5008   -1.4816    0.4749 S   0  0  0  0  0  0
    5.1181   -2.2650   -0.5373 O   0  0  0  0  0  0
    5.1556   -0.3732    1.0766 O   0  0  0  0  0  0
    3.6713   -2.5191    1.7103 C   0  0  0  0  0  0
   -1.2246    4.3470    0.8944 H   0  0  0  0  0  0
    1.2158    5.4348    0.6730 H   0  0  0  0  0  0
    2.8446    3.5760   -0.1926 H   0  0  0  0  0  0
   -0.0377   -0.1530    0.2711 H   0  0  0  0  0  0
   -1.8826   -1.7786    0.2113 H   0  0  0  0  0  0
   -4.7074    1.4078   -0.0528 H   0  0  0  0  0  0
   -2.8777    3.0502    0.0125 H   0  0  0  0  0  0
   -5.9500   -2.3907    1.8766 H   0  0  0  0  0  0
   -4.2604   -2.0479    2.3191 H   0  0  0  0  0  0
   -5.4390   -0.7185    2.2093 H   0  0  0  0  0  0
    3.0770    0.9607    0.9300 H   0  0  0  0  0  0
    3.0135   -2.2830   -1.8372 H   0  0  0  0  0  0
    1.1399   -1.2314   -3.0370 H   0  0  0  0  0  0
    0.2235    0.9146   -2.2538 H   0  0  0  0  0  0
    4.4189   -3.0424    2.3063 H   0  0  0  0  0  0
    3.0617   -1.8922    2.3610 H   0  0  0  0  0  0
    3.0348   -3.2462    1.2059 H   0  0  0  0  0  0
  1  2  1  0  0  0
  1  5  1  0  0  0
  1 16  1  0  0  0
  2  3  2  0  0  0
  2  6  1  0  0  0
  3  4  1  0  0  0
  3 26  1  0  0  0
  4  5  2  0  0  0
  4 27  1  0  0  0
  5 28  1  0  0  0
  6  7  1  0  0  0
  6 11  2  0  0  0
  7  8  2  0  0  0
  7 29  1  0  0  0
  8  9  1  0  0  0
  8 30  1  0  0  0
  9 10  2  0  0  0
  9 12  1  0  0  0
 10 11  1  0  0  0
 10 31  1  0  0  0
 11 32  1  0  0  0
 12 13  2  0  0  0
 12 14  2  0  0  0
 12 15  1  0  0  0
 15 33  1  0  0  0
 15 34  1  0  0  0
 15 35  1  0  0  0
 16 17  1  0  0  0
 16 21  2  0  0  0
 17 18  2  0  0  0
 17 36  1  0  0  0
 18 19  1  0  0  0
 18 22  1  0  0  0
 19 20  2  0  0  0
 19 37  1  0  0  0
 20 21  1  0  0  0
 20 38  1  0  0  0
 21 39  1  0  0  0
 22 23  2  0  0  0
 22 24  2  0  0  0
 22 25  1  0  0  0
 25 40  1  0  0  0
 25 41  1  0  0  0
 25 42  1  0  0  0
M  END
>  <Activity>
4

>  <set>
3

>  <Min_dist>
0.172414

>  <Avg_dist>
0.530684

$$$$
1-17
  Cerius2 12110214513D 1   1.00000                          
 
 45 47  0  0  0  0  0  0  0  0999 V2000
    0.2231    3.0871    0.0403 N   0  0  0  0  0  0
   -1.1405    2.9251    0.0726 C   0  0  0  0  0  0
   -1.7069    4.1626    0.1381 C   0  0  0  0  0  0
   -0.6627    5.1022    0.1458 C   0  0  0  0  0  0
    0.5029    4.4225    0.0855 C   0  0  0  0  0  0
   -1.8649    1.6368    0.0414 C   0  0  0  0  0  0
   -1.2261    0.4635    0.4455 C   0  0  0  0  0  0
   -1.9080   -0.7354    0.4144 C   0  0  0  0  0  0
   -3.2221   -0.7763   -0.0165 C   0  0  0  0  0  0
   -3.8612    0.3831   -0.4185 C   0  0  0  0  0  0
   -3.1925    1.5894   -0.3868 C   0  0  0  0  0  0
   -4.0854   -2.3119   -0.0542 S   0  0  0  0  0  0
   -5.0608   -2.1001   -1.0656 O   0  0  0  0  0  0
   -3.0367   -3.2592   -0.2030 O   0  0  0  0  0  0
   -4.8394   -2.4026    1.5931 C   0  0  0  0  0  0
    1.1685    2.0546   -0.0226 C   0  0  0  0  0  0
    2.1506    1.9504    0.9533 C   0  0  0  0  0  0
    3.0811    0.9317    0.8886 C   0  0  0  0  0  0
    3.0352    0.0162   -0.1467 C   0  0  0  0  0  0
    2.0585    0.1176   -1.1204 C   0  0  0  0  0  0
    1.1215    1.1305   -1.0577 C   0  0  0  0  0  0
    4.2239   -1.2820   -0.2258 S   0  0  0  0  0  0
    4.2740   -1.5792   -1.6145 O   0  0  0  0  0  0
    5.3354   -0.7342    0.4698 O   0  0  0  0  0  0
    3.4390   -2.6190    0.7160 C   0  0  0  0  0  0
    4.3639   -3.8377    0.7390 C   0  0  0  0  0  0
   -2.7639    4.3809    0.1763 H   0  0  0  0  0  0
   -0.7723    6.1756    0.1914 H   0  0  0  0  0  0
    1.4897    4.8614    0.0753 H   0  0  0  0  0  0
   -0.2001    0.4940    0.7815 H   0  0  0  0  0  0
   -1.4148   -1.6440    0.7269 H   0  0  0  0  0  0
   -4.8871    0.3444   -0.7538 H   0  0  0  0  0  0
   -3.6926    2.4938   -0.7005 H   0  0  0  0  0  0
   -5.4076   -3.3285    1.6821 H   0  0  0  0  0  0
   -4.0575   -2.3817    2.3523 H   0  0  0  0  0  0
   -5.5062   -1.5521    1.7348 H   0  0  0  0  0  0
    2.1872    2.6653    1.7619 H   0  0  0  0  0  0
    3.8455    0.8503    1.6471 H   0  0  0  0  0  0
    2.0254   -0.5987   -1.9279 H   0  0  0  0  0  0
    0.3587    1.2090   -1.8182 H   0  0  0  0  0  0
    3.2536   -2.2843    1.7366 H   0  0  0  0  0  0
    2.4939   -2.8890    0.2448 H   0  0  0  0  0  0
    3.8922   -4.6410    1.3049 H   0  0  0  0  0  0
    4.5493   -4.1724   -0.2816 H   0  0  0  0  0  0
    5.3089   -3.5676    1.2102 H   0  0  0  0  0  0
  1  2  1  0  0  0
  1  5  1  0  0  0
  1 16  1  0  0  0
  2  3  2  0  0  0
  2  6  1  0  0  0
  3  4  1  0  0  0
  3 27  1  0  0  0
  4  5  2  0  0  0
  4 28  1  0  0  0
  5 29  1  0  0  0
  6  7  1  0  0  0
  6 11  2  0  0  0
  7  8  2  0  0  0
  7 30  1  0  0  0
  8  9  1  0  0  0
  8 31  1  0  0  0
  9 10  2  0  0  0
  9 12  1  0  0  0
 10 11  1  0  0  0
 10 32  1  0  0  0
 11 33  1  0  0  0
 12 13  2  0  0  0
 12 14  2  0  0  0
 12 15  1  0  0  0
 15 34  1  0  0  0
 15 35  1  0  0  0
 15 36  1  0  0  0
 16 17  1  0  0  0
 16 21  2  0  0  0
 17 18  2  0  0  0
 17 37  1  0  0  0
 18 19  1  0  0  0
 18 38  1  0  0  0
 19 20  2  0  0  0
 19 22  1  0  0  0
 20 21  1  0  0  0
 20 39  1  0  0  0
 21 40  1  0  0  0
 22 23  2  0  0  0
 22 24  2  0  0  0
 22 25  1  0  0  0
 25 26  1  0  0  0
 25 41  1  0  0  0
 25 42  1  0  0  0
 26 43  1  0  0  0
 26 44  1  0  0  0
 26 45  1  0  0  0
M  END
>  <Activity>
4

>  <set>
3

>  <Min_dist>
0.189655

>  <Avg_dist>
0.559899

$$$$
1-19
  Cerius2 12110214513D 1   1.00000                          
 
 42 44  0  0  0  0  0  0  0  0999 V2000
    0.3609    2.8308   -0.2332 N   0  0  0  0  0  0
   -1.0082    2.8563   -0.1259 C   0  0  0  0  0  0
   -1.4003    4.1607   -0.0906 C   0  0  0  0  0  0
   -0.2415    4.9498   -0.1784 C   0  0  0  0  0  0
    0.8181    4.1168   -0.2644 C   0  0  0  0  0  0
   -1.8983    1.6778   -0.0612 C   0  0  0  0  0  0
   -1.4001    0.4457    0.3654 C   0  0  0  0  0  0
   -2.2362   -0.6500    0.4239 C   0  0  0  0  0  0
   -3.5658   -0.5297    0.0605 C   0  0  0  0  0  0
   -4.0660    0.6887   -0.3632 C   0  0  0  0  0  0
   -3.2419    1.7937   -0.4209 C   0  0  0  0  0  0
   -4.6266   -1.9345    0.1371 S   0  0  0  0  0  0
   -5.6193   -1.6329   -0.8338 O   0  0  0  0  0  0
   -3.7232   -3.0203   -0.0186 O   0  0  0  0  0  0
   -5.2942   -1.8568    1.8220 C   0  0  0  0  0  0
    1.1555    1.6781   -0.2943 C   0  0  0  0  0  0
    2.1674    1.4809    0.6357 C   0  0  0  0  0  0
    2.9491    0.3428    0.5730 C   0  0  0  0  0  0
    2.7237   -0.5991   -0.4160 C   0  0  0  0  0  0
    1.7170   -0.4042   -1.3431 C   0  0  0  0  0  0
    0.9286    0.7286   -1.2813 C   0  0  0  0  0  0
    3.7222   -2.0488   -0.4937 S   0  0  0  0  0  0
    3.5562   -2.6153    0.7988 O   0  0  0  0  0  0
    3.2490   -2.6946   -1.6677 O   0  0  0  0  0  0
    5.3952   -1.3864   -0.7234 C   0  0  0  0  0  0
    4.2147    0.0946    1.7350 Cl  0  0  0  0  0  0
   -2.4151    4.5215   -0.0104 H   0  0  0  0  0  0
   -0.2046    6.0292   -0.1782 H   0  0  0  0  0  0
    1.8524    4.4172   -0.3440 H   0  0  0  0  0  0
   -0.3623    0.3503    0.6487 H   0  0  0  0  0  0
   -1.8520   -1.6039    0.7538 H   0  0  0  0  0  0
   -5.1048    0.7760   -0.6455 H   0  0  0  0  0  0
   -3.6336    2.7443   -0.7515 H   0  0  0  0  0  0
   -5.9748   -2.6930    1.9821 H   0  0  0  0  0  0
   -4.4759   -1.9119    2.5400 H   0  0  0  0  0  0
   -5.8330   -0.9189    1.9565 H   0  0  0  0  0  0
    2.3438    2.2161    1.4069 H   0  0  0  0  0  0
    1.5436   -1.1406   -2.1138 H   0  0  0  0  0  0
    0.1424    0.8799   -2.0061 H   0  0  0  0  0  0
    6.1067   -2.2099   -0.7855 H   0  0  0  0  0  0
    5.4322   -0.8041   -1.6440 H   0  0  0  0  0  0
    5.6521   -0.7473    0.1214 H   0  0  0  0  0  0
  1  2  1  0  0  0
  1  5  1  0  0  0
  1 16  1  0  0  0
  2  3  2  0  0  0
  2  6  1  0  0  0
  3  4  1  0  0  0
  3 27  1  0  0  0
  4  5  2  0  0  0
  4 28  1  0  0  0
  5 29  1  0  0  0
  6  7  1  0  0  0
  6 11  2  0  0  0
  7  8  2  0  0  0
  7 30  1  0  0  0
  8  9  1  0  0  0
  8 31  1  0  0  0
  9 10  2  0  0  0
  9 12  1  0  0  0
 10 11  1  0  0  0
 10 32  1  0  0  0
 11 33  1  0  0  0
 12 13  2  0  0  0
 12 14  2  0  0  0
 12 15  1  0  0  0
 15 34  1  0  0  0
 15 35  1  0  0  0
 15 36  1  0  0  0
 16 17  1  0  0  0
 16 21  2  0  0  0
 17 18  2  0  0  0
 17 37  1  0  0  0
 18 19  1  0  0  0
 18 26  1  0  0  0
 19 20  2  0  0  0
 19 22  1  0  0  0
 20 21  1  0  0  0
 20 38  1  0  0  0
 21 39  1  0  0  0
 22 23  2  0  0  0
 22 24  2  0  0  0
 22 25  1  0  0  0
 25 40  1  0  0  0
 25 41  1  0  0  0
 25 42  1  0  0  0
M  END
>  <Activity>
4

>  <set>
3

>  <Min_dist>
0.209677

>  <Avg_dist>
0.509567

$$$$
1-21
  Cerius2 12110214513D 1   1.00000                          
 
 44 46  0  0  0  0  0  0  0  0999 V2000
    0.4658    3.0534    0.0042 N   0  0  0  0  0  0
   -0.9052    2.9723    0.0262 C   0  0  0  0  0  0
   -1.3985    4.2419    0.0624 C   0  0  0  0  0  0
   -0.3010    5.1187    0.0624 C   0  0  0  0  0  0
    0.8232    4.3708    0.0266 C   0  0  0  0  0  0
   -1.7038    1.7283    0.0126 C   0  0  0  0  0  0
   -1.1386    0.5278    0.4454 C   0  0  0  0  0  0
   -1.8894   -0.6295    0.4306 C   0  0  0  0  0  0
   -3.1999   -0.6018   -0.0125 C   0  0  0  0  0  0
   -3.7662    0.5849   -0.4428 C   0  0  0  0  0  0
   -3.0281    1.7504   -0.4277 C   0  0  0  0  0  0
   -4.1516   -2.0846   -0.0292 S   0  0  0  0  0  0
   -5.1040   -1.8361   -1.0541 O   0  0  0  0  0  0
   -3.1592   -3.0945   -0.1495 O   0  0  0  0  0  0
   -4.9240   -2.0985    1.6120 C   0  0  0  0  0  0
    1.3494    1.9663   -0.0296 C   0  0  0  0  0  0
    2.3151    1.8240    0.9577 C   0  0  0  0  0  0
    3.1846    0.7514    0.9217 C   0  0  0  0  0  0
    3.0940   -0.1800   -0.0962 C   0  0  0  0  0  0
    2.1335   -0.0407   -1.0812 C   0  0  0  0  0  0
    1.2571    1.0263   -1.0472 C   0  0  0  0  0  0
    4.2051   -1.5469   -0.1387 S   0  0  0  0  0  0
    4.2311   -1.9814   -1.4914 O   0  0  0  0  0  0
    5.3389   -1.1465    0.6185 O   0  0  0  0  0  0
    3.5055   -2.7803    0.7166 N   0  0  0  0  0  0
    2.2109   -3.3215    0.2955 C   0  0  0  0  0  0
   -2.4411    4.5224    0.0860 H   0  0  0  0  0  0
   -0.3477    6.1974    0.0864 H   0  0  0  0  0  0
    1.8341    4.7508    0.0177 H   0  0  0  0  0  0
   -0.1155    0.5047    0.7908 H   0  0  0  0  0  0
   -1.4533   -1.5591    0.7652 H   0  0  0  0  0  0
   -4.7896    0.5997   -0.7875 H   0  0  0  0  0  0
   -3.4714    2.6761   -0.7636 H   0  0  0  0  0  0
   -5.5463   -2.9876    1.7132 H   0  0  0  0  0  0
   -4.1488   -2.1085    2.3783 H   0  0  0  0  0  0
   -5.5408   -1.2078    1.7308 H   0  0  0  0  0  0
    2.3866    2.5514    1.7528 H   0  0  0  0  0  0
    3.9363    0.6404    1.6892 H   0  0  0  0  0  0
    2.0654   -0.7697   -1.8752 H   0  0  0  0  0  0
    0.5069    1.1344   -1.8165 H   0  0  0  0  0  0
    3.9529   -3.1445    1.4965 H   0  0  0  0  0  0
    1.9128   -4.1204    0.9746 H   0  0  0  0  0  0
    1.4622   -2.5296    0.3154 H   0  0  0  0  0  0
    2.2944   -3.7173   -0.7166 H   0  0  0  0  0  0
  1  2  1  0  0  0
  1  5  1  0  0  0
  1 16  1  0  0  0
  2  3  2  0  0  0
  2  6  1  0  0  0
  3  4  1  0  0  0
  3 27  1  0  0  0
  4  5  2  0  0  0
  4 28  1  0  0  0
  5 29  1  0  0  0
  6  7  1  0  0  0
  6 11  2  0  0  0
  7  8  2  0  0  0
  7 30  1  0  0  0
  8  9  1  0  0  0
  8 31  1  0  0  0
  9 10  2  0  0  0
  9 12  1  0  0  0
 10 11  1  0  0  0
 10 32  1  0  0  0
 11 33  1  0  0  0
 12 13  2  0  0  0
 12 14  2  0  0  0
 12 15  1  0  0  0
 15 34  1  0  0  0
 15 35  1  0  0  0
 15 36  1  0  0  0
 16 17  1  0  0  0
 16 21  2  0  0  0
 17 18  2  0  0  0
 17 37  1  0  0  0
 18 19  1  0  0  0
 18 38  1  0  0  0
 19 20  2  0  0  0
 19 22  1  0  0  0
 20 21  1  0  0  0
 20 39  1  0  0  0
 21 40  1  0  0  0
 22 23  2  0  0  0
 22 24  2  0  0  0
 22 25  1  0  0  0
 25 26  1  0  0  0
 25 41  1  0  0  0
 26 42  1  0  0  0
 26 43  1  0  0  0
 26 44  1  0  0  0
M  END
>  <Activity>
4

>  <set>
3

>  <Min_dist>
0.276923

>  <Avg_dist>
0.572992

$$$$
1-22
  Cerius2 12110214513D 1   1.00000                          
 
 47 49  0  0  0  0  0  0  0  0999 V2000
    0.0203    3.1868    0.0365 N   0  0  0  0  0  0
   -1.3360    2.9764    0.0898 C   0  0  0  0  0  0
   -1.9442    4.1922    0.1818 C   0  0  0  0  0  0
   -0.9336    5.1679    0.1848 C   0  0  0  0  0  0
    0.2539    4.5306    0.0954 C   0  0  0  0  0  0
   -2.0153    1.6639    0.0532 C   0  0  0  0  0  0
   -1.3288    0.5086    0.4303 C   0  0  0  0  0  0
   -1.9687   -0.7130    0.3943 C   0  0  0  0  0  0
   -3.2879   -0.7946   -0.0149 C   0  0  0  0  0  0
   -3.9742    0.3468   -0.3900 C   0  0  0  0  0  0
   -3.3477    1.5754   -0.3531 C   0  0  0  0  0  0
   -4.0974   -2.3590   -0.0590 S   0  0  0  0  0  0
   -5.0972   -2.1685   -1.0507 O   0  0  0  0  0  0
   -3.0190   -3.2668   -0.2386 O   0  0  0  0  0  0
   -4.8190   -2.4979    1.5995 C   0  0  0  0  0  0
    1.0000    2.1892   -0.0565 C   0  0  0  0  0  0
    2.0020    2.1069    0.9010 C   0  0  0  0  0  0
    2.9663    1.1226    0.8066 C   0  0  0  0  0  0
    2.9345    0.2197   -0.2403 C   0  0  0  0  0  0
    1.9381    0.2994   -1.1957 C   0  0  0  0  0  0
    0.9674    1.2777   -1.1033 C   0  0  0  0  0  0
    4.1664   -1.0346   -0.3573 S   0  0  0  0  0  0
    4.1951   -1.4213   -1.7244 O   0  0  0  0  0  0
    5.2787   -0.5537    0.3849 O   0  0  0  0  0  0
    3.6090   -2.3550    0.4722 N   0  0  0  0  0  0
    2.8179   -3.3750   -0.2207 C   0  0  0  0  0  0
    3.9069   -2.5032    1.8989 C   0  0  0  0  0  0
   -3.0074    4.3725    0.2410 H   0  0  0  0  0  0
   -1.0799    6.2361    0.2470 H   0  0  0  0  0  0
    1.2243    5.0040    0.0744 H   0  0  0  0  0  0
   -0.2988    0.5709    0.7491 H   0  0  0  0  0  0
   -1.4387   -1.6077    0.6858 H   0  0  0  0  0  0
   -5.0037    0.2763   -0.7084 H   0  0  0  0  0  0
   -3.8846    2.4656   -0.6458 H   0  0  0  0  0  0
   -5.3527   -3.4444    1.6854 H   0  0  0  0  0  0
   -4.0252   -2.4594    2.3454 H   0  0  0  0  0  0
   -5.5126   -1.6734    1.7641 H   0  0  0  0  0  0
    2.0276    2.8120    1.7187 H   0  0  0  0  0  0
    3.7462    1.0582    1.5509 H   0  0  0  0  0  0
    1.9160   -0.4070   -2.0124 H   0  0  0  0  0  0
    0.1892    1.3392   -1.8496 H   0  0  0  0  0  0
    2.5426   -4.1610    0.4825 H   0  0  0  0  0  0
    1.9153   -2.9198   -0.6284 H   0  0  0  0  0  0
    3.4072   -3.8030   -1.0316 H   0  0  0  0  0  0
    4.5009   -1.6537    2.2362 H   0  0  0  0  0  0
    2.9748   -2.5414    2.4627 H   0  0  0  0  0  0
    4.4667   -3.4246    2.0594 H   0  0  0  0  0  0
  1  2  1  0  0  0
  1  5  1  0  0  0
  1 16  1  0  0  0
  2  3  2  0  0  0
  2  6  1  0  0  0
  3  4  1  0  0  0
  3 28  1  0  0  0
  4  5  2  0  0  0
  4 29  1  0  0  0
  5 30  1  0  0  0
  6  7  1  0  0  0
  6 11  2  0  0  0
  7  8  2  0  0  0
  7 31  1  0  0  0
  8  9  1  0  0  0
  8 32  1  0  0  0
  9 10  2  0  0  0
  9 12  1  0  0  0
 10 11  1  0  0  0
 10 33  1  0  0  0
 11 34  1  0  0  0
 12 13  2  0  0  0
 12 14  2  0  0  0
 12 15  1  0  0  0
 15 35  1  0  0  0
 15 36  1  0  0  0
 15 37  1  0  0  0
 16 17  1  0  0  0
 16 21  2  0  0  0
 17 18  2  0  0  0
 17 38  1  0  0  0
 18 19  1  0  0  0
 18 39  1  0  0  0
 19 20  2  0  0  0
 19 22  1  0  0  0
 20 21  1  0  0  0
 20 40  1  0  0  0
 21 41  1  0  0  0
 22 23  2  0  0  0
 22 24  2  0  0  0
 22 25  1  0  0  0
 25 26  1  0  0  0
 25 27  1  0  0  0
 26 42  1  0  0  0
 26 43  1  0  0  0
 26 44  1  0  0  0
 27 45  1  0  0  0
 27 46  1  0  0  0
 27 47  1  0  0  0
M  END
>  <Activity>
4

>  <set>
3

>  <Min_dist>
0.276923

>  <Avg_dist>
0.571276

$$$$
1-27
  Cerius2 12110214513D 1   1.00000                          
 
 39 41  0  0  0  0  0  0  0  0999 V2000
    1.7234    0.7698   -0.0069 N   0  0  0  0  0  0
    0.6405    1.6139   -0.0356 C   0  0  0  0  0  0
    1.1085    2.8931   -0.0742 C   0  0  0  0  0  0
    2.5115    2.8268   -0.0689 C   0  0  0  0  0  0
    2.8617    1.5229   -0.0277 C   0  0  0  0  0  0
    4.2710    0.9896   -0.0074 C   0  0  0  0  0  0
    5.1742    2.0576   -0.0386 F   0  0  0  0  0  0
    4.4708    0.2439    1.1593 F   0  0  0  0  0  0
    4.4765    0.1724   -1.1242 F   0  0  0  0  0  0
   -0.7807    1.2070   -0.0263 C   0  0  0  0  0  0
   -1.7119    1.9300    0.7209 C   0  0  0  0  0  0
   -3.0366    1.5449    0.7254 C   0  0  0  0  0  0
   -3.4429    0.4447   -0.0087 C   0  0  0  0  0  0
   -2.5249   -0.2763   -0.7515 C   0  0  0  0  0  0
   -1.1982    0.1016   -0.7692 C   0  0  0  0  0  0
   -5.1366   -0.0406    0.0029 S   0  0  0  0  0  0
   -5.0676   -1.4318   -0.2785 O   0  0  0  0  0  0
   -5.5978    0.4551    1.2523 O   0  0  0  0  0  0
   -5.8422    0.8882   -1.3863 C   0  0  0  0  0  0
    1.6689   -0.6304    0.0416 C   0  0  0  0  0  0
    2.2418   -1.3839   -0.9740 C   0  0  0  0  0  0
    2.1871   -2.7630   -0.9245 C   0  0  0  0  0  0
    1.5609   -3.3943    0.1371 C   0  0  0  0  0  0
    0.9885   -2.6444    1.1509 C   0  0  0  0  0  0
    1.0470   -1.2652    1.1082 C   0  0  0  0  0  0
    1.5080   -4.7434    0.1837 F   0  0  0  0  0  0
    0.5108    3.7922   -0.1035 H   0  0  0  0  0  0
    3.1889    3.6677   -0.0940 H   0  0  0  0  0  0
   -1.3960    2.7888    1.2946 H   0  0  0  0  0  0
   -3.7581    2.1033    1.3034 H   0  0  0  0  0  0
   -2.8485   -1.1341   -1.3224 H   0  0  0  0  0  0
   -0.4826   -0.4620   -1.3494 H   0  0  0  0  0  0
   -6.9046    0.6604   -1.4735 H   0  0  0  0  0  0
   -5.7128    1.9564   -1.2123 H   0  0  0  0  0  0
   -5.3333    0.6059   -2.3080 H   0  0  0  0  0  0
    2.7297   -0.8919   -1.8024 H   0  0  0  0  0  0
    2.6327   -3.3495   -1.7143 H   0  0  0  0  0  0
    0.4999   -3.1385    1.9777 H   0  0  0  0  0  0
    0.6008   -0.6807    1.8992 H   0  0  0  0  0  0
  1  2  1  0  0  0
  1  5  1  0  0  0
  1 20  1  0  0  0
  2  3  2  0  0  0
  2 10  1  0  0  0
  3  4  1  0  0  0
  3 27  1  0  0  0
  4  5  2  0  0  0
  4 28  1  0  0  0
  5  6  1  0  0  0
  6  7  1  0  0  0
  6  8  1  0  0  0
  6  9  1  0  0  0
 10 11  1  0  0  0
 10 15  2  0  0  0
 11 12  2  0  0  0
 11 29  1  0  0  0
 12 13  1  0  0  0
 12 30  1  0  0  0
 13 14  2  0  0  0
 13 16  1  0  0  0
 14 15  1  0  0  0
 14 31  1  0  0  0
 15 32  1  0  0  0
 16 17  2  0  0  0
 16 18  2  0  0  0
 16 19  1  0  0  0
 19 33  1  0  0  0
 19 34  1  0  0  0
 19 35  1  0  0  0
 20 21  1  0  0  0
 20 25  2  0  0  0
 21 22  2  0  0  0
 21 36  1  0  0  0
 22 23  1  0  0  0
 22 37  1  0  0  0
 23 24  2  0  0  0
 23 26  1  0  0  0
 24 25  1  0  0  0
 24 38  1  0  0  0
 25 39  1  0  0  0
M  END
>  <Activity>
4

>  <set>
3

>  <Min_dist>
0.1

>  <Avg_dist>
0.48208

$$$$
3-16
  Cerius2 12110214513D 1   1.00000                          
 
 43 45  0  0  0  0  0  0  0  0999 V2000
    1.8238    0.0474   -0.0077 C   0  0  0  0  0  0
    1.2769   -1.2050   -0.0179 N   0  0  0  0  0  0
    2.3187   -2.0959   -0.0069 C   0  0  0  0  0  0
    3.4566   -1.3723    0.0095 C   0  0  0  0  0  0
    3.1328   -0.0740    0.0087 N   0  0  0  0  0  0
    4.8561   -1.9312    0.0264 C   0  0  0  0  0  0
    5.7782   -0.8793    0.0407 F   0  0  0  0  0  0
    5.0297   -2.7192    1.1693 F   0  0  0  0  0  0
    5.0593   -2.7141   -1.1151 F   0  0  0  0  0  0
   -0.0888   -1.5188   -0.0358 C   0  0  0  0  0  0
   -0.6318   -2.3189    0.9605 C   0  0  0  0  0  0
   -1.9781   -2.6264    0.9402 C   0  0  0  0  0  0
   -2.7850   -2.1387   -0.0713 C   0  0  0  0  0  0
   -2.2471   -1.3415   -1.0650 C   0  0  0  0  0  0
   -0.9027   -1.0254   -1.0466 C   0  0  0  0  0  0
   -4.5019   -2.5341   -0.0944 S   0  0  0  0  0  0
   -4.8293   -2.4355   -1.4736 O   0  0  0  0  0  0
   -4.5501   -3.7692    0.6067 O   0  0  0  0  0  0
   -5.2486   -1.1897    0.8677 C   0  0  0  0  0  0
    1.0722    1.3207   -0.0196 C   0  0  0  0  0  0
   -0.2634    1.3499    0.3842 C   0  0  0  0  0  0
   -0.9590    2.5413    0.3708 C   0  0  0  0  0  0
   -0.3355    3.7052   -0.0423 C   0  0  0  0  0  0
    0.9881    3.6830   -0.4443 C   0  0  0  0  0  0
    1.6970    2.4995   -0.4292 C   0  0  0  0  0  0
   -1.2314    5.2225   -0.0570 S   0  0  0  0  0  0
   -0.4553    5.9582   -0.9928 O   0  0  0  0  0  0
   -0.8765    5.8141    1.6207 C   0  0  0  0  0  0
    2.2426   -3.1732   -0.0103 H   0  0  0  0  0  0
   -0.0019   -2.7008    1.7504 H   0  0  0  0  0  0
   -2.4011   -3.2488    1.7149 H   0  0  0  0  0  0
   -2.8797   -0.9623   -1.8539 H   0  0  0  0  0  0
   -0.4832   -0.4025   -1.8228 H   0  0  0  0  0  0
   -6.3276   -1.3355    0.9190 H   0  0  0  0  0  0
   -4.8336   -1.1902    1.8755 H   0  0  0  0  0  0
   -5.0334   -0.2356    0.3865 H   0  0  0  0  0  0
   -0.7514    0.4419    0.7062 H   0  0  0  0  0  0
   -1.9926    2.5653    0.6830 H   0  0  0  0  0  0
    1.4690    4.5950   -0.7659 H   0  0  0  0  0  0
    2.7303    2.4835   -0.7429 H   0  0  0  0  0  0
   -1.3714    6.7721    1.7804 H   0  0  0  0  0  0
   -1.2445    5.0894    2.3469 H   0  0  0  0  0  0
    0.1998    5.9363    1.7428 H   0  0  0  0  0  0
  1  2  1  0  0  0
  1  5  2  0  0  0
  1 20  1  0  0  0
  2  3  1  0  0  0
  2 10  1  0  0  0
  3  4  2  0  0  0
  3 29  1  0  0  0
  4  5  1  0  0  0
  4  6  1  0  0  0
  6  7  1  0  0  0
  6  8  1  0  0  0
  6  9  1  0  0  0
 10 11  1  0  0  0
 10 15  2  0  0  0
 11 12  2  0  0  0
 11 30  1  0  0  0
 12 13  1  0  0  0
 12 31  1  0  0  0
 13 14  2  0  0  0
 13 16  1  0  0  0
 14 15  1  0  0  0
 14 32  1  0  0  0
 15 33  1  0  0  0
 16 17  2  0  0  0
 16 18  2  0  0  0
 16 19  1  0  0  0
 19 34  1  0  0  0
 19 35  1  0  0  0
 19 36  1  0  0  0
 20 21  1  0  0  0
 20 25  2  0  0  0
 21 22  2  0  0  0
 21 37  1  0  0  0
 22 23  1  0  0  0
 22 38  1  0  0  0
 23 24  2  0  0  0
 23 26  1  0  0  0
 24 25  1  0  0  0
 24 39  1  0  0  0
 25 40  1  0  0  0
 26 27  2  0  0  0
 26 28  1  0  0  0
 28 41  1  0  0  0
 28 42  1  0  0  0
 28 43  1  0  0  0
M  END
>  <Activity>
4

>  <set>
3

>  <Min_dist>
0.041096

>  <Avg_dist>
0.442456

$$$$
3-41
  Cerius2 12110214513D 1   1.00000                          
 
 42 44  0  0  0  0  0  0  0  0999 V2000
    1.5928    0.3143    0.3073 C   0  0  0  0  0  0
    0.7826   -0.7623    0.0776 N   0  0  0  0  0  0
    1.5997   -1.8561   -0.0556 C   0  0  0  0  0  0
    2.8673   -1.4224    0.0945 C   0  0  0  0  0  0
    2.8402   -0.1021    0.3139 N   0  0  0  0  0  0
    4.1052   -2.2791    0.0275 C   0  0  0  0  0  0
    5.2362   -1.4809    0.2300 F   0  0  0  0  0  0
    4.0454   -3.2634    1.0198 F   0  0  0  0  0  0
    4.1834   -2.8882   -1.2295 F   0  0  0  0  0  0
   -0.6163   -0.7509   -0.0056 C   0  0  0  0  0  0
   -1.3690   -1.5754    0.8198 C   0  0  0  0  0  0
   -2.7475   -1.5620    0.7354 C   0  0  0  0  0  0
   -3.3781   -0.7288   -0.1703 C   0  0  0  0  0  0
   -2.6312    0.0933   -0.9940 C   0  0  0  0  0  0
   -1.2526    0.0891   -0.9097 C   0  0  0  0  0  0
   -5.1369   -0.7149   -0.2753 S   0  0  0  0  0  0
   -5.3693   -0.2956   -1.6130 O   0  0  0  0  0  0
   -5.4900   -2.0135    0.1811 O   0  0  0  0  0  0
   -5.6121    0.5654    0.9186 C   0  0  0  0  0  0
    1.1445    1.7080    0.5077 C   0  0  0  0  0  0
    1.7653    2.7539   -0.1869 C   0  0  0  0  0  0
    1.3377    4.0570    0.0079 C   0  0  0  0  0  0
    0.3028    4.3229    0.8848 C   0  0  0  0  0  0
   -0.3132    3.2922    1.5729 C   0  0  0  0  0  0
    0.0969    1.9882    1.3853 C   0  0  0  0  0  0
    2.7826    2.4916   -1.0474 O   0  0  0  0  0  0
    3.1983    3.7464   -1.5903 C   0  0  0  0  0  0
    1.2868   -2.8723   -0.2449 H   0  0  0  0  0  0
   -0.8770   -2.2269    1.5268 H   0  0  0  0  0  0
   -3.3335   -2.2031    1.3772 H   0  0  0  0  0  0
   -3.1265    0.7424   -1.7009 H   0  0  0  0  0  0
   -0.6697    0.7316   -1.5530 H   0  0  0  0  0  0
   -6.6978    0.6605    0.9366 H   0  0  0  0  0  0
   -5.2553    0.2878    1.9104 H   0  0  0  0  0  0
   -5.1689    1.5174    0.6263 H   0  0  0  0  0  0
    1.8138    4.8663   -0.5257 H   0  0  0  0  0  0
   -0.0267    5.3406    1.0340 H   0  0  0  0  0  0
   -1.1211    3.5089    2.2561 H   0  0  0  0  0  0
   -0.3863    1.1866    1.9241 H   0  0  0  0  0  0
    4.0178    3.5856   -2.2907 H   0  0  0  0  0  0
    2.3615    4.2121   -2.1109 H   0  0  0  0  0  0
    3.5325    4.3985   -0.7835 H   0  0  0  0  0  0
  1  2  1  0  0  0
  1  5  2  0  0  0
  1 20  1  0  0  0
  2  3  1  0  0  0
  2 10  1  0  0  0
  3  4  2  0  0  0
  3 28  1  0  0  0
  4  5  1  0  0  0
  4  6  1  0  0  0
  6  7  1  0  0  0
  6  8  1  0  0  0
  6  9  1  0  0  0
 10 11  1  0  0  0
 10 15  2  0  0  0
 11 12  2  0  0  0
 11 29  1  0  0  0
 12 13  1  0  0  0
 12 30  1  0  0  0
 13 14  2  0  0  0
 13 16  1  0  0  0
 14 15  1  0  0  0
 14 31  1  0  0  0
 15 32  1  0  0  0
 16 17  2  0  0  0
 16 18  2  0  0  0
 16 19  1  0  0  0
 19 33  1  0  0  0
 19 34  1  0  0  0
 19 35  1  0  0  0
 20 21  1  0  0  0
 20 25  2  0  0  0
 21 22  2  0  0  0
 21 26  1  0  0  0
 22 23  1  0  0  0
 22 36  1  0  0  0
 23 24  2  0  0  0
 23 37  1  0  0  0
 24 25  1  0  0  0
 24 38  1  0  0  0
 25 39  1  0  0  0
 26 27  1  0  0  0
 27 40  1  0  0  0
 27 41  1  0  0  0
 27 42  1  0  0  0
M  END
>  <Activity>
4

>  <set>
3

>  <Min_dist>
0.063291

>  <Avg_dist>
0.462632

$$$$
3-64
  Cerius2 12110214523D 1   1.00000                          
 
 41 43  0  0  0  0  0  0  0  0999 V2000
    1.7356    0.4961    0.0572 C   0  0  0  0  0  0
    1.0369   -0.6779    0.0212 N   0  0  0  0  0  0
    1.9582   -1.6923    0.0560 C   0  0  0  0  0  0
    3.1768   -1.1170    0.1114 C   0  0  0  0  0  0
    3.0180    0.2116    0.1111 N   0  0  0  0  0  0
    4.4941   -1.8469    0.1651 C   0  0  0  0  0  0
    5.5398   -0.9189    0.2147 F   0  0  0  0  0  0
    4.5333   -2.6550    1.3064 F   0  0  0  0  0  0
    4.6321   -2.6445   -0.9760 F   0  0  0  0  0  0
   -0.3561   -0.8180   -0.0396 C   0  0  0  0  0  0
   -1.0227   -1.5652    0.9222 C   0  0  0  0  0  0
   -2.3958   -1.7015    0.8596 C   0  0  0  0  0  0
   -3.1064   -1.0946   -0.1597 C   0  0  0  0  0  0
   -2.4453   -0.3502   -1.1193 C   0  0  0  0  0  0
   -1.0731   -0.2051   -1.0585 C   0  0  0  0  0  0
   -4.8579   -1.2708   -0.2361 S   0  0  0  0  0  0
   -5.1313   -1.1023   -1.6204 O   0  0  0  0  0  0
   -5.0799   -2.5048    0.4327 O   0  0  0  0  0  0
   -5.4578    0.1357    0.7398 C   0  0  0  0  0  0
    1.1499    1.8536    0.0331 C   0  0  0  0  0  0
    1.6367    2.8110   -0.8584 C   0  0  0  0  0  0
    1.0869    4.0761   -0.8769 C   0  0  0  0  0  0
    0.0545    4.3982   -0.0142 C   0  0  0  0  0  0
   -0.4341    3.4533    0.8736 C   0  0  0  0  0  0
    0.1048    2.1808    0.8974 C   0  0  0  0  0  0
   -1.4422    3.7748    1.7136 F   0  0  0  0  0  0
    2.7615    2.4633   -1.7990 C   0  0  0  0  0  0
    1.7481   -2.7515    0.0417 H   0  0  0  0  0  0
   -0.4682   -2.0397    1.7183 H   0  0  0  0  0  0
   -2.9148   -2.2829    1.6072 H   0  0  0  0  0  0
   -3.0030    0.1223   -1.9143 H   0  0  0  0  0  0
   -0.5573    0.3767   -1.8080 H   0  0  0  0  0  0
   -6.5475    0.1255    0.7601 H   0  0  0  0  0  0
   -5.0747    0.0615    1.7575 H   0  0  0  0  0  0
   -5.1115    1.0654    0.2881 H   0  0  0  0  0  0
    1.4636    4.8171   -1.5663 H   0  0  0  0  0  0
   -0.3721    5.3902   -0.0326 H   0  0  0  0  0  0
   -0.2763    1.4443    1.5892 H   0  0  0  0  0  0
    2.3495    2.0719   -2.7291 H   0  0  0  0  0  0
    3.3486    3.3572   -2.0095 H   0  0  0  0  0  0
    3.4001    1.7093   -1.3388 H   0  0  0  0  0  0
  1  2  1  0  0  0
  1  5  2  0  0  0
  1 20  1  0  0  0
  2  3  1  0  0  0
  2 10  1  0  0  0
  3  4  2  0  0  0
  3 28  1  0  0  0
  4  5  1  0  0  0
  4  6  1  0  0  0
  6  7  1  0  0  0
  6  8  1  0  0  0
  6  9  1  0  0  0
 10 11  1  0  0  0
 10 15  2  0  0  0
 11 12  2  0  0  0
 11 29  1  0  0  0
 12 13  1  0  0  0
 12 30  1  0  0  0
 13 14  2  0  0  0
 13 16  1  0  0  0
 14 15  1  0  0  0
 14 31  1  0  0  0
 15 32  1  0  0  0
 16 17  2  0  0  0
 16 18  2  0  0  0
 16 19  1  0  0  0
 19 33  1  0  0  0
 19 34  1  0  0  0
 19 35  1  0  0  0
 20 21  1  0  0  0
 20 25  2  0  0  0
 21 22  2  0  0  0
 21 27  1  0  0  0
 22 23  1  0  0  0
 22 36  1  0  0  0
 23 24  2  0  0  0
 23 37  1  0  0  0
 24 25  1  0  0  0
 24 26  1  0  0  0
 25 38  1  0  0  0
 27 39  1  0  0  0
 27 40  1  0  0  0
 27 41  1  0  0  0
M  END
>  <Activity>
4

>  <set>
3

>  <Min_dist>
0.04

>  <Avg_dist>
0.432777

$$$$
3-65
  Cerius2 12110214523D 1   1.00000                          
 
 41 43  0  0  0  0  0  0  0  0999 V2000
    1.7118    0.5296   -0.0513 C   0  0  0  0  0  0
    0.9837   -0.6255   -0.1100 N   0  0  0  0  0  0
    1.8798   -1.6632   -0.1069 C   0  0  0  0  0  0
    3.1126   -1.1199   -0.0473 C   0  0  0  0  0  0
    2.9872    0.2120   -0.0144 N   0  0  0  0  0  0
    4.4116   -1.8834   -0.0213 C   0  0  0  0  0  0
    5.4805   -0.9830    0.0422 F   0  0  0  0  0  0
    4.4388   -2.7193    1.1002 F   0  0  0  0  0  0
    4.5215   -2.6565   -1.1820 F   0  0  0  0  0  0
   -0.4128   -0.7296   -0.1627 C   0  0  0  0  0  0
   -1.0900   -1.4888    0.7821 C   0  0  0  0  0  0
   -2.4664   -1.5895    0.7275 C   0  0  0  0  0  0
   -3.1700   -0.9350   -0.2669 C   0  0  0  0  0  0
   -2.4983   -0.1784   -1.2095 C   0  0  0  0  0  0
   -1.1225   -0.0689   -1.1565 C   0  0  0  0  0  0
   -4.9259   -1.0658   -0.3332 S   0  0  0  0  0  0
   -5.2062   -0.8490   -1.7093 O   0  0  0  0  0  0
   -5.1730   -2.3136    0.3003 O   0  0  0  0  0  0
   -5.4828    0.3250    0.6896 C   0  0  0  0  0  0
    1.1602    1.9012   -0.0382 C   0  0  0  0  0  0
    1.5131    2.8083   -1.0384 C   0  0  0  0  0  0
    0.9951    4.0866   -1.0204 C   0  0  0  0  0  0
    0.1269    4.4711   -0.0137 C   0  0  0  0  0  0
   -0.2273    3.5782    0.9813 C   0  0  0  0  0  0
    0.2792    2.2932    0.9720 C   0  0  0  0  0  0
   -0.1661    1.1732    2.2214 Cl  0  0  0  0  0  0
    2.4587    2.3922   -2.1356 C   0  0  0  0  0  0
    1.6432   -2.7163   -0.1447 H   0  0  0  0  0  0
   -0.5410   -2.0005    1.5587 H   0  0  0  0  0  0
   -2.9937   -2.1802    1.4619 H   0  0  0  0  0  0
   -3.0506    0.3313   -1.9852 H   0  0  0  0  0  0
   -0.5985    0.5224   -1.8928 H   0  0  0  0  0  0
   -6.5723    0.3408    0.7191 H   0  0  0  0  0  0
   -5.0935    0.2108    1.7012 H   0  0  0  0  0  0
   -5.1173    1.2590    0.2629 H   0  0  0  0  0  0
    1.2679    4.7892   -1.7939 H   0  0  0  0  0  0
   -0.2756    5.4733   -0.0047 H   0  0  0  0  0  0
   -0.9050    3.8847    1.7643 H   0  0  0  0  0  0
    1.8899    1.9766   -2.9673 H   0  0  0  0  0  0
    3.0219    3.2602   -2.4784 H   0  0  0  0  0  0
    3.1484    1.6390   -1.7547 H   0  0  0  0  0  0
  1  2  1  0  0  0
  1  5  2  0  0  0
  1 20  1  0  0  0
  2  3  1  0  0  0
  2 10  1  0  0  0
  3  4  2  0  0  0
  3 28  1  0  0  0
  4  5  1  0  0  0
  4  6  1  0  0  0
  6  7  1  0  0  0
  6  8  1  0  0  0
  6  9  1  0  0  0
 10 11  1  0  0  0
 10 15  2  0  0  0
 11 12  2  0  0  0
 11 29  1  0  0  0
 12 13  1  0  0  0
 12 30  1  0  0  0
 13 14  2  0  0  0
 13 16  1  0  0  0
 14 15  1  0  0  0
 14 31  1  0  0  0
 15 32  1  0  0  0
 16 17  2  0  0  0
 16 18  2  0  0  0
 16 19  1  0  0  0
 19 33  1  0  0  0
 19 34  1  0  0  0
 19 35  1  0  0  0
 20 21  1  0  0  0
 20 25  2  0  0  0
 21 22  2  0  0  0
 21 27  1  0  0  0
 22 23  1  0  0  0
 22 36  1  0  0  0
 23 24  2  0  0  0
 23 37  1  0  0  0
 24 25  1  0  0  0
 24 38  1  0  0  0
 25 26  1  0  0  0
 27 39  1  0  0  0
 27 40  1  0  0  0
 27 41  1  0  0  0
M  END
>  <Activity>
4

>  <set>
3

>  <Min_dist>
0.027397

>  <Avg_dist>
0.436089

$$$$
3-83
  Cerius2 12110214523D 1   1.00000                          
 
 35 37  0  0  0  0  0  0  0  0999 V2000
    1.9570    2.0642   -0.0153 C   0  0  0  0  0  0
    0.6537    2.4736    0.0217 N   0  0  0  0  0  0
    0.6658    3.8444    0.0371 C   0  0  0  0  0  0
    1.9583    4.2280    0.0095 C   0  0  0  0  0  0
    2.7248    3.1315   -0.0221 N   0  0  0  0  0  0
   -0.4794    1.6491    0.0400 C   0  0  0  0  0  0
   -1.4538    1.7842   -0.9399 C   0  0  0  0  0  0
   -2.5692    0.9698   -0.9196 C   0  0  0  0  0  0
   -2.7160    0.0208    0.0754 C   0  0  0  0  0  0
   -1.7476   -0.1157    1.0529 C   0  0  0  0  0  0
   -0.6272    0.6918    1.0346 C   0  0  0  0  0  0
   -4.1404   -1.0161    0.0980 S   0  0  0  0  0  0
   -4.2613   -1.3555    1.4726 O   0  0  0  0  0  0
   -5.1140   -0.2288   -0.5739 O   0  0  0  0  0  0
   -3.6293   -2.4421   -0.9001 C   0  0  0  0  0  0
    2.4239    0.6615   -0.0374 C   0  0  0  0  0  0
    1.5630   -0.3570   -0.4490 C   0  0  0  0  0  0
    2.0041   -1.6637   -0.4675 C   0  0  0  0  0  0
    3.2984   -1.9660   -0.0787 C   0  0  0  0  0  0
    4.1569   -0.9598    0.3312 C   0  0  0  0  0  0
    3.7290    0.3514    0.3479 C   0  0  0  0  0  0
    3.8465   -3.6130   -0.1046 Cl  0  0  0  0  0  0
   -0.1965    4.4941    0.0656 H   0  0  0  0  0  0
    2.3146    5.2475    0.0120 H   0  0  0  0  0  0
   -1.3398    2.5254   -1.7170 H   0  0  0  0  0  0
   -3.3276    1.0746   -1.6813 H   0  0  0  0  0  0
   -1.8654   -0.8573    1.8292 H   0  0  0  0  0  0
    0.1290    0.5845    1.7982 H   0  0  0  0  0  0
   -4.4479   -3.1598   -0.9542 H   0  0  0  0  0  0
   -3.3717   -2.1084   -1.9052 H   0  0  0  0  0  0
   -2.7613   -2.9148   -0.4405 H   0  0  0  0  0  0
    0.5533   -0.1224   -0.7522 H   0  0  0  0  0  0
    1.3388   -2.4527   -0.7856 H   0  0  0  0  0  0
    5.1651   -1.2016    0.6337 H   0  0  0  0  0  0
    4.3996    1.1353    0.6675 H   0  0  0  0  0  0
  1  2  1  0  0  0
  1  5  2  0  0  0
  1 16  1  0  0  0
  2  3  1  0  0  0
  2  6  1  0  0  0
  3  4  2  0  0  0
  3 23  1  0  0  0
  4  5  1  0  0  0
  4 24  1  0  0  0
  6  7  1  0  0  0
  6 11  2  0  0  0
  7  8  2  0  0  0
  7 25  1  0  0  0
  8  9  1  0  0  0
  8 26  1  0  0  0
  9 10  2  0  0  0
  9 12  1  0  0  0
 10 11  1  0  0  0
 10 27  1  0  0  0
 11 28  1  0  0  0
 12 13  2  0  0  0
 12 14  2  0  0  0
 12 15  1  0  0  0
 15 29  1  0  0  0
 15 30  1  0  0  0
 15 31  1  0  0  0
 16 17  1  0  0  0
 16 21  2  0  0  0
 17 18  2  0  0  0
 17 32  1  0  0  0
 18 19  1  0  0  0
 18 33  1  0  0  0
 19 20  2  0  0  0
 19 22  1  0  0  0
 20 21  1  0  0  0
 20 34  1  0  0  0
 21 35  1  0  0  0
M  END
>  <Activity>
4

>  <set>
3

>  <Min_dist>
0.142857

>  <Avg_dist>
0.508564

$$$$
3-92
  Cerius2 12110214523D 1   1.00000                          
 
 37 39  0  0  0  0  0  0  0  0999 V2000
    2.1503   -0.1953    0.0238 C   0  0  0  0  0  0
    1.3067   -1.2736   -0.0166 N   0  0  0  0  0  0
    2.0770   -2.3941   -0.0302 C   0  0  0  0  0  0
    3.3891   -1.9745    0.0024 C   0  0  0  0  0  0
    3.3882   -0.6240    0.0347 N   0  0  0  0  0  0
    4.5760   -2.8405    0.0027 C   0  0  0  0  0  0
    4.4459   -4.0571   -0.0280 O   0  0  0  0  0  0
    5.6948   -2.3453    0.0337 O   0  0  0  0  0  0
   -0.0937   -1.2302   -0.0392 C   0  0  0  0  0  0
   -0.8264   -1.9073    0.9265 C   0  0  0  0  0  0
   -2.2066   -1.8626    0.9016 C   0  0  0  0  0  0
   -2.8589   -1.1448   -0.0841 C   0  0  0  0  0  0
   -2.1319   -0.4695   -1.0473 C   0  0  0  0  0  0
   -0.7514   -0.5053   -1.0240 C   0  0  0  0  0  0
   -4.6198   -1.0912   -0.1132 S   0  0  0  0  0  0
   -4.9051   -0.8558   -1.4852 O   0  0  0  0  0  0
   -4.9826   -2.3017    0.5366 O   0  0  0  0  0  0
   -5.0061    0.3575    0.9079 C   0  0  0  0  0  0
    1.7317    1.2231    0.0450 C   0  0  0  0  0  0
    0.5223    1.5876    0.6380 C   0  0  0  0  0  0
    0.1373    2.9121    0.6552 C   0  0  0  0  0  0
    0.9481    3.8791    0.0852 C   0  0  0  0  0  0
    2.1491    3.5232   -0.5052 C   0  0  0  0  0  0
    2.5473    2.2026   -0.5228 C   0  0  0  0  0  0
    0.4568    5.5439    0.1101 Cl  0  0  0  0  0  0
    1.7279   -3.4156   -0.0604 H   0  0  0  0  0  0
   -0.3176   -2.4686    1.6962 H   0  0  0  0  0  0
   -2.7771   -2.3890    1.6525 H   0  0  0  0  0  0
   -2.6442    0.0902   -1.8159 H   0  0  0  0  0  0
   -0.1842    0.0224   -1.7764 H   0  0  0  0  0  0
   -6.0870    0.4878    0.9596 H   0  0  0  0  0  0
   -4.6094    0.2101    1.9124 H   0  0  0  0  0  0
   -4.5539    1.2450    0.4653 H   0  0  0  0  0  0
   -0.1112    0.8342    1.0823 H   0  0  0  0  0  0
   -0.7985    3.1954    1.1139 H   0  0  0  0  0  0
    2.7771    4.2815   -0.9489 H   0  0  0  0  0  0
    3.4844    1.9262   -0.9832 H   0  0  0  0  0  0
  1  2  1  0  0  0
  1  5  2  0  0  0
  1 19  1  0  0  0
  2  3  1  0  0  0
  2  9  1  0  0  0
  3  4  2  0  0  0
  3 26  1  0  0  0
  4  5  1  0  0  0
  4  6  1  0  0  0
  6  7  2  0  0  0
  6  8  1  0  0  0
  9 10  1  0  0  0
  9 14  2  0  0  0
 10 11  2  0  0  0
 10 27  1  0  0  0
 11 12  1  0  0  0
 11 28  1  0  0  0
 12 13  2  0  0  0
 12 15  1  0  0  0
 13 14  1  0  0  0
 13 29  1  0  0  0
 14 30  1  0  0  0
 15 16  2  0  0  0
 15 17  2  0  0  0
 15 18  1  0  0  0
 18 31  1  0  0  0
 18 32  1  0  0  0
 18 33  1  0  0  0
 19 20  1  0  0  0
 19 24  2  0  0  0
 20 21  2  0  0  0
 20 34  1  0  0  0
 21 22  1  0  0  0
 21 35  1  0  0  0
 22 23  2  0  0  0
 22 25  1  0  0  0
 23 24  1  0  0  0
 23 36  1  0  0  0
 24 37  1  0  0  0
M  END
>  <Activity>
4

>  <set>
3

>  <Min_dist>
0.077922

>  <Avg_dist>
0.501641

$$$$
4-48
  Cerius2 12110214523D 1   1.00000                          
 
 40 42  0  0  0  0  0  0  0  0999 V2000
    1.8970    0.5958   -0.0286 C   0  0  0  0  0  0
    1.3090   -0.6378   -0.0297 N   0  0  0  0  0  0
    2.3205   -1.5625   -0.0008 C   0  0  0  0  0  0
    3.4817   -0.8768    0.0169 C   0  0  0  0  0  0
    3.2010    0.4313   -0.0005 N   0  0  0  0  0  0
    4.8616   -1.4816    0.0505 C   0  0  0  0  0  0
    5.8180   -0.4606    0.0609 F   0  0  0  0  0  0
    5.0006   -2.2626    1.2028 F   0  0  0  0  0  0
    5.0473   -2.2829   -1.0812 F   0  0  0  0  0  0
   -0.0662   -0.9064   -0.0550 C   0  0  0  0  0  0
   -0.6429   -1.6774    0.9454 C   0  0  0  0  0  0
   -1.9986   -1.9404    0.9177 C   0  0  0  0  0  0
   -2.7812   -1.4370   -0.1052 C   0  0  0  0  0  0
   -2.2097   -0.6688   -1.1030 C   0  0  0  0  0  0
   -0.8557   -0.3973   -1.0773 C   0  0  0  0  0  0
   -4.5100   -1.7757   -0.1377 S   0  0  0  0  0  0
   -4.9098   -1.6137   -1.4917 O   0  0  0  0  0  0
   -4.6873   -2.9537    0.6369 O   0  0  0  0  0  0
   -5.2673   -0.5664    0.7027 N   0  0  0  0  0  0
    1.1881    1.8932   -0.0602 C   0  0  0  0  0  0
   -0.1554    1.9784    0.3206 C   0  0  0  0  0  0
   -0.7745    3.2202    0.2727 C   0  0  0  0  0  0
   -0.0453    4.3247   -0.1475 C   0  0  0  0  0  0
    1.2202    4.2090   -0.4995 N   0  0  0  0  0  0
    1.8501    3.0529   -0.4646 C   0  0  0  0  0  0
   -2.0784    3.3531    0.6324 O   0  0  0  0  0  0
   -2.4117    4.7337    0.4747 C   0  0  0  0  0  0
    2.2087   -2.6367    0.0068 H   0  0  0  0  0  0
   -0.0321   -2.0714    1.7441 H   0  0  0  0  0  0
   -2.4478   -2.5400    1.6955 H   0  0  0  0  0  0
   -2.8234   -0.2774   -1.9008 H   0  0  0  0  0  0
   -0.4099    0.2031   -1.8567 H   0  0  0  0  0  0
   -6.2325   -0.5736    0.7991 H   0  0  0  0  0  0
   -4.7457    0.1492    1.0987 H   0  0  0  0  0  0
   -0.6969    1.1012    0.6428 H   0  0  0  0  0  0
   -0.5220    5.2930   -0.1869 H   0  0  0  0  0  0
    2.8873    3.0004   -0.7609 H   0  0  0  0  0  0
   -3.4540    4.8900    0.7529 H   0  0  0  0  0  0
   -1.7700    5.3380    1.1159 H   0  0  0  0  0  0
   -2.2655    5.0263   -0.5651 H   0  0  0  0  0  0
  1  2  1  0  0  0
  1  5  2  0  0  0
  1 20  1  0  0  0
  2  3  1  0  0  0
  2 10  1  0  0  0
  3  4  2  0  0  0
  3 28  1  0  0  0
  4  5  1  0  0  0
  4  6  1  0  0  0
  6  7  1  0  0  0
  6  8  1  0  0  0
  6  9  1  0  0  0
 10 11  1  0  0  0
 10 15  2  0  0  0
 11 12  2  0  0  0
 11 29  1  0  0  0
 12 13  1  0  0  0
 12 30  1  0  0  0
 13 14  2  0  0  0
 13 16  1  0  0  0
 14 15  1  0  0  0
 14 31  1  0  0  0
 15 32  1  0  0  0
 16 17  2  0  0  0
 16 18  2  0  0  0
 16 19  1  0  0  0
 19 33  1  0  0  0
 19 34  1  0  0  0
 20 21  1  0  0  0
 20 25  2  0  0  0
 21 22  2  0  0  0
 21 35  1  0  0  0
 22 23  1  0  0  0
 22 26  1  0  0  0
 23 24  2  0  0  0
 23 36  1  0  0  0
 24 25  1  0  0  0
 25 37  1  0  0  0
 26 27  1  0  0  0
 27 38  1  0  0  0
 27 39  1  0  0  0
 27 40  1  0  0  0
M  END
>  <Activity>
4

>  <set>
3

>  <Min_dist>
0.081395

>  <Avg_dist>
0.490184

$$$$
6-7D
  Cerius2 12110214523D 1   1.00000                          
 
 42 44  0  0  0  0  0  0  0  0999 V2000
    0.9960    2.4174    0.2694 C   0  0  0  0  0  0
   -0.2909    2.6579   -0.0132 C   0  0  0  0  0  0
   -0.5070    4.1274   -0.2917 C   0  0  0  0  0  0
    0.9060    4.6937   -0.5579 C   0  0  0  0  0  0
    1.7989    3.6966    0.2147 C   0  0  0  0  0  0
   -1.3486    1.6321   -0.0484 C   0  0  0  0  0  0
   -2.4506    1.7304    0.8051 C   0  0  0  0  0  0
   -3.4366    0.7667    0.7665 C   0  0  0  0  0  0
   -3.3361   -0.2958   -0.1143 C   0  0  0  0  0  0
   -2.2475   -0.4000   -0.9622 C   0  0  0  0  0  0
   -1.2572    0.5597   -0.9395 C   0  0  0  0  0  0
   -4.6004   -1.5224   -0.1560 S   0  0  0  0  0  0
   -3.9111   -2.6690   -0.6350 O   0  0  0  0  0  0
   -5.1426   -1.4607    1.1561 O   0  0  0  0  0  0
   -5.7622   -0.8767   -1.3904 C   0  0  0  0  0  0
    1.5506    1.0914    0.5947 C   0  0  0  0  0  0
    2.5550    0.5360   -0.2030 C   0  0  0  0  0  0
    3.0697   -0.7049    0.1063 C   0  0  0  0  0  0
    2.5929   -1.4018    1.2058 C   0  0  0  0  0  0
    1.5971   -0.8564    2.0006 C   0  0  0  0  0  0
    1.0785    0.3867    1.7051 C   0  0  0  0  0  0
    3.1006   -2.6179    1.5034 F   0  0  0  0  0  0
    4.1527   -1.3052   -0.7527 C   0  0  0  0  0  0
    5.2932   -1.5316    0.0253 F   0  0  0  0  0  0
    3.7050   -2.5178   -1.2878 F   0  0  0  0  0  0
    4.4652   -0.4235   -1.7929 F   0  0  0  0  0  0
   -1.1393    4.2578   -1.1699 H   0  0  0  0  0  0
   -0.9541    4.6156    0.5743 H   0  0  0  0  0  0
    1.1373    4.6796   -1.6230 H   0  0  0  0  0  0
    1.0051    5.7006   -0.1523 H   0  0  0  0  0  0
    1.9947    4.0646    1.2218 H   0  0  0  0  0  0
    2.7352    3.5339   -0.3191 H   0  0  0  0  0  0
   -2.5300    2.5588    1.4936 H   0  0  0  0  0  0
   -4.2889    0.8414    1.4256 H   0  0  0  0  0  0
   -2.1755   -1.2324   -1.6465 H   0  0  0  0  0  0
   -0.4083    0.4773   -1.6021 H   0  0  0  0  0  0
   -6.5981   -1.5676   -1.4990 H   0  0  0  0  0  0
   -6.1339    0.0953   -1.0660 H   0  0  0  0  0  0
   -5.2525   -0.7696   -2.3480 H   0  0  0  0  0  0
    2.9268    1.0776   -1.0602 H   0  0  0  0  0  0
    1.2294   -1.4043    2.8556 H   0  0  0  0  0  0
    0.3029    0.8108    2.3254 H   0  0  0  0  0  0
  1  2  2  0  0  0
  1  5  1  0  0  0
  1 16  1  0  0  0
  2  3  1  0  0  0
  2  6  1  0  0  0
  3  4  1  0  0  0
  3 27  1  0  0  0
  3 28  1  0  0  0
  4  5  1  0  0  0
  4 29  1  0  0  0
  4 30  1  0  0  0
  5 31  1  0  0  0
  5 32  1  0  0  0
  6  7  1  0  0  0
  6 11  2  0  0  0
  7  8  2  0  0  0
  7 33  1  0  0  0
  8  9  1  0  0  0
  8 34  1  0  0  0
  9 10  2  0  0  0
  9 12  1  0  0  0
 10 11  1  0  0  0
 10 35  1  0  0  0
 11 36  1  0  0  0
 12 13  2  0  0  0
 12 14  2  0  0  0
 12 15  1  0  0  0
 15 37  1  0  0  0
 15 38  1  0  0  0
 15 39  1  0  0  0
 16 17  1  0  0  0
 16 21  2  0  0  0
 17 18  2  0  0  0
 17 40  1  0  0  0
 18 19  1  0  0  0
 18 23  1  0  0  0
 19 20  2  0  0  0
 19 22  1  0  0  0
 20 21  1  0  0  0
 20 41  1  0  0  0
 21 42  1  0  0  0
 23 24  1  0  0  0
 23 25  1  0  0  0
 23 26  1  0  0  0
M  END
>  <Activity>
4

>  <set>
3

>  <Min_dist>
0.089286

>  <Avg_dist>
0.567528

$$$$
7-16D
  Cerius2 12110214523D 1   1.00000                          
 
 42 44  0  0  0  0  0  0  0  0999 V2000
    2.3385    1.5455   -0.1418 C   0  0  0  0  0  0
    1.1871    2.3429   -0.0386 C   0  0  0  0  0  0
    1.3112    3.7287    0.0027 C   0  0  0  0  0  0
    2.5612    4.3118   -0.0579 C   0  0  0  0  0  0
    3.6961    3.5260   -0.1602 C   0  0  0  0  0  0
    3.5911    2.1500   -0.2018 C   0  0  0  0  0  0
   -0.1529    1.7123    0.0257 C   0  0  0  0  0  0
   -1.1078    1.9972   -0.9492 C   0  0  0  0  0  0
   -2.3535    1.4069   -0.8845 C   0  0  0  0  0  0
   -2.6554    0.5339    0.1452 C   0  0  0  0  0  0
   -1.7119    0.2474    1.1154 C   0  0  0  0  0  0
   -0.4612    0.8276    1.0581 C   0  0  0  0  0  0
   -4.2482   -0.2157    0.2216 S   0  0  0  0  0  0
   -4.4044   -0.4830    1.6085 O   0  0  0  0  0  0
   -5.0696    0.7192   -0.4644 O   0  0  0  0  0  0
   -4.0325   -1.7428   -0.7334 C   0  0  0  0  0  0
    2.2211    0.0686   -0.1806 C   0  0  0  0  0  0
    2.8368   -0.7073    0.8015 C   0  0  0  0  0  0
    2.7253   -2.0825    0.7622 C   0  0  0  0  0  0
    2.0006   -2.6933   -0.2555 C   0  0  0  0  0  0
    1.3877   -1.9228   -1.2330 C   0  0  0  0  0  0
    1.4904   -0.5475   -1.1954 C   0  0  0  0  0  0
    1.8929   -4.0477   -0.2928 O   0  0  0  0  0  0
    1.0999   -4.3675   -1.4378 C   0  0  0  0  0  0
    3.3210   -2.8356    1.7126 F   0  0  0  0  0  0
    0.4297    4.3477    0.0817 H   0  0  0  0  0  0
    2.6540    5.3874   -0.0257 H   0  0  0  0  0  0
    4.6693    3.9918   -0.2073 H   0  0  0  0  0  0
    4.4806    1.5427   -0.2817 H   0  0  0  0  0  0
   -0.8733    2.6789   -1.7534 H   0  0  0  0  0  0
   -3.0941    1.6271   -1.6390 H   0  0  0  0  0  0
   -1.9532   -0.4350    1.9171 H   0  0  0  0  0  0
    0.2747    0.6033    1.8161 H   0  0  0  0  0  0
   -4.9720   -2.2952   -0.7523 H   0  0  0  0  0  0
   -3.7361   -1.4951   -1.7526 H   0  0  0  0  0  0
   -3.2600   -2.3557   -0.2690 H   0  0  0  0  0  0
    3.4001   -0.2327    1.5914 H   0  0  0  0  0  0
    0.8256   -2.4002   -2.0220 H   0  0  0  0  0  0
    1.0128    0.0510   -1.9570 H   0  0  0  0  0  0
    0.9854   -5.4491   -1.5097 H   0  0  0  0  0  0
    0.1182   -3.9039   -1.3408 H   0  0  0  0  0  0
    1.5913   -3.9936   -2.3360 H   0  0  0  0  0  0
  1  2  1  0  0  0
  1  6  2  0  0  0
  1 17  1  0  0  0
  2  3  2  0  0  0
  2  7  1  0  0  0
  3  4  1  0  0  0
  3 26  1  0  0  0
  4  5  2  0  0  0
  4 27  1  0  0  0
  5  6  1  0  0  0
  5 28  1  0  0  0
  6 29  1  0  0  0
  7  8  1  0  0  0
  7 12  2  0  0  0
  8  9  2  0  0  0
  8 30  1  0  0  0
  9 10  1  0  0  0
  9 31  1  0  0  0
 10 11  2  0  0  0
 10 13  1  0  0  0
 11 12  1  0  0  0
 11 32  1  0  0  0
 12 33  1  0  0  0
 13 14  2  0  0  0
 13 15  2  0  0  0
 13 16  1  0  0  0
 16 34  1  0  0  0
 16 35  1  0  0  0
 16 36  1  0  0  0
 17 18  1  0  0  0
 17 22  2  0  0  0
 18 19  2  0  0  0
 18 37  1  0  0  0
 19 20  1  0  0  0
 19 25  1  0  0  0
 20 21  2  0  0  0
 20 23  1  0  0  0
 21 22  1  0  0  0
 21 38  1  0  0  0
 22 39  1  0  0  0
 23 24  1  0  0  0
 24 40  1  0  0  0
 24 41  1  0  0  0
 24 42  1  0  0  0
M  END
>  <Activity>
4

>  <set>
3

>  <Min_dist>
0.18

>  <Avg_dist>
0.564683

$$$$
7-20F
  Cerius2 12110214523D 1   1.00000                          
 
 42 44  0  0  0  0  0  0  0  0999 V2000
    2.3564   -0.3596    0.1354 C   0  0  0  0  0  0
    1.7577   -1.6189   -0.0309 C   0  0  0  0  0  0
    2.5548   -2.7582   -0.0958 C   0  0  0  0  0  0
    3.9288   -2.6469    0.0032 C   0  0  0  0  0  0
    4.5209   -1.4017    0.1682 C   0  0  0  0  0  0
    3.7416   -0.2621    0.2338 C   0  0  0  0  0  0
    5.8649   -1.3037    0.2649 F   0  0  0  0  0  0
    4.6995   -3.7547   -0.0602 F   0  0  0  0  0  0
    0.2837   -1.7344   -0.1363 C   0  0  0  0  0  0
   -0.4270   -2.4926    0.7931 C   0  0  0  0  0  0
   -1.7992   -2.5961    0.6902 C   0  0  0  0  0  0
   -2.4696   -1.9495   -0.3326 C   0  0  0  0  0  0
   -1.7696   -1.1962   -1.2580 C   0  0  0  0  0  0
   -0.3979   -1.0807   -1.1618 C   0  0  0  0  0  0
   -4.2218   -2.0863   -0.4576 S   0  0  0  0  0  0
   -4.4559   -1.8792   -1.8438 O   0  0  0  0  0  0
   -4.4866   -3.3307    0.1753 O   0  0  0  0  0  0
   -4.8173   -0.6907    0.5366 C   0  0  0  0  0  0
    1.5178    0.8607    0.1998 C   0  0  0  0  0  0
    1.6892    1.8765   -0.7401 C   0  0  0  0  0  0
    0.9065    3.0115   -0.6779 C   0  0  0  0  0  0
   -0.0512    3.1426    0.3195 C   0  0  0  0  0  0
   -0.2239    2.1326    1.2574 C   0  0  0  0  0  0
    0.5520    0.9928    1.1968 C   0  0  0  0  0  0
   -1.4217    2.3011    2.5025 Cl  0  0  0  0  0  0
   -0.8206    4.2615    0.3783 O   0  0  0  0  0  0
   -1.9812    4.0068   -0.4156 C   0  0  0  0  0  0
    1.1195    4.2768   -1.8472 Cl  0  0  0  0  0  0
    2.0995   -3.7292   -0.2233 H   0  0  0  0  0  0
    4.2072    0.7039    0.3622 H   0  0  0  0  0  0
    0.0954   -2.9981    1.5918 H   0  0  0  0  0  0
   -2.3508   -3.1834    1.4093 H   0  0  0  0  0  0
   -2.2982   -0.6941   -2.0548 H   0  0  0  0  0  0
    0.1476   -0.4921   -1.8846 H   0  0  0  0  0  0
   -5.9072   -0.6781    0.5292 H   0  0  0  0  0  0
   -4.4622   -0.7972    1.5617 H   0  0  0  0  0  0
   -4.4403    0.2417    0.1165 H   0  0  0  0  0  0
    2.4339    1.7753   -1.5156 H   0  0  0  0  0  0
    0.4173    0.2079    1.9263 H   0  0  0  0  0  0
   -2.6320    4.8811   -0.3987 H   0  0  0  0  0  0
   -1.6805    3.7976   -1.4422 H   0  0  0  0  0  0
   -2.5165    3.1476   -0.0115 H   0  0  0  0  0  0
  1  2  1  0  0  0
  1  6  2  0  0  0
  1 19  1  0  0  0
  2  3  2  0  0  0
  2  9  1  0  0  0
  3  4  1  0  0  0
  3 29  1  0  0  0
  4  5  2  0  0  0
  4  8  1  0  0  0
  5  6  1  0  0  0
  5  7  1  0  0  0
  6 30  1  0  0  0
  9 10  1  0  0  0
  9 14  2  0  0  0
 10 11  2  0  0  0
 10 31  1  0  0  0
 11 12  1  0  0  0
 11 32  1  0  0  0
 12 13  2  0  0  0
 12 15  1  0  0  0
 13 14  1  0  0  0
 13 33  1  0  0  0
 14 34  1  0  0  0
 15 16  2  0  0  0
 15 17  2  0  0  0
 15 18  1  0  0  0
 18 35  1  0  0  0
 18 36  1  0  0  0
 18 37  1  0  0  0
 19 20  1  0  0  0
 19 24  2  0  0  0
 20 21  2  0  0  0
 20 38  1  0  0  0
 21 22  1  0  0  0
 21 28  1  0  0  0
 22 23  2  0  0  0
 22 26  1  0  0  0
 23 24  1  0  0  0
 23 25  1  0  0  0
 24 39  1  0  0  0
 26 27  1  0  0  0
 27 40  1  0  0  0
 27 41  1  0  0  0
 27 42  1  0  0  0
M  END
>  <Activity>
4

>  <set>
3

>  <Min_dist>
0.156863

>  <Avg_dist>
0.571289

$$$$
7-34
  Cerius2 12110214523D 1   1.00000                          
 
 38 40  0  0  0  0  0  0  0  0999 V2000
    2.0145    0.3156   -0.0207 C   0  0  0  0  0  0
    1.2902   -0.8873    0.0100 C   0  0  0  0  0  0
    1.9715   -2.1026    0.0369 C   0  0  0  0  0  0
    3.3560   -2.1204    0.0334 C   0  0  0  0  0  0
    4.0713   -0.9323    0.0035 C   0  0  0  0  0  0
    3.4075    0.2827   -0.0239 C   0  0  0  0  0  0
    4.1105    1.4360   -0.0529 F   0  0  0  0  0  0
    5.4220   -0.9606    0.0012 F   0  0  0  0  0  0
    4.0133   -3.3004    0.0595 F   0  0  0  0  0  0
    1.2811   -3.2635    0.0670 F   0  0  0  0  0  0
   -0.1916   -0.8642    0.0142 C   0  0  0  0  0  0
   -0.9041   -1.4806   -1.0136 C   0  0  0  0  0  0
   -2.2838   -1.4558   -1.0043 C   0  0  0  0  0  0
   -2.9600   -0.8210    0.0220 C   0  0  0  0  0  0
   -2.2585   -0.2077    1.0445 C   0  0  0  0  0  0
   -0.8788   -0.2309    1.0490 C   0  0  0  0  0  0
   -4.7218   -0.7929    0.0267 S   0  0  0  0  0  0
   -5.0162    0.3809    0.7715 O   0  0  0  0  0  0
   -5.0424   -0.9124   -1.3525 O   0  0  0  0  0  0
   -5.1565   -2.2948    0.9466 C   0  0  0  0  0  0
    1.3004    1.6138   -0.0556 C   0  0  0  0  0  0
    1.4907    2.5444    0.9652 C   0  0  0  0  0  0
    0.8238    3.7515    0.9283 C   0  0  0  0  0  0
   -0.0340    4.0398   -0.1209 C   0  0  0  0  0  0
   -0.2262    3.1183   -1.1376 C   0  0  0  0  0  0
    0.4407    1.9109   -1.1124 C   0  0  0  0  0  0
   -0.6852    5.2230   -0.1526 F   0  0  0  0  0  0
   -0.3772   -1.9762   -1.8156 H   0  0  0  0  0  0
   -2.8368   -1.9326   -1.8001 H   0  0  0  0  0  0
   -2.7918    0.2864    1.8432 H   0  0  0  0  0  0
   -0.3321    0.2479    1.8479 H   0  0  0  0  0  0
   -6.2413   -2.3797    1.0117 H   0  0  0  0  0  0
   -4.7542   -3.1663    0.4303 H   0  0  0  0  0  0
   -4.7354   -2.2406    1.9505 H   0  0  0  0  0  0
    2.1588    2.3203    1.7836 H   0  0  0  0  0  0
    0.9703    4.4727    1.7187 H   0  0  0  0  0  0
   -0.8961    3.3473   -1.9533 H   0  0  0  0  0  0
    0.2902    1.1932   -1.9053 H   0  0  0  0  0  0
  1  2  1  0  0  0
  1  6  2  0  0  0
  1 21  1  0  0  0
  2  3  2  0  0  0
  2 11  1  0  0  0
  3  4  1  0  0  0
  3 10  1  0  0  0
  4  5  2  0  0  0
  4  9  1  0  0  0
  5  6  1  0  0  0
  5  8  1  0  0  0
  6  7  1  0  0  0
 11 12  1  0  0  0
 11 16  2  0  0  0
 12 13  2  0  0  0
 12 28  1  0  0  0
 13 14  1  0  0  0
 13 29  1  0  0  0
 14 15  2  0  0  0
 14 17  1  0  0  0
 15 16  1  0  0  0
 15 30  1  0  0  0
 16 31  1  0  0  0
 17 18  2  0  0  0
 17 19  2  0  0  0
 17 20  1  0  0  0
 20 32  1  0  0  0
 20 33  1  0  0  0
 20 34  1  0  0  0
 21 22  1  0  0  0
 21 26  2  0  0  0
 22 23  2  0  0  0
 22 35  1  0  0  0
 23 24  1  0  0  0
 23 36  1  0  0  0
 24 25  2  0  0  0
 24 27  1  0  0  0
 25 26  1  0  0  0
 25 37  1  0  0  0
 26 38  1  0  0  0
M  END
>  <Activity>
4

>  <set>
3

>  <Min_dist>
0.068182

>  <Avg_dist>
0.56369

$$$$
7-36
  Cerius2 12110214523D 1   1.00000                          
 
 44 47  0  0  0  0  0  0  0  0999 V2000
    1.9425    0.6487    0.0406 C   0  0  0  0  0  0
    1.4271   -0.6670   -0.0203 C   0  0  0  0  0  0
    2.2798   -1.7510   -0.0566 C   0  0  0  0  0  0
    3.6690   -1.5469   -0.0334 C   0  0  0  0  0  0
    4.1859   -0.2274    0.0272 C   0  0  0  0  0  0
    3.3050    0.8655    0.0641 C   0  0  0  0  0  0
    5.5787   -0.0344    0.0505 C   0  0  0  0  0  0
    6.4098   -1.1116    0.0147 C   0  0  0  0  0  0
    5.9018   -2.4080   -0.0448 C   0  0  0  0  0  0
    4.5599   -2.6342   -0.0690 C   0  0  0  0  0  0
   -0.0392   -0.8827   -0.0448 C   0  0  0  0  0  0
   -0.6543   -1.6245    0.9627 C   0  0  0  0  0  0
   -2.0198   -1.8221    0.9346 C   0  0  0  0  0  0
   -2.7780   -1.2862   -0.0908 C   0  0  0  0  0  0
   -2.1731   -0.5496   -1.0935 C   0  0  0  0  0  0
   -0.8093   -0.3398   -1.0723 C   0  0  0  0  0  0
   -4.5209   -1.5431   -0.1203 S   0  0  0  0  0  0
   -4.8312   -1.4399   -1.5032 O   0  0  0  0  0  0
   -4.6722   -2.7593    0.5988 O   0  0  0  0  0  0
   -5.1631   -0.1285    0.8162 C   0  0  0  0  0  0
    1.0129    1.8026    0.0733 C   0  0  0  0  0  0
    1.0596    2.7669   -0.9326 C   0  0  0  0  0  0
    0.1924    3.8392   -0.8980 C   0  0  0  0  0  0
   -0.7241    3.9588    0.1343 C   0  0  0  0  0  0
   -0.7742    3.0029    1.1362 C   0  0  0  0  0  0
    0.0851    1.9241    1.1069 C   0  0  0  0  0  0
   -1.5711    5.0109    0.1644 F   0  0  0  0  0  0
    1.8802   -2.7533   -0.1024 H   0  0  0  0  0  0
    3.6926    1.8725    0.1099 H   0  0  0  0  0  0
    5.9870    0.9644    0.0962 H   0  0  0  0  0  0
    7.4789   -0.9594    0.0324 H   0  0  0  0  0  0
    6.5831   -3.2456   -0.0727 H   0  0  0  0  0  0
    4.1810   -3.6445   -0.1148 H   0  0  0  0  0  0
   -0.0633   -2.0440    1.7634 H   0  0  0  0  0  0
   -2.4974   -2.3966    1.7145 H   0  0  0  0  0  0
   -2.7700   -0.1342   -1.8920 H   0  0  0  0  0  0
   -0.3381    0.2354   -1.8556 H   0  0  0  0  0  0
   -6.2506   -0.1866    0.8620 H   0  0  0  0  0  0
   -4.7554   -0.1466    1.8269 H   0  0  0  0  0  0
   -4.8692    0.7977    0.3224 H   0  0  0  0  0  0
    1.7739    2.6747   -1.7375 H   0  0  0  0  0  0
    0.2281    4.5869   -1.6766 H   0  0  0  0  0  0
   -1.4900    3.1004    1.9391 H   0  0  0  0  0  0
    0.0451    1.1794    1.8881 H   0  0  0  0  0  0
  1  2  1  0  0  0
  1  6  2  0  0  0
  1 21  1  0  0  0
  2  3  2  0  0  0
  2 11  1  0  0  0
  3  4  1  0  0  0
  3 28  1  0  0  0
  4  5  2  0  0  0
  4 10  1  0  0  0
  5  6  1  0  0  0
  5  7  1  0  0  0
  6 29  1  0  0  0
  7  8  2  0  0  0
  7 30  1  0  0  0
  8  9  1  0  0  0
  8 31  1  0  0  0
  9 10  2  0  0  0
  9 32  1  0  0  0
 10 33  1  0  0  0
 11 12  1  0  0  0
 11 16  2  0  0  0
 12 13  2  0  0  0
 12 34  1  0  0  0
 13 14  1  0  0  0
 13 35  1  0  0  0
 14 15  2  0  0  0
 14 17  1  0  0  0
 15 16  1  0  0  0
 15 36  1  0  0  0
 16 37  1  0  0  0
 17 18  2  0  0  0
 17 19  2  0  0  0
 17 20  1  0  0  0
 20 38  1  0  0  0
 20 39  1  0  0  0
 20 40  1  0  0  0
 21 22  1  0  0  0
 21 26  2  0  0  0
 22 23  2  0  0  0
 22 41  1  0  0  0
 23 24  1  0  0  0
 23 42  1  0  0  0
 24 25  2  0  0  0
 24 27  1  0  0  0
 25 26  1  0  0  0
 25 43  1  0  0  0
 26 44  1  0  0  0
M  END
>  <Activity>
4

>  <set>
3

>  <Min_dist>
0.204545

>  <Avg_dist>
0.591992

$$$$
8-1M
  Cerius2 12110214523D 1   1.00000                          
 
 38 40  0  0  0  0  0  0  0  0999 V2000
   -3.0259   -1.0105    0.0068 C   0  0  0  0  0  0
   -2.2442   -1.8738   -0.7388 C   0  0  0  0  0  0
   -0.8702   -1.7339   -0.7437 C   0  0  0  0  0  0
   -0.2739   -0.7247    0.0008 C   0  0  0  0  0  0
   -1.0616    0.1408    0.7482 C   0  0  0  0  0  0
   -2.4351   -0.0046    0.7493 C   0  0  0  0  0  0
    1.1195   -0.5805   -0.0017 N   0  0  0  0  0  0
    1.8074    0.5990   -0.0288 C   0  0  0  0  0  0
    3.1393    0.2925   -0.0208 C   0  0  0  0  0  0
    3.2584   -1.0973    0.0117 C   0  0  0  0  0  0
    2.0580   -1.6199    0.0292 N   0  0  0  0  0  0
    4.5531   -1.8683    0.0304 C   0  0  0  0  0  0
    4.2787   -3.2398    0.0623 F   0  0  0  0  0  0
    5.2919   -1.5671   -1.1187 F   0  0  0  0  0  0
    5.2906   -1.5138    1.1652 F   0  0  0  0  0  0
    1.2201    1.9560   -0.0615 C   0  0  0  0  0  0
    1.7938    2.9849    0.6868 C   0  0  0  0  0  0
    1.2435    4.2485    0.6538 C   0  0  0  0  0  0
    0.1196    4.4981   -0.1225 C   0  0  0  0  0  0
   -0.4541    3.4770   -0.8684 C   0  0  0  0  0  0
    0.0942    2.2123   -0.8454 C   0  0  0  0  0  0
   -0.4205    5.7445   -0.1518 O   0  0  0  0  0  0
   -4.7789   -1.1881    0.0050 S   0  0  0  0  0  0
   -5.2960    0.0814    0.3797 O   0  0  0  0  0  0
   -5.0953   -1.8840   -1.1928 O   0  0  0  0  0  0
   -5.1735   -2.2172    1.2410 N   0  0  0  0  0  0
   -2.7086   -2.6584   -1.3177 H   0  0  0  0  0  0
   -0.2602   -2.4088   -1.3257 H   0  0  0  0  0  0
   -0.6007    0.9264    1.3285 H   0  0  0  0  0  0
   -3.0483    0.6685    1.3301 H   0  0  0  0  0  0
    3.9548    1.0004   -0.0374 H   0  0  0  0  0  0
    2.6676    2.7913    1.2914 H   0  0  0  0  0  0
    1.6869    5.0451    1.2326 H   0  0  0  0  0  0
   -1.3283    3.6749   -1.4710 H   0  0  0  0  0  0
   -0.3524    1.4187   -1.4260 H   0  0  0  0  0  0
    0.0119    6.2195   -0.8746 H   0  0  0  0  0  0
   -6.1022   -2.4438    1.4056 H   0  0  0  0  0  0
   -4.4760   -2.5935    1.8002 H   0  0  0  0  0  0
  1  2  1  0  0  0
  1  6  2  0  0  0
  1 23  1  0  0  0
  2  3  2  0  0  0
  2 27  1  0  0  0
  3  4  1  0  0  0
  3 28  1  0  0  0
  4  5  2  0  0  0
  4  7  1  0  0  0
  5  6  1  0  0  0
  5 29  1  0  0  0
  6 30  1  0  0  0
  7  8  1  0  0  0
  7 11  1  0  0  0
  8  9  2  0  0  0
  8 16  1  0  0  0
  9 10  1  0  0  0
  9 31  1  0  0  0
 10 11  2  0  0  0
 10 12  1  0  0  0
 12 13  1  0  0  0
 12 14  1  0  0  0
 12 15  1  0  0  0
 16 17  1  0  0  0
 16 21  2  0  0  0
 17 18  2  0  0  0
 17 32  1  0  0  0
 18 19  1  0  0  0
 18 33  1  0  0  0
 19 20  2  0  0  0
 19 22  1  0  0  0
 20 21  1  0  0  0
 20 34  1  0  0  0
 21 35  1  0  0  0
 22 36  1  0  0  0
 23 24  2  0  0  0
 23 25  2  0  0  0
 23 26  1  0  0  0
 26 37  1  0  0  0
 26 38  1  0  0  0
M  END
>  <Activity>
4

>  <set>
3

>  <Min_dist>
0.058824

>  <Avg_dist>
0.486655

$$$$
8-1AG
  Cerius2 12110214523D 1   1.00000                          
 
 37 39  0  0  0  0  0  0  0  0999 V2000
   -3.1710   -1.2373    0.1744 C   0  0  0  0  0  0
   -2.4626   -2.0879   -0.6545 C   0  0  0  0  0  0
   -1.0888   -1.9794   -0.7462 C   0  0  0  0  0  0
   -0.4190   -1.0146   -0.0054 C   0  0  0  0  0  0
   -1.1333   -0.1616    0.8256 C   0  0  0  0  0  0
   -2.5069   -0.2755    0.9134 C   0  0  0  0  0  0
    0.9744   -0.9022   -0.0959 N   0  0  0  0  0  0
    1.6888    0.2614   -0.1240 C   0  0  0  0  0  0
    3.0100   -0.0755   -0.2163 C   0  0  0  0  0  0
    3.0957   -1.4678   -0.2445 C   0  0  0  0  0  0
    1.8861   -1.9633   -0.1677 N   0  0  0  0  0  0
    4.3688   -2.2683   -0.3419 C   0  0  0  0  0  0
    4.0624   -3.6333   -0.3436 F   0  0  0  0  0  0
    5.0373   -1.9389   -1.5259 F   0  0  0  0  0  0
    5.1886   -1.9758    0.7533 F   0  0  0  0  0  0
    1.1353    1.6318   -0.0659 C   0  0  0  0  0  0
    1.7825    2.6184    0.6812 C   0  0  0  0  0  0
    1.2607    3.8958    0.7315 C   0  0  0  0  0  0
    0.0994    4.1992    0.0439 C   0  0  0  0  0  0
   -0.5470    3.2257   -0.6985 C   0  0  0  0  0  0
   -0.0322    1.9457   -0.7616 C   0  0  0  0  0  0
   -2.0039    3.6166   -1.5579 Cl  0  0  0  0  0  0
    3.2397    2.2394    1.5453 Cl  0  0  0  0  0  0
   -4.9243   -1.3746    0.2835 S   0  0  0  0  0  0
   -5.3829   -0.1096    0.7403 O   0  0  0  0  0  0
   -5.3368   -2.0150   -0.9160 O   0  0  0  0  0  0
   -5.2622   -2.4428    1.5030 N   0  0  0  0  0  0
   -2.9841   -2.8381   -1.2304 H   0  0  0  0  0  0
   -0.5360   -2.6444   -1.3932 H   0  0  0  0  0  0
   -0.6151    0.5895    1.4033 H   0  0  0  0  0  0
   -3.0630    0.3878    1.5592 H   0  0  0  0  0  0
    3.8404    0.6136   -0.2603 H   0  0  0  0  0  0
    1.7601    4.6595    1.3092 H   0  0  0  0  0  0
   -0.3050    5.1997    0.0867 H   0  0  0  0  0  0
   -0.5371    1.1872   -1.3413 H   0  0  0  0  0  0
   -6.1834   -2.6545    1.7209 H   0  0  0  0  0  0
   -4.5390   -2.8568    1.9994 H   0  0  0  0  0  0
  1  2  1  0  0  0
  1  6  2  0  0  0
  1 24  1  0  0  0
  2  3  2  0  0  0
  2 28  1  0  0  0
  3  4  1  0  0  0
  3 29  1  0  0  0
  4  5  2  0  0  0
  4  7  1  0  0  0
  5  6  1  0  0  0
  5 30  1  0  0  0
  6 31  1  0  0  0
  7  8  1  0  0  0
  7 11  1  0  0  0
  8  9  2  0  0  0
  8 16  1  0  0  0
  9 10  1  0  0  0
  9 32  1  0  0  0
 10 11  2  0  0  0
 10 12  1  0  0  0
 12 13  1  0  0  0
 12 14  1  0  0  0
 12 15  1  0  0  0
 16 17  1  0  0  0
 16 21  2  0  0  0
 17 18  2  0  0  0
 17 23  1  0  0  0
 18 19  1  0  0  0
 18 33  1  0  0  0
 19 20  2  0  0  0
 19 34  1  0  0  0
 20 21  1  0  0  0
 20 22  1  0  0  0
 21 35  1  0  0  0
 24 25  2  0  0  0
 24 26  2  0  0  0
 24 27  1  0  0  0
 27 36  1  0  0  0
 27 37  1  0  0  0
M  END
>  <Activity>
4

>  <set>
3

>  <Min_dist>
0.028986

>  <Avg_dist>
0.505853

$$$$
8-29
  Cerius2 12110214523D 1   1.00000                          
 
 40 42  0  0  0  0  0  0  0  0999 V2000
   -2.8905   -0.8333   -0.2304 C   0  0  0  0  0  0
   -2.1204   -1.7107   -0.9715 C   0  0  0  0  0  0
   -0.7423   -1.6361   -0.9191 C   0  0  0  0  0  0
   -0.1302   -0.6786   -0.1211 C   0  0  0  0  0  0
   -0.9063    0.2011    0.6220 C   0  0  0  0  0  0
   -2.2839    0.1213    0.5652 C   0  0  0  0  0  0
    1.2674   -0.6006   -0.0653 N   0  0  0  0  0  0
    2.0096    0.5453   -0.0292 C   0  0  0  0  0  0
    3.3244    0.1759    0.0206 C   0  0  0  0  0  0
    3.3779   -1.2183    0.0144 C   0  0  0  0  0  0
    2.1548   -1.6838   -0.0306 N   0  0  0  0  0  0
    4.6338   -2.0499    0.0583 C   0  0  0  0  0  0
    4.2954   -3.4072    0.0371 F   0  0  0  0  0  0
    5.4305   -1.7505   -1.0520 F   0  0  0  0  0  0
    5.3416   -1.7641    1.2308 F   0  0  0  0  0  0
    1.4873    1.9291   -0.0420 C   0  0  0  0  0  0
    2.0772    2.9075    0.7592 C   0  0  0  0  0  0
    1.5863    4.1964    0.7436 C   0  0  0  0  0  0
    0.5093    4.5205   -0.0659 C   0  0  0  0  0  0
   -0.0804    3.5525   -0.8631 C   0  0  0  0  0  0
    0.4067    2.2621   -0.8596 C   0  0  0  0  0  0
    0.0323    5.7844   -0.0776 F   0  0  0  0  0  0
   -4.6484   -0.9271   -0.3057 S   0  0  0  0  0  0
   -5.1206    0.3541    0.0878 O   0  0  0  0  0  0
   -4.9483   -1.5721   -1.5359 O   0  0  0  0  0  0
   -5.1397   -1.9718    0.8815 N   0  0  0  0  0  0
   -4.8278   -1.6857    2.2841 C   0  0  0  0  0  0
   -2.5970   -2.4554   -1.5917 H   0  0  0  0  0  0
   -0.1413   -2.3218   -1.4979 H   0  0  0  0  0  0
   -0.4331    0.9466    1.2438 H   0  0  0  0  0  0
   -2.8881    0.8052    1.1429 H   0  0  0  0  0  0
    4.1717    0.8446    0.0578 H   0  0  0  0  0  0
    2.9164    2.6558    1.3907 H   0  0  0  0  0  0
    2.0420    4.9543    1.3636 H   0  0  0  0  0  0
   -0.9198    3.8101   -1.4920 H   0  0  0  0  0  0
   -0.0533    1.5085   -1.4816 H   0  0  0  0  0  0
   -5.6341   -2.7731    0.6483 H   0  0  0  0  0  0
   -5.2288   -2.4793    2.9146 H   0  0  0  0  0  0
   -3.7467   -1.6314    2.4120 H   0  0  0  0  0  0
   -5.2757   -0.7338    2.5691 H   0  0  0  0  0  0
  1  2  1  0  0  0
  1  6  2  0  0  0
  1 23  1  0  0  0
  2  3  2  0  0  0
  2 28  1  0  0  0
  3  4  1  0  0  0
  3 29  1  0  0  0
  4  5  2  0  0  0
  4  7  1  0  0  0
  5  6  1  0  0  0
  5 30  1  0  0  0
  6 31  1  0  0  0
  7  8  1  0  0  0
  7 11  1  0  0  0
  8  9  2  0  0  0
  8 16  1  0  0  0
  9 10  1  0  0  0
  9 32  1  0  0  0
 10 11  2  0  0  0
 10 12  1  0  0  0
 12 13  1  0  0  0
 12 14  1  0  0  0
 12 15  1  0  0  0
 16 17  1  0  0  0
 16 21  2  0  0  0
 17 18  2  0  0  0
 17 33  1  0  0  0
 18 19  1  0  0  0
 18 34  1  0  0  0
 19 20  2  0  0  0
 19 22  1  0  0  0
 20 21  1  0  0  0
 20 35  1  0  0  0
 21 36  1  0  0  0
 23 24  2  0  0  0
 23 25  2  0  0  0
 23 26  1  0  0  0
 26 27  1  0  0  0
 26 37  1  0  0  0
 27 38  1  0  0  0
 27 39  1  0  0  0
 27 40  1  0  0  0
M  END
>  <Activity>
4

>  <set>
3

>  <Min_dist>
0.150685

>  <Avg_dist>
0.54283

$$$$
8-2D
  Cerius2 12110214523D 1   1.00000                          
 
 43 45  0  0  0  0  0  0  0  0999 V2000
   -2.8824    1.8078    0.0055 C   0  0  0  0  0  0
   -3.3966    0.7458   -0.7155 C   0  0  0  0  0  0
   -2.7723   -0.4855   -0.6742 C   0  0  0  0  0  0
   -1.6272   -0.6564    0.0925 C   0  0  0  0  0  0
   -1.1133    0.4120    0.8154 C   0  0  0  0  0  0
   -1.7422    1.6408    0.7700 C   0  0  0  0  0  0
   -0.9920   -1.9041    0.1368 N   0  0  0  0  0  0
    0.3561   -2.1224    0.1358 C   0  0  0  0  0  0
    0.5486   -3.4744    0.1874 C   0  0  0  0  0  0
   -0.7058   -4.0843    0.2202 C   0  0  0  0  0  0
   -1.6252   -3.1522    0.1963 N   0  0  0  0  0  0
   -0.9603   -5.5685    0.2796 C   0  0  0  0  0  0
   -2.1696   -5.8603   -0.3603 F   0  0  0  0  0  0
    0.0821   -6.2464   -0.3616 F   0  0  0  0  0  0
    1.4121   -1.0876    0.0874 C   0  0  0  0  0  0
    2.5676   -1.2292    0.8565 C   0  0  0  0  0  0
    3.5489   -0.2607    0.8065 C   0  0  0  0  0  0
    3.3889    0.8493   -0.0037 C   0  0  0  0  0  0
    2.2455    0.9956   -0.7687 C   0  0  0  0  0  0
    1.2593    0.0314   -0.7320 C   0  0  0  0  0  0
    4.6464    2.0822   -0.0609 S   0  0  0  0  0  0
    3.9254    3.2508   -0.4268 O   0  0  0  0  0  0
    5.2760    1.9491    1.2060 O   0  0  0  0  0  0
    5.7227    1.5126   -1.4054 C   0  0  0  0  0  0
   -3.6775    3.3790   -0.0556 S   0  0  0  0  0  0
   -2.6839    4.3288    0.3046 O   0  0  0  0  0  0
   -4.4233    3.3875   -1.2651 O   0  0  0  0  0  0
   -4.7974    3.4149    1.1638 N   0  0  0  0  0  0
   -4.2874    0.8792   -1.3113 H   0  0  0  0  0  0
   -3.1746   -1.3147   -1.2373 H   0  0  0  0  0  0
   -0.2231    0.2822    1.4129 H   0  0  0  0  0  0
   -1.3431    2.4722    1.3321 H   0  0  0  0  0  0
    1.5024   -3.9809    0.2001 H   0  0  0  0  0  0
   -1.0142   -5.8865    1.3208 H   0  0  0  0  0  0
    2.6934   -2.0949    1.4898 H   0  0  0  0  0  0
    4.4438   -0.3691    1.4013 H   0  0  0  0  0  0
    2.1264    1.8644   -1.3991 H   0  0  0  0  0  0
    0.3673    0.1465   -1.3299 H   0  0  0  0  0  0
    6.5488    2.2125   -1.5308 H   0  0  0  0  0  0
    6.1163    0.5257   -1.1624 H   0  0  0  0  0  0
    5.1496    1.4573   -2.3310 H   0  0  0  0  0  0
   -5.3447    4.2047    1.2966 H   0  0  0  0  0  0
   -4.9061    2.6462    1.7452 H   0  0  0  0  0  0
  1  2  1  0  0  0
  1  6  2  0  0  0
  1 25  1  0  0  0
  2  3  2  0  0  0
  2 29  1  0  0  0
  3  4  1  0  0  0
  3 30  1  0  0  0
  4  5  2  0  0  0
  4  7  1  0  0  0
  5  6  1  0  0  0
  5 31  1  0  0  0
  6 32  1  0  0  0
  7  8  1  0  0  0
  7 11  1  0  0  0
  8  9  2  0  0  0
  8 15  1  0  0  0
  9 10  1  0  0  0
  9 33  1  0  0  0
 10 11  2  0  0  0
 10 12  1  0  0  0
 12 13  1  0  0  0
 12 14  1  0  0  0
 12 34  1  0  0  0
 15 16  1  0  0  0
 15 20  2  0  0  0
 16 17  2  0  0  0
 16 35  1  0  0  0
 17 18  1  0  0  0
 17 36  1  0  0  0
 18 19  2  0  0  0
 18 21  1  0  0  0
 19 20  1  0  0  0
 19 37  1  0  0  0
 20 38  1  0  0  0
 21 22  2  0  0  0
 21 23  2  0  0  0
 21 24  1  0  0  0
 24 39  1  0  0  0
 24 40  1  0  0  0
 24 41  1  0  0  0
 25 26  2  0  0  0
 25 27  2  0  0  0
 25 28  1  0  0  0
 28 42  1  0  0  0
 28 43  1  0  0  0
M  END
>  <Activity>
4

>  <set>
3

>  <Min_dist>
0.083333

>  <Avg_dist>
0.480712

$$$$
8-2E
  Cerius2 12110214523D 1   1.00000                          
 
 41 43  0  0  0  0  0  0  0  0999 V2000
   -2.8906   -1.2562    0.0298 C   0  0  0  0  0  0
   -2.1860   -2.2100   -0.6817 C   0  0  0  0  0  0
   -0.8053   -2.2166   -0.6505 C   0  0  0  0  0  0
   -0.1245   -1.2641    0.0962 C   0  0  0  0  0  0
   -0.8349   -0.3076    0.8096 C   0  0  0  0  0  0
   -2.2156   -0.3064    0.7743 C   0  0  0  0  0  0
    1.2757   -1.2683    0.1302 N   0  0  0  0  0  0
    2.0858   -0.1679    0.1059 C   0  0  0  0  0  0
    3.3859   -0.6209    0.1559 C   0  0  0  0  0  0
    3.3475   -2.0139    0.2108 C   0  0  0  0  0  0
    2.0966   -2.4008    0.2014 N   0  0  0  0  0  0
    4.5473   -2.9234    0.2767 C   0  0  0  0  0  0
    4.2441   -4.1409   -0.3421 F   0  0  0  0  0  0
    5.6254   -2.3216   -0.3813 F   0  0  0  0  0  0
    1.6494    1.2420    0.0382 C   0  0  0  0  0  0
    2.3129    2.2154    0.7896 C   0  0  0  0  0  0
    1.9085    3.5239    0.7266 C   0  0  0  0  0  0
    0.8323    3.8841   -0.0893 C   0  0  0  0  0  0
    0.1688    2.9102   -0.8409 C   0  0  0  0  0  0
    0.5770    1.6027   -0.7816 C   0  0  0  0  0  0
    0.3963    5.2931   -0.1569 C   0  0  0  0  0  0
    0.9733    6.1401    0.4971 O   0  0  0  0  0  0
   -0.6414    5.6403   -0.9438 N   0  0  0  0  0  0
   -4.6519   -1.2468   -0.0184 S   0  0  0  0  0  0
   -5.0404    0.0765    0.3240 O   0  0  0  0  0  0
   -5.0090   -1.9253   -1.2147 O   0  0  0  0  0  0
   -5.1862   -2.2073    1.2203 N   0  0  0  0  0  0
   -2.7160   -2.9508   -1.2620 H   0  0  0  0  0  0
   -0.2556   -2.9620   -1.2061 H   0  0  0  0  0  0
   -0.3084    0.4343    1.3916 H   0  0  0  0  0  0
   -2.7687    0.4373    1.3289 H   0  0  0  0  0  0
    4.2749   -0.0076    0.1525 H   0  0  0  0  0  0
    4.8115   -3.1015    1.3191 H   0  0  0  0  0  0
    3.1442    1.9369    1.4204 H   0  0  0  0  0  0
    2.4211    4.2762    1.3077 H   0  0  0  0  0  0
   -0.6630    3.1882   -1.4712 H   0  0  0  0  0  0
    0.0646    0.8502   -1.3626 H   0  0  0  0  0  0
   -0.9279    6.5660   -0.9882 H   0  0  0  0  0  0
   -1.1018    4.9646   -1.4656 H   0  0  0  0  0  0
   -6.1377   -2.3312    1.3622 H   0  0  0  0  0  0
   -4.5476   -2.6460    1.8040 H   0  0  0  0  0  0
  1  2  1  0  0  0
  1  6  2  0  0  0
  1 24  1  0  0  0
  2  3  2  0  0  0
  2 28  1  0  0  0
  3  4  1  0  0  0
  3 29  1  0  0  0
  4  5  2  0  0  0
  4  7  1  0  0  0
  5  6  1  0  0  0
  5 30  1  0  0  0
  6 31  1  0  0  0
  7  8  1  0  0  0
  7 11  1  0  0  0
  8  9  2  0  0  0
  8 15  1  0  0  0
  9 10  1  0  0  0
  9 32  1  0  0  0
 10 11  2  0  0  0
 10 12  1  0  0  0
 12 13  1  0  0  0
 12 14  1  0  0  0
 12 33  1  0  0  0
 15 16  1  0  0  0
 15 20  2  0  0  0
 16 17  2  0  0  0
 16 34  1  0  0  0
 17 18  1  0  0  0
 17 35  1  0  0  0
 18 19  2  0  0  0
 18 21  1  0  0  0
 19 20  1  0  0  0
 19 36  1  0  0  0
 20 37  1  0  0  0
 21 22  2  0  0  0
 21 23  1  0  0  0
 23 38  1  0  0  0
 23 39  1  0  0  0
 24 25  2  0  0  0
 24 26  2  0  0  0
 24 27  1  0  0  0
 27 40  1  0  0  0
 27 41  1  0  0  0
M  END
>  <Activity>
4

>  <set>
3

>  <Min_dist>
0.084507

>  <Avg_dist>
0.536773

$$$$
8-2L
  Cerius2 12110214523D 1   1.00000                          
 
 43 45  0  0  0  0  0  0  0  0999 V2000
   -2.9570   -0.7961    0.0822 C   0  0  0  0  0  0
   -2.2685   -1.7561   -0.6364 C   0  0  0  0  0  0
   -0.8874   -1.7618   -0.6372 C   0  0  0  0  0  0
   -0.1902   -0.8021    0.0848 C   0  0  0  0  0  0
   -0.8846    0.1606    0.8055 C   0  0  0  0  0  0
   -2.2657    0.1609    0.8022 C   0  0  0  0  0  0
    1.2106   -0.8054    0.0865 N   0  0  0  0  0  0
    2.0190    0.2941    0.0332 C   0  0  0  0  0  0
    3.3110   -0.1504    0.0565 C   0  0  0  0  0  0
    3.2831   -1.5437    0.1250 C   0  0  0  0  0  0
    2.0343   -1.9366    0.1491 N   0  0  0  0  0  0
    4.4895   -2.4458    0.1702 C   0  0  0  0  0  0
    4.1786   -3.6707   -0.4300 F   0  0  0  0  0  0
    5.5479   -1.8441   -0.5189 F   0  0  0  0  0  0
    1.5779    1.7043   -0.0371 C   0  0  0  0  0  0
    2.2539    2.6868    0.6875 C   0  0  0  0  0  0
    1.8379    4.0002    0.6173 C   0  0  0  0  0  0
    0.7529    4.3443   -0.1694 C   0  0  0  0  0  0
    0.0785    3.3750   -0.8900 C   0  0  0  0  0  0
    0.4880    2.0585   -0.8325 C   0  0  0  0  0  0
   -1.1025    3.7585   -1.7439 C   0  0  0  0  0  0
    3.4356    2.3138    1.5452 C   0  0  0  0  0  0
   -4.7190   -0.7879    0.0747 S   0  0  0  0  0  0
   -5.1003    0.5383    0.4137 O   0  0  0  0  0  0
   -5.1032   -1.4776   -1.1068 O   0  0  0  0  0  0
   -5.2239   -1.7371    1.3342 N   0  0  0  0  0  0
   -2.8113   -2.5025   -1.1974 H   0  0  0  0  0  0
   -0.3501   -2.5120   -1.1983 H   0  0  0  0  0  0
   -0.3452    0.9081    1.3682 H   0  0  0  0  0  0
   -2.8063    0.9094    1.3625 H   0  0  0  0  0  0
    4.1966    0.4671    0.0267 H   0  0  0  0  0  0
    4.7796   -2.6128    1.2075 H   0  0  0  0  0  0
    2.3601    4.7615    1.1779 H   0  0  0  0  0  0
    0.4308    5.3739   -0.2207 H   0  0  0  0  0  0
   -0.0394    1.3027   -1.3956 H   0  0  0  0  0  0
   -0.7593    4.0076   -2.7480 H   0  0  0  0  0  0
   -1.8004    2.9228   -1.7953 H   0  0  0  0  0  0
   -1.6022    4.6226   -1.3059 H   0  0  0  0  0  0
    4.3490    2.3799    0.9540 H   0  0  0  0  0  0
    3.5004    2.9975    2.3916 H   0  0  0  0  0  0
    3.3121    1.2942    1.9102 H   0  0  0  0  0  0
   -6.1719   -1.8601    1.4991 H   0  0  0  0  0  0
   -4.5718   -2.1701    1.9070 H   0  0  0  0  0  0
  1  2  1  0  0  0
  1  6  2  0  0  0
  1 23  1  0  0  0
  2  3  2  0  0  0
  2 27  1  0  0  0
  3  4  1  0  0  0
  3 28  1  0  0  0
  4  5  2  0  0  0
  4  7  1  0  0  0
  5  6  1  0  0  0
  5 29  1  0  0  0
  6 30  1  0  0  0
  7  8  1  0  0  0
  7 11  1  0  0  0
  8  9  2  0  0  0
  8 15  1  0  0  0
  9 10  1  0  0  0
  9 31  1  0  0  0
 10 11  2  0  0  0
 10 12  1  0  0  0
 12 13  1  0  0  0
 12 14  1  0  0  0
 12 32  1  0  0  0
 15 16  1  0  0  0
 15 20  2  0  0  0
 16 17  2  0  0  0
 16 22  1  0  0  0
 17 18  1  0  0  0
 17 33  1  0  0  0
 18 19  2  0  0  0
 18 34  1  0  0  0
 19 20  1  0  0  0
 19 21  1  0  0  0
 20 35  1  0  0  0
 21 36  1  0  0  0
 21 37  1  0  0  0
 21 38  1  0  0  0
 22 39  1  0  0  0
 22 40  1  0  0  0
 22 41  1  0  0  0
 23 24  2  0  0  0
 23 25  2  0  0  0
 23 26  1  0  0  0
 26 42  1  0  0  0
 26 43  1  0  0  0
M  END
>  <Activity>
4

>  <set>
3

>  <Min_dist>
0.059702

>  <Avg_dist>
0.507921

$$$$
8-3A
  Cerius2 12110214523D 1   1.00000                          
 
 40 42  0  0  0  0  0  0  0  0999 V2000
   -2.8061   -1.2119    0.0069 C   0  0  0  0  0  0
   -1.9640   -2.0152   -0.7400 C   0  0  0  0  0  0
   -0.6040   -1.7746   -0.7466 C   0  0  0  0  0  0
   -0.0825   -0.7247   -0.0021 C   0  0  0  0  0  0
   -0.9310    0.0802    0.7470 C   0  0  0  0  0  0
   -2.2900   -0.1657    0.7493 C   0  0  0  0  0  0
    1.2959   -0.4784   -0.0062 N   0  0  0  0  0  0
    1.8711    0.7609   -0.0338 C   0  0  0  0  0  0
    3.2242    0.5685   -0.0271 C   0  0  0  0  0  0
    3.4053   -0.8320    0.0053 C   0  0  0  0  0  0
    2.2067   -1.3837    0.0209 N   0  0  0  0  0  0
    4.6965   -1.5462    0.0239 C   0  0  0  0  0  0
    5.7375   -0.9198    0.0112 O   0  0  0  0  0  0
    4.7211   -2.8930    0.0549 O   0  0  0  0  0  0
    5.9916   -3.5957    0.0731 C   0  0  0  0  0  0
    1.1650    2.0608   -0.0648 C   0  0  0  0  0  0
    1.6454    3.1363    0.6829 C   0  0  0  0  0  0
    0.9834    4.3460    0.6505 C   0  0  0  0  0  0
   -0.1569    4.4941   -0.1228 C   0  0  0  0  0  0
   -0.6381    3.4289   -0.8671 C   0  0  0  0  0  0
    0.0198    2.2168   -0.8462 C   0  0  0  0  0  0
   -0.8019    5.6808   -0.1507 F   0  0  0  0  0  0
   -4.5414   -1.5178    0.0068 S   0  0  0  0  0  0
   -5.1498   -0.2898    0.3826 O   0  0  0  0  0  0
   -4.8070   -2.2345   -1.1911 O   0  0  0  0  0  0
   -4.8581   -2.5736    1.2426 N   0  0  0  0  0  0
   -2.3701   -2.8318   -1.3185 H   0  0  0  0  0  0
    0.0532   -2.4025   -1.3299 H   0  0  0  0  0  0
   -0.5284    0.8973    1.3273 H   0  0  0  0  0  0
   -2.9503    0.4599    1.3316 H   0  0  0  0  0  0
    3.9928    1.3271   -0.0436 H   0  0  0  0  0  0
    5.8120   -4.6706    0.0975 H   0  0  0  0  0  0
    6.5597   -3.3425   -0.8220 H   0  0  0  0  0  0
    6.5568   -3.3017    0.9575 H   0  0  0  0  0  0
    2.5339    3.0218    1.2861 H   0  0  0  0  0  0
    1.3543    5.1791    1.2292 H   0  0  0  0  0  0
   -1.5275    3.5493   -1.4679 H   0  0  0  0  0  0
   -0.3559    1.3873   -1.4270 H   0  0  0  0  0  0
   -5.7674   -2.8678    1.4081 H   0  0  0  0  0  0
   -4.1342   -2.8979    1.8010 H   0  0  0  0  0  0
  1  2  1  0  0  0
  1  6  2  0  0  0
  1 23  1  0  0  0
  2  3  2  0  0  0
  2 27  1  0  0  0
  3  4  1  0  0  0
  3 28  1  0  0  0
  4  5  2  0  0  0
  4  7  1  0  0  0
  5  6  1  0  0  0
  5 29  1  0  0  0
  6 30  1  0  0  0
  7  8  1  0  0  0
  7 11  1  0  0  0
  8  9  2  0  0  0
  8 16  1  0  0  0
  9 10  1  0  0  0
  9 31  1  0  0  0
 10 11  2  0  0  0
 10 12  1  0  0  0
 12 13  2  0  0  0
 12 14  1  0  0  0
 14 15  1  0  0  0
 15 32  1  0  0  0
 15 33  1  0  0  0
 15 34  1  0  0  0
 16 17  1  0  0  0
 16 21  2  0  0  0
 17 18  2  0  0  0
 17 35  1  0  0  0
 18 19  1  0  0  0
 18 36  1  0  0  0
 19 20  2  0  0  0
 19 22  1  0  0  0
 20 21  1  0  0  0
 20 37  1  0  0  0
 21 38  1  0  0  0
 23 24  2  0  0  0
 23 25  2  0  0  0
 23 26  1  0  0  0
 26 39  1  0  0  0
 26 40  1  0  0  0
M  END
>  <Activity>
4

>  <set>
3

>  <Min_dist>
0.272727

>  <Avg_dist>
0.578186

$$$$
8-10A
  Cerius2 12110214523D 1   1.00000                          
 
 36 38  0  0  0  0  0  0  0  0999 V2000
   -2.7818   -0.8104    0.0079 C   0  0  0  0  0  0
   -2.1230   -1.7730   -0.7349 C   0  0  0  0  0  0
   -0.7427   -1.8196   -0.7386 C   0  0  0  0  0  0
   -0.0163   -0.8981    0.0043 C   0  0  0  0  0  0
   -0.6809    0.0676    0.7489 C   0  0  0  0  0  0
   -2.0614    0.1085    0.7488 C   0  0  0  0  0  0
    1.3831   -0.9429    0.0030 N   0  0  0  0  0  0
    2.2028    0.1504   -0.0265 C   0  0  0  0  0  0
    3.4866   -0.3175   -0.0167 C   0  0  0  0  0  0
    3.3740   -1.7259    0.0197 C   0  0  0  0  0  0
    2.0862   -2.0175    0.0351 N   0  0  0  0  0  0
    4.4879   -2.6904    0.0422 C   0  0  0  0  0  0
    5.6437   -2.2903    0.0295 O   0  0  0  0  0  0
    4.2566   -3.8911    0.0736 O   0  0  0  0  0  0
    1.7811    1.5682   -0.0628 C   0  0  0  0  0  0
    2.4725    2.5234    0.6830 C   0  0  0  0  0  0
    2.0756    3.8438    0.6454 C   0  0  0  0  0  0
    0.9922    4.2223   -0.1313 C   0  0  0  0  0  0
    0.3022    3.2775   -0.8738 C   0  0  0  0  0  0
    0.6943    1.9553   -0.8473 C   0  0  0  0  0  0
    0.6072    5.5169   -0.1644 F   0  0  0  0  0  0
   -4.5428   -0.7502    0.0046 S   0  0  0  0  0  0
   -4.8843    0.5783    0.3758 O   0  0  0  0  0  0
   -4.9491   -1.4001   -1.1920 O   0  0  0  0  0  0
   -5.0734   -1.7137    1.2424 N   0  0  0  0  0  0
   -2.6885   -2.4893   -1.3124 H   0  0  0  0  0  0
   -0.2288   -2.5721   -1.3184 H   0  0  0  0  0  0
   -0.1189    0.7854    1.3279 H   0  0  0  0  0  0
   -2.5789    0.8595    1.3273 H   0  0  0  0  0  0
    4.3954    0.2658   -0.0333 H   0  0  0  0  0  0
    3.3167    2.2293    1.2889 H   0  0  0  0  0  0
    2.6099    4.5840    1.2226 H   0  0  0  0  0  0
   -0.5415    3.5776   -1.4776 H   0  0  0  0  0  0
    0.1561    1.2197   -1.4266 H   0  0  0  0  0  0
   -6.0243   -1.8127    1.4066 H   0  0  0  0  0  0
   -4.4334   -2.1792    1.8034 H   0  0  0  0  0  0
  1  2  1  0  0  0
  1  6  2  0  0  0
  1 22  1  0  0  0
  2  3  2  0  0  0
  2 26  1  0  0  0
  3  4  1  0  0  0
  3 27  1  0  0  0
  4  5  2  0  0  0
  4  7  1  0  0  0
  5  6  1  0  0  0
  5 28  1  0  0  0
  6 29  1  0  0  0
  7  8  1  0  0  0
  7 11  1  0  0  0
  8  9  2  0  0  0
  8 15  1  0  0  0
  9 10  1  0  0  0
  9 30  1  0  0  0
 10 11  2  0  0  0
 10 12  1  0  0  0
 12 13  2  0  0  0
 12 14  1  0  0  0
 15 16  1  0  0  0
 15 20  2  0  0  0
 16 17  2  0  0  0
 16 31  1  0  0  0
 17 18  1  0  0  0
 17 32  1  0  0  0
 18 19  2  0  0  0
 18 21  1  0  0  0
 19 20  1  0  0  0
 19 33  1  0  0  0
 20 34  1  0  0  0
 22 23  2  0  0  0
 22 24  2  0  0  0
 22 25  1  0  0  0
 25 35  1  0  0  0
 25 36  1  0  0  0
M  END
>  <Activity>
4

>  <set>
3

>  <Min_dist>
0.186667

>  <Avg_dist>
0.553625

$$$$
8-11A
  Cerius2 12110214523D 1   1.00000                          
 
 39 41  0  0  0  0  0  0  0  0999 V2000
   -2.8106   -1.2139    0.0069 C   0  0  0  0  0  0
   -1.9648   -2.0154   -0.7378 C   0  0  0  0  0  0
   -0.6056   -1.7704   -0.7429 C   0  0  0  0  0  0
   -0.0885   -0.7178    0.0010 C   0  0  0  0  0  0
   -0.9406    0.0853    0.7479 C   0  0  0  0  0  0
   -2.2988   -0.1650    0.7487 C   0  0  0  0  0  0
    1.2891   -0.4670   -0.0017 N   0  0  0  0  0  0
    1.8603    0.7741   -0.0300 C   0  0  0  0  0  0
    3.2140    0.5860   -0.0213 C   0  0  0  0  0  0
    3.3996   -0.8138    0.0132 C   0  0  0  0  0  0
    2.2028   -1.3694    0.0278 N   0  0  0  0  0  0
    4.6931   -1.5238    0.0343 C   0  0  0  0  0  0
    5.7320   -0.8941    0.0223 O   0  0  0  0  0  0
    4.7220   -2.8705    0.0671 O   0  0  0  0  0  0
    5.8650   -3.4979    0.0858 N   0  0  0  0  0  0
    1.1500    2.0716   -0.0636 C   0  0  0  0  0  0
    1.6260    3.1496    0.6832 C   0  0  0  0  0  0
    0.9601    4.3571    0.6485 C   0  0  0  0  0  0
   -0.1796    4.5005   -0.1265 C   0  0  0  0  0  0
   -0.6564    3.4329   -0.8702 C   0  0  0  0  0  0
    0.0054    2.2229   -0.8468 C   0  0  0  0  0  0
   -0.8284    5.6851   -0.1568 F   0  0  0  0  0  0
   -4.5448   -1.5253    0.0049 S   0  0  0  0  0  0
   -5.1577   -0.2989    0.3784 O   0  0  0  0  0  0
   -4.8066   -2.2445   -1.1924 O   0  0  0  0  0  0
   -4.8597   -2.5806    1.2416 N   0  0  0  0  0  0
   -2.3675   -2.8340   -1.3158 H   0  0  0  0  0  0
    0.0544   -2.3969   -1.3245 H   0  0  0  0  0  0
   -0.5415    0.9044    1.3277 H   0  0  0  0  0  0
   -2.9619    0.4592    1.3293 H   0  0  0  0  0  0
    3.9802    1.3471   -0.0378 H   0  0  0  0  0  0
    5.6540   -4.4843    0.1091 H   0  0  0  0  0  0
    6.3094   -3.3173   -0.8019 H   0  0  0  0  0  0
    2.5140    3.0388    1.2878 H   0  0  0  0  0  0
    1.3275    5.1922    1.2265 H   0  0  0  0  0  0
   -1.5453    3.5496   -1.4723 H   0  0  0  0  0  0
   -0.3668    1.3915   -1.4270 H   0  0  0  0  0  0
   -5.7684   -2.8776    1.4063 H   0  0  0  0  0  0
   -4.1356   -2.9018    1.8014 H   0  0  0  0  0  0
  1  2  1  0  0  0
  1  6  2  0  0  0
  1 23  1  0  0  0
  2  3  2  0  0  0
  2 27  1  0  0  0
  3  4  1  0  0  0
  3 28  1  0  0  0
  4  5  2  0  0  0
  4  7  1  0  0  0
  5  6  1  0  0  0
  5 29  1  0  0  0
  6 30  1  0  0  0
  7  8  1  0  0  0
  7 11  1  0  0  0
  8  9  2  0  0  0
  8 16  1  0  0  0
  9 10  1  0  0  0
  9 31  1  0  0  0
 10 11  2  0  0  0
 10 12  1  0  0  0
 12 13  2  0  0  0
 12 14  1  0  0  0
 14 15  1  0  0  0
 15 32  1  0  0  0
 15 33  1  0  0  0
 16 17  1  0  0  0
 16 21  2  0  0  0
 17 18  2  0  0  0
 17 34  1  0  0  0
 18 19  1  0  0  0
 18 35  1  0  0  0
 19 20  2  0  0  0
 19 22  1  0  0  0
 20 21  1  0  0  0
 20 36  1  0  0  0
 21 37  1  0  0  0
 23 24  2  0  0  0
 23 25  2  0  0  0
 23 26  1  0  0  0
 26 38  1  0  0  0
 26 39  1  0  0  0
M  END
>  <Activity>
4

>  <set>
3

>  <Min_dist>
0.280899

>  <Avg_dist>
0.59714

$$$$
8-19
  Cerius2 12110214523D 1   1.00000                          
 
 38 40  0  0  0  0  0  0  0  0999 V2000
   -2.5561   -0.4321    0.0062 C   0  0  0  0  0  0
   -1.9593   -1.4442   -0.7230 C   0  0  0  0  0  0
   -0.5847   -1.5775   -0.7252 C   0  0  0  0  0  0
    0.1984   -0.6934    0.0055 C   0  0  0  0  0  0
   -0.4040    0.3222    0.7364 C   0  0  0  0  0  0
   -1.7792    0.4498    0.7349 C   0  0  0  0  0  0
    1.5923   -0.8261    0.0057 N   0  0  0  0  0  0
    2.4980    0.1953   -0.0376 C   0  0  0  0  0  0
    3.7444   -0.3638   -0.0201 C   0  0  0  0  0  0
    3.5895   -1.7539    0.0349 C   0  0  0  0  0  0
    2.3069   -2.0298    0.0565 N   0  0  0  0  0  0
    4.5984   -2.6648    0.0670 O   0  0  0  0  0  0
    3.9879   -3.9557    0.1198 C   0  0  0  0  0  0
    2.1868    1.6404   -0.0935 C   0  0  0  0  0  0
    2.9492    2.5501    0.6398 C   0  0  0  0  0  0
    2.6538    3.8966    0.5834 C   0  0  0  0  0  0
    1.6042    4.3454   -0.1982 C   0  0  0  0  0  0
    0.8441    3.4484   -0.9274 C   0  0  0  0  0  0
    1.1332    2.1000   -0.8844 C   0  0  0  0  0  0
   -4.3098   -0.2614    0.0010 S   0  0  0  0  0  0
   -4.5671    1.0909    0.3537 O   0  0  0  0  0  0
   -4.7564   -0.9008   -1.1868 O   0  0  0  0  0  0
   -4.8997   -1.1726    1.2516 N   0  0  0  0  0  0
   -2.5688   -2.1314   -1.2910 H   0  0  0  0  0  0
   -0.1192   -2.3687   -1.2943 H   0  0  0  0  0  0
    0.2021    1.0111    1.3059 H   0  0  0  0  0  0
   -2.2483    1.2397    1.3027 H   0  0  0  0  0  0
    4.6822    0.1713   -0.0450 H   0  0  0  0  0  0
    4.7618   -4.7228    0.1471 H   0  0  0  0  0  0
    3.3713   -4.0296    1.0156 H   0  0  0  0  0  0
    3.3649   -4.0993   -0.7630 H   0  0  0  0  0  0
    3.7686    2.2010    1.2507 H   0  0  0  0  0  0
    3.2429    4.6018    1.1509 H   0  0  0  0  0  0
    1.3769    5.4004   -0.2390 H   0  0  0  0  0  0
    0.0258    3.8049   -1.5354 H   0  0  0  0  0  0
    0.5394    1.4007   -1.4543 H   0  0  0  0  0  0
   -5.8548   -1.2094    1.4165 H   0  0  0  0  0  0
   -4.2900   -1.6696    1.8192 H   0  0  0  0  0  0
  1  2  1  0  0  0
  1  6  2  0  0  0
  1 20  1  0  0  0
  2  3  2  0  0  0
  2 24  1  0  0  0
  3  4  1  0  0  0
  3 25  1  0  0  0
  4  5  2  0  0  0
  4  7  1  0  0  0
  5  6  1  0  0  0
  5 26  1  0  0  0
  6 27  1  0  0  0
  7  8  1  0  0  0
  7 11  1  0  0  0
  8  9  2  0  0  0
  8 14  1  0  0  0
  9 10  1  0  0  0
  9 28  1  0  0  0
 10 11  2  0  0  0
 10 12  1  0  0  0
 12 13  1  0  0  0
 13 29  1  0  0  0
 13 30  1  0  0  0
 13 31  1  0  0  0
 14 15  1  0  0  0
 14 19  2  0  0  0
 15 16  2  0  0  0
 15 32  1  0  0  0
 16 17  1  0  0  0
 16 33  1  0  0  0
 17 18  2  0  0  0
 17 34  1  0  0  0
 18 19  1  0  0  0
 18 35  1  0  0  0
 19 36  1  0  0  0
 20 21  2  0  0  0
 20 22  2  0  0  0
 20 23  1  0  0  0
 23 37  1  0  0  0
 23 38  1  0  0  0
M  END
>  <Activity>
4

>  <set>
3

>  <Min_dist>
0.308642

>  <Avg_dist>
0.571092

$$$$
8-22A
  Cerius2 12110214523D 1   1.00000                          
 
 34 36  0  0  0  0  0  0  0  0999 V2000
   -2.4681   -0.1344    0.0095 C   0  0  0  0  0  0
   -2.2996   -1.2969   -0.7203 C   0  0  0  0  0  0
   -1.0812   -1.9473   -0.7142 C   0  0  0  0  0  0
   -0.0248   -1.4327    0.0258 C   0  0  0  0  0  0
   -0.1972   -0.2653    0.7576 C   0  0  0  0  0  0
   -1.4181    0.3805    0.7474 C   0  0  0  0  0  0
    1.2120   -2.0903    0.0344 N   0  0  0  0  0  0
    2.4410   -1.4956    0.0020 C   0  0  0  0  0  0
    3.3753   -2.4927    0.0249 C   0  0  0  0  0  0
    2.6988   -3.7120    0.0720 C   0  0  0  0  0  0
    1.4109   -3.4760    0.0839 N   0  0  0  0  0  0
    2.7107   -0.0421   -0.0489 C   0  0  0  0  0  0
    3.7590    0.5019    0.6942 C   0  0  0  0  0  0
    4.0063    1.8579    0.6432 C   0  0  0  0  0  0
    3.2157    2.6797   -0.1442 C   0  0  0  0  0  0
    2.1731    2.1446   -0.8837 C   0  0  0  0  0  0
    1.9213    0.7890   -0.8446 C   0  0  0  0  0  0
    3.4620    4.0072   -0.1906 F   0  0  0  0  0  0
   -4.0219    0.6963   -0.0066 S   0  0  0  0  0  0
   -3.7433    2.0432    0.3507 O   0  0  0  0  0  0
   -4.6702    0.2793   -1.2004 O   0  0  0  0  0  0
   -4.9263    0.0791    1.2357 N   0  0  0  0  0  0
   -3.1217   -1.6967   -1.2953 H   0  0  0  0  0  0
   -0.9503   -2.8553   -1.2841 H   0  0  0  0  0  0
    0.6224    0.1372    1.3344 H   0  0  0  0  0  0
   -1.5528    1.2885    1.3164 H   0  0  0  0  0  0
    4.4470   -2.3603    0.0090 H   0  0  0  0  0  0
    3.1606   -4.6880    0.0986 H   0  0  0  0  0  0
    4.3755   -0.1377    1.3084 H   0  0  0  0  0  0
    4.8172    2.2799    1.2182 H   0  0  0  0  0  0
    1.5596    2.7894   -1.4955 H   0  0  0  0  0  0
    1.1086    0.3729   -1.4216 H   0  0  0  0  0  0
   -5.8237    0.4114    1.3941 H   0  0  0  0  0  0
   -4.5586   -0.6148    1.8051 H   0  0  0  0  0  0
  1  2  1  0  0  0
  1  6  2  0  0  0
  1 19  1  0  0  0
  2  3  2  0  0  0
  2 23  1  0  0  0
  3  4  1  0  0  0
  3 24  1  0  0  0
  4  5  2  0  0  0
  4  7  1  0  0  0
  5  6  1  0  0  0
  5 25  1  0  0  0
  6 26  1  0  0  0
  7  8  1  0  0  0
  7 11  1  0  0  0
  8  9  2  0  0  0
  8 12  1  0  0  0
  9 10  1  0  0  0
  9 27  1  0  0  0
 10 11  2  0  0  0
 10 28  1  0  0  0
 12 13  1  0  0  0
 12 17  2  0  0  0
 13 14  2  0  0  0
 13 29  1  0  0  0
 14 15  1  0  0  0
 14 30  1  0  0  0
 15 16  2  0  0  0
 15 18  1  0  0  0
 16 17  1  0  0  0
 16 31  1  0  0  0
 17 32  1  0  0  0
 19 20  2  0  0  0
 19 21  2  0  0  0
 19 22  1  0  0  0
 22 33  1  0  0  0
 22 34  1  0  0  0
M  END
>  <Activity>
4

>  <set>
3

>  <Min_dist>
0.215385

>  <Avg_dist>
0.535578

$$$$
8-30
  Cerius2 12110214523D 1   1.00000                          
 
 43 45  0  0  0  0  0  0  0  0999 V2000
   -2.7378   -0.4866   -0.2830 C   0  0  0  0  0  0
   -2.0372   -1.4223   -1.0218 C   0  0  0  0  0  0
   -0.6585   -1.4668   -0.9533 C   0  0  0  0  0  0
    0.0241   -0.5706   -0.1414 C   0  0  0  0  0  0
   -0.6823    0.3678    0.5992 C   0  0  0  0  0  0
   -2.0609    0.4072    0.5264 C   0  0  0  0  0  0
    1.4225   -0.6134   -0.0694 N   0  0  0  0  0  0
    2.2599    0.4641   -0.0165 C   0  0  0  0  0  0
    3.5374   -0.0172    0.0453 C   0  0  0  0  0  0
    3.4710   -1.4108    0.0295 C   0  0  0  0  0  0
    2.2131   -1.7691   -0.0327 N   0  0  0  0  0  0
    4.6502   -2.3477    0.0814 C   0  0  0  0  0  0
    4.1967   -3.6706    0.0464 F   0  0  0  0  0  0
    5.4827   -2.1108   -1.0177 F   0  0  0  0  0  0
    5.3660   -2.1312    1.2638 F   0  0  0  0  0  0
    1.8587    1.8878   -0.0250 C   0  0  0  0  0  0
    2.5209    2.8067    0.7899 C   0  0  0  0  0  0
    2.1428    4.1331    0.7782 C   0  0  0  0  0  0
    1.1073    4.5537   -0.0409 C   0  0  0  0  0  0
    0.4460    3.6452   -0.8518 C   0  0  0  0  0  0
    0.8204    2.3176   -0.8523 C   0  0  0  0  0  0
    0.7408    5.8541   -0.0487 F   0  0  0  0  0  0
   -4.4962   -0.4284   -0.3787 S   0  0  0  0  0  0
   -4.8612    0.8861    0.0188 O   0  0  0  0  0  0
   -4.8359   -1.0374   -1.6168 O   0  0  0  0  0  0
   -5.0895   -1.4345    0.7953 N   0  0  0  0  0  0
   -5.3647   -0.9131    2.1364 C   0  0  0  0  0  0
   -5.3392   -2.8460    0.4927 C   0  0  0  0  0  0
   -2.5687   -2.1193   -1.6528 H   0  0  0  0  0  0
   -0.1119   -2.1980   -1.5303 H   0  0  0  0  0  0
   -0.1542    1.0659    1.2318 H   0  0  0  0  0  0
   -2.6109    1.1368    1.1023 H   0  0  0  0  0  0
    4.4386    0.5758    0.0969 H   0  0  0  0  0  0
    3.3278    2.4798    1.4290 H   0  0  0  0  0  0
    2.6545    4.8451    1.4089 H   0  0  0  0  0  0
   -0.3606    3.9780   -1.4882 H   0  0  0  0  0  0
    0.3047    1.6104   -1.4849 H   0  0  0  0  0  0
   -5.7466   -1.7159    2.7670 H   0  0  0  0  0  0
   -4.4452   -0.5179    2.5683 H   0  0  0  0  0  0
   -6.1069   -0.1175    2.0716 H   0  0  0  0  0  0
   -5.0771   -3.0468   -0.5461 H   0  0  0  0  0  0
   -4.7323   -3.4709    1.1478 H   0  0  0  0  0  0
   -6.3940   -3.0705    0.6512 H   0  0  0  0  0  0
  1  2  1  0  0  0
  1  6  2  0  0  0
  1 23  1  0  0  0
  2  3  2  0  0  0
  2 29  1  0  0  0
  3  4  1  0  0  0
  3 30  1  0  0  0
  4  5  2  0  0  0
  4  7  1  0  0  0
  5  6  1  0  0  0
  5 31  1  0  0  0
  6 32  1  0  0  0
  7  8  1  0  0  0
  7 11  1  0  0  0
  8  9  2  0  0  0
  8 16  1  0  0  0
  9 10  1  0  0  0
  9 33  1  0  0  0
 10 11  2  0  0  0
 10 12  1  0  0  0
 12 13  1  0  0  0
 12 14  1  0  0  0
 12 15  1  0  0  0
 16 17  1  0  0  0
 16 21  2  0  0  0
 17 18  2  0  0  0
 17 34  1  0  0  0
 18 19  1  0  0  0
 18 35  1  0  0  0
 19 20  2  0  0  0
 19 22  1  0  0  0
 20 21  1  0  0  0
 20 36  1  0  0  0
 21 37  1  0  0  0
 23 24  2  0  0  0
 23 25  2  0  0  0
 23 26  1  0  0  0
 26 27  1  0  0  0
 26 28  1  0  0  0
 27 38  1  0  0  0
 27 39  1  0  0  0
 27 40  1  0  0  0
 28 41  1  0  0  0
 28 42  1  0  0  0
 28 43  1  0  0  0
M  END
>  <Activity>
4

>  <set>
3

>  <Min_dist>
0.150685

>  <Avg_dist>
0.540955

$$$$
8-31
  Cerius2 12110214523D 1   1.00000                          
 
 40 42  0  0  0  0  0  0  0  0999 V2000
   -2.9130   -0.1181   -0.4244 C   0  0  0  0  0  0
   -2.2724   -1.1090   -1.1577 C   0  0  0  0  0  0
   -0.9051   -1.2681   -1.0553 C   0  0  0  0  0  0
   -0.1701   -0.4382   -0.2190 C   0  0  0  0  0  0
   -0.8103    0.5521    0.5145 C   0  0  0  0  0  0
   -2.1774    0.7122    0.4118 C   0  0  0  0  0  0
    1.2187   -0.6003   -0.1148 N   0  0  0  0  0  0
    2.1427    0.4014   -0.0324 C   0  0  0  0  0  0
    3.3733   -0.1872    0.0555 C   0  0  0  0  0  0
    3.1894   -1.5696    0.0257 C   0  0  0  0  0  0
    1.9074   -1.8193   -0.0704 N   0  0  0  0  0  0
    4.2833   -2.6036    0.0981 C   0  0  0  0  0  0
    3.7203   -3.8830    0.0403 F   0  0  0  0  0  0
    5.1602   -2.4310   -0.9783 F   0  0  0  0  0  0
    4.9851   -2.4568    1.2994 F   0  0  0  0  0  0
    1.8639    1.8541   -0.0378 C   0  0  0  0  0  0
    2.5816    2.7078    0.8008 C   0  0  0  0  0  0
    2.3181    4.0617    0.7915 C   0  0  0  0  0  0
    1.3423    4.5743   -0.0482 C   0  0  0  0  0  0
    0.6267    3.7309   -0.8830 C   0  0  0  0  0  0
    0.8864    2.3762   -0.8856 C   0  0  0  0  0  0
    1.0874    5.9011   -0.0529 F   0  0  0  0  0  0
   -4.2970    0.0470   -0.5323 N   0  0  0  0  0  0
   -5.3190   -1.0245    0.2092 S   0  0  0  0  0  0
   -6.6036   -0.5163   -0.1237 O   0  0  0  0  0  0
   -4.8574   -2.2812   -0.2670 O   0  0  0  0  0  0
   -4.9470   -0.7993    1.9703 C   0  0  0  0  0  0
   -2.8441   -1.7549   -1.8075 H   0  0  0  0  0  0
   -0.4070   -2.0384   -1.6253 H   0  0  0  0  0  0
   -0.2385    1.1972    1.1651 H   0  0  0  0  0  0
   -2.6753    1.4826    0.9819 H   0  0  0  0  0  0
    4.3199    0.3268    0.1336 H   0  0  0  0  0  0
    3.3419    2.3091    1.4561 H   0  0  0  0  0  0
    2.8730    4.7233    1.4402 H   0  0  0  0  0  0
   -0.1331    4.1354   -1.5353 H   0  0  0  0  0  0
    0.3284    1.7197   -1.5368 H   0  0  0  0  0  0
   -4.6586    0.7892   -1.0415 H   0  0  0  0  0  0
   -5.6369   -1.3964    2.5666 H   0  0  0  0  0  0
   -3.9241   -1.1192    2.1693 H   0  0  0  0  0  0
   -5.0563    0.2529    2.2331 H   0  0  0  0  0  0
  1  2  1  0  0  0
  1  6  2  0  0  0
  1 23  1  0  0  0
  2  3  2  0  0  0
  2 28  1  0  0  0
  3  4  1  0  0  0
  3 29  1  0  0  0
  4  5  2  0  0  0
  4  7  1  0  0  0
  5  6  1  0  0  0
  5 30  1  0  0  0
  6 31  1  0  0  0
  7  8  1  0  0  0
  7 11  1  0  0  0
  8  9  2  0  0  0
  8 16  1  0  0  0
  9 10  1  0  0  0
  9 32  1  0  0  0
 10 11  2  0  0  0
 10 12  1  0  0  0
 12 13  1  0  0  0
 12 14  1  0  0  0
 12 15  1  0  0  0
 16 17  1  0  0  0
 16 21  2  0  0  0
 17 18  2  0  0  0
 17 33  1  0  0  0
 18 19  1  0  0  0
 18 34  1  0  0  0
 19 20  2  0  0  0
 19 22  1  0  0  0
 20 21  1  0  0  0
 20 35  1  0  0  0
 21 36  1  0  0  0
 23 24  1  0  0  0
 23 37  1  0  0  0
 24 25  2  0  0  0
 24 26  2  0  0  0
 24 27  1  0  0  0
 27 38  1  0  0  0
 27 39  1  0  0  0
 27 40  1  0  0  0
M  END
>  <Activity>
4

>  <set>
3

>  <Min_dist>
0.291667

>  <Avg_dist>
0.609911

$$$$
8-32
  Cerius2 12110214523D 1   1.00000                          
 
 34 36  0  0  0  0  0  0  0  0999 V2000
   -3.2290   -1.8362    0.1001 C   0  0  0  0  0  0
   -2.3032   -2.5469   -0.6414 C   0  0  0  0  0  0
   -0.9824   -2.1440   -0.6691 C   0  0  0  0  0  0
   -0.5846   -1.0236    0.0484 C   0  0  0  0  0  0
   -1.5168   -0.3118    0.7918 C   0  0  0  0  0  0
   -2.8360   -0.7200    0.8158 C   0  0  0  0  0  0
    0.7543   -0.6127    0.0228 N   0  0  0  0  0  0
    1.2004    0.6768   -0.0355 C   0  0  0  0  0  0
    2.5663    0.6341   -0.0408 C   0  0  0  0  0  0
    2.9528   -0.7054    0.0152 C   0  0  0  0  0  0
    1.8766   -1.4501    0.0585 N   0  0  0  0  0  0
    4.3724   -1.2108    0.0288 C   0  0  0  0  0  0
    4.3694   -2.6085    0.0896 F   0  0  0  0  0  0
    5.0262   -0.7962   -1.1365 F   0  0  0  0  0  0
    5.0397   -0.6969    1.1459 F   0  0  0  0  0  0
    0.3609    1.8937   -0.0842 C   0  0  0  0  0  0
    0.7318    3.0294    0.6367 C   0  0  0  0  0  0
   -0.0543    4.1618    0.5875 C   0  0  0  0  0  0
   -1.2105    4.1728   -0.1762 C   0  0  0  0  0  0
   -1.5833    3.0476   -0.8940 C   0  0  0  0  0  0
   -0.8015    1.9119   -0.8558 C   0  0  0  0  0  0
   -1.9772    5.2843   -0.2208 F   0  0  0  0  0  0
   -4.6448   -2.2674    0.1231 N   0  3  0  0  0  0
   -5.4613   -1.6423    0.7758 O   0  0  0  0  0  0
   -4.9933   -3.2473   -0.5108 O   0  0  0  0  0  0
   -2.6132   -3.4182   -1.1992 H   0  0  0  0  0  0
   -0.2597   -2.6999   -1.2479 H   0  0  0  0  0  0
   -1.2105    0.5598    1.3511 H   0  0  0  0  0  0
   -3.5615   -0.1668    1.3937 H   0  0  0  0  0  0
    3.2290    1.4859   -0.0813 H   0  0  0  0  0  0
    1.6326    3.0217    1.2325 H   0  0  0  0  0  0
    0.2317    5.0412    1.1454 H   0  0  0  0  0  0
   -2.4854    3.0614   -1.4877 H   0  0  0  0  0  0
   -1.0930    1.0355   -1.4157 H   0  0  0  0  0  0
  1  2  1  0  0  0
  1  6  2  0  0  0
  1 23  1  0  0  0
  2  3  2  0  0  0
  2 26  1  0  0  0
  3  4  1  0  0  0
  3 27  1  0  0  0
  4  5  2  0  0  0
  4  7  1  0  0  0
  5  6  1  0  0  0
  5 28  1  0  0  0
  6 29  1  0  0  0
  7  8  1  0  0  0
  7 11  1  0  0  0
  8  9  2  0  0  0
  8 16  1  0  0  0
  9 10  1  0  0  0
  9 30  1  0  0  0
 10 11  2  0  0  0
 10 12  1  0  0  0
 12 13  1  0  0  0
 12 14  1  0  0  0
 12 15  1  0  0  0
 16 17  1  0  0  0
 16 21  2  0  0  0
 17 18  2  0  0  0
 17 31  1  0  0  0
 18 19  1  0  0  0
 18 32  1  0  0  0
 19 20  2  0  0  0
 19 22  1  0  0  0
 20 21  1  0  0  0
 20 33  1  0  0  0
 21 34  1  0  0  0
 23 24  2  0  0  0
 23 25  1  0  0  0
M  CHG  1  23   1
M  END
>  <Activity>
4

>  <set>
3

>  <Min_dist>
0.163934

>  <Avg_dist>
0.590078

$$$$
8-33
  Cerius2 12110214523D 1   1.00000                          
 
 37 39  0  0  0  0  0  0  0  0999 V2000
   -2.6167   -1.4114   -0.2753 C   0  0  0  0  0  0
   -1.7107   -2.2073   -0.9866 C   0  0  0  0  0  0
   -0.3619   -1.9447   -0.9125 C   0  0  0  0  0  0
    0.1020   -0.8903   -0.1318 C   0  0  0  0  0  0
   -0.7948   -0.0965    0.5769 C   0  0  0  0  0  0
   -2.1453   -0.3512    0.5085 C   0  0  0  0  0  0
    1.4714   -0.6282   -0.0590 N   0  0  0  0  0  0
    2.0566    0.6068   -0.0461 C   0  0  0  0  0  0
    3.4069    0.4150    0.0339 C   0  0  0  0  0  0
    3.6427   -0.9602    0.0700 C   0  0  0  0  0  0
    2.4927   -1.5837    0.0203 N   0  0  0  0  0  0
    4.9958   -1.6179    0.1574 C   0  0  0  0  0  0
    4.8386   -3.0079    0.1717 F   0  0  0  0  0  0
    5.7668   -1.2471   -0.9494 F   0  0  0  0  0  0
    5.6380   -1.2091    1.3312 F   0  0  0  0  0  0
    1.3579    1.9090   -0.1082 C   0  0  0  0  0  0
    1.7995    2.9783    0.6720 C   0  0  0  0  0  0
    1.1446    4.1907    0.6100 C   0  0  0  0  0  0
    0.0497    4.3476   -0.2248 C   0  0  0  0  0  0
   -0.3932    3.2887   -1.0013 C   0  0  0  0  0  0
    0.2583    2.0740   -0.9514 C   0  0  0  0  0  0
   -0.5885    5.5371   -0.2815 F   0  0  0  0  0  0
   -4.0582   -1.6840   -0.3560 C   0  0  0  0  0  0
   -4.4649   -2.5997   -1.0395 O   0  0  0  0  0  0
   -5.0314   -0.8258    0.4105 C   0  0  0  0  0  0
   -6.3350   -1.2765    0.1767 F   0  0  0  0  0  0
   -4.7481   -0.9071    1.7781 F   0  0  0  0  0  0
   -4.9145    0.5028   -0.0118 F   0  0  0  0  0  0
   -2.0697   -3.0263   -1.5922 H   0  0  0  0  0  0
    0.3377   -2.5581   -1.4608 H   0  0  0  0  0  0
   -0.4302    0.7208    1.1815 H   0  0  0  0  0  0
   -2.8406    0.2653    1.0588 H   0  0  0  0  0  0
    4.1584    1.1900    0.0638 H   0  0  0  0  0  0
    2.6522    2.8568    1.3234 H   0  0  0  0  0  0
    1.4856    5.0189    1.2134 H   0  0  0  0  0  0
   -1.2474    3.4161   -1.6497 H   0  0  0  0  0  0
   -0.0874    1.2495   -1.5573 H   0  0  0  0  0  0
  1  2  1  0  0  0
  1  6  2  0  0  0
  1 23  1  0  0  0
  2  3  2  0  0  0
  2 29  1  0  0  0
  3  4  1  0  0  0
  3 30  1  0  0  0
  4  5  2  0  0  0
  4  7  1  0  0  0
  5  6  1  0  0  0
  5 31  1  0  0  0
  6 32  1  0  0  0
  7  8  1  0  0  0
  7 11  1  0  0  0
  8  9  2  0  0  0
  8 16  1  0  0  0
  9 10  1  0  0  0
  9 33  1  0  0  0
 10 11  2  0  0  0
 10 12  1  0  0  0
 12 13  1  0  0  0
 12 14  1  0  0  0
 12 15  1  0  0  0
 16 17  1  0  0  0
 16 21  2  0  0  0
 17 18  2  0  0  0
 17 34  1  0  0  0
 18 19  1  0  0  0
 18 35  1  0  0  0
 19 20  2  0  0  0
 19 22  1  0  0  0
 20 21  1  0  0  0
 20 36  1  0  0  0
 21 37  1  0  0  0
 23 24  2  0  0  0
 23 25  1  0  0  0
 25 26  1  0  0  0
 25 27  1  0  0  0
 25 28  1  0  0  0
M  END
>  <Activity>
4

>  <set>
3

>  <Min_dist>
0.238806

>  <Avg_dist>
0.598967

$$$$
8-34
  Cerius2 12110214523D 1   1.00000                          
 
 32 34  0  0  0  0  0  0  0  0999 V2000
    3.1792   -3.2493   -0.2277 C   0  0  0  0  0  0
    2.0653   -3.5973    0.5141 C   0  0  0  0  0  0
    0.9809   -2.7442    0.5759 C   0  0  0  0  0  0
    1.0099   -1.5360   -0.1079 C   0  0  0  0  0  0
    2.1300   -1.1894   -0.8520 C   0  0  0  0  0  0
    3.2112   -2.0468   -0.9099 C   0  0  0  0  0  0
   -0.0885   -0.6688   -0.0477 N   0  0  0  0  0  0
   -0.0361    0.6925    0.0488 C   0  0  0  0  0  0
   -1.3244    1.1473    0.0796 C   0  0  0  0  0  0
   -2.1708    0.0410    0.0004 C   0  0  0  0  0  0
   -1.4384   -1.0413   -0.0816 N   0  0  0  0  0  0
   -3.6772    0.0849    0.0025 C   0  0  0  0  0  0
   -4.1818   -1.2166   -0.0903 F   0  0  0  0  0  0
   -4.1249    0.6751    1.1892 F   0  0  0  0  0  0
   -4.1233    0.8370   -1.0896 F   0  0  0  0  0  0
    1.1880    1.5208    0.1091 C   0  0  0  0  0  0
    1.2477    2.7337   -0.5780 C   0  0  0  0  0  0
    2.3922    3.5019   -0.5173 C   0  0  0  0  0  0
    3.4793    3.0717    0.2224 C   0  0  0  0  0  0
    3.4264    1.8700    0.9060 C   0  0  0  0  0  0
    2.2856    1.0953    0.8580 C   0  0  0  0  0  0
    4.0277   -3.9160   -0.2708 H   0  0  0  0  0  0
    2.0431   -4.5373    1.0455 H   0  0  0  0  0  0
    0.1110   -3.0167    1.1552 H   0  0  0  0  0  0
    2.1554   -0.2506   -1.3853 H   0  0  0  0  0  0
    4.0826   -1.7779   -1.4884 H   0  0  0  0  0  0
   -1.6326    2.1798    0.1527 H   0  0  0  0  0  0
    0.4001    3.0703   -1.1564 H   0  0  0  0  0  0
    2.4397    4.4409   -1.0488 H   0  0  0  0  0  0
    4.3731    3.6763    0.2662 H   0  0  0  0  0  0
    4.2783    1.5397    1.4818 H   0  0  0  0  0  0
    2.2454    0.1577    1.3924 H   0  0  0  0  0  0
  1  2  1  0  0  0
  1  6  2  0  0  0
  1 22  1  0  0  0
  2  3  2  0  0  0
  2 23  1  0  0  0
  3  4  1  0  0  0
  3 24  1  0  0  0
  4  5  2  0  0  0
  4  7  1  0  0  0
  5  6  1  0  0  0
  5 25  1  0  0  0
  6 26  1  0  0  0
  7  8  1  0  0  0
  7 11  1  0  0  0
  8  9  2  0  0  0
  8 16  1  0  0  0
  9 10  1  0  0  0
  9 27  1  0  0  0
 10 11  2  0  0  0
 10 12  1  0  0  0
 12 13  1  0  0  0
 12 14  1  0  0  0
 12 15  1  0  0  0
 16 17  1  0  0  0
 16 21  2  0  0  0
 17 18  2  0  0  0
 17 28  1  0  0  0
 18 19  1  0  0  0
 18 29  1  0  0  0
 19 20  2  0  0  0
 19 30  1  0  0  0
 20 21  1  0  0  0
 20 31  1  0  0  0
 21 32  1  0  0  0
M  END
>  <Activity>
4

>  <set>
3

>  <Min_dist>
0.057692

>  <Avg_dist>
0.585792

$$$$
11-31
  Cerius2 12110214523D 1   1.00000                          
 
 44 47  0  0  0  0  0  0  0  0999 V2000
    0.2623    0.3445   -0.0052 C   0  0  0  0  0  0
    0.9334   -0.8749    0.0851 C   0  0  0  0  0  0
    2.2503   -0.8741    0.0908 N   0  0  0  0  0  0
    2.9434    0.2510    0.0133 C   0  0  0  0  0  0
    1.6452    1.4759   -0.0801 S   0  0  0  0  0  0
    4.4085    0.4440    0.0064 C   0  0  0  0  0  0
    5.2613   -0.6582    0.0890 C   0  0  0  0  0  0
    6.6279   -0.4713    0.0815 C   0  0  0  0  0  0
    7.1549    0.8053   -0.0076 C   0  0  0  0  0  0
    6.3167    1.9024   -0.0898 C   0  0  0  0  0  0
    4.9464    1.7295   -0.0887 C   0  0  0  0  0  0
    3.8953    3.1073   -0.1919 Cl  0  0  0  0  0  0
    0.1790   -2.1468    0.1733 C   0  0  0  0  0  0
    0.6240   -3.2738   -0.5167 C   0  0  0  0  0  0
   -0.0840   -4.4574   -0.4305 C   0  0  0  0  0  0
   -1.2340   -4.5256    0.3397 C   0  0  0  0  0  0
   -1.6803   -3.4112    1.0259 C   0  0  0  0  0  0
   -0.9773   -2.2234    0.9524 C   0  0  0  0  0  0
   -1.4146   -1.1354    1.6234 F   0  0  0  0  0  0
    0.3456   -5.5501   -1.0988 F   0  0  0  0  0  0
   -1.1866    0.6233   -0.0367 C   0  0  0  0  0  0
   -1.7056    1.7193    0.6568 C   0  0  0  0  0  0
   -3.0608    1.9737    0.6229 C   0  0  0  0  0  0
   -3.9057    1.1463   -0.0957 C   0  0  0  0  0  0
   -3.3985    0.0588   -0.7849 C   0  0  0  0  0  0
   -2.0447   -0.2044   -0.7647 C   0  0  0  0  0  0
   -5.6356    1.4787   -0.1327 S   0  0  0  0  0  0
   -6.1978    0.1960   -0.3738 O   0  0  0  0  0  0
   -5.8479    2.1794    1.0851 O   0  0  0  0  0  0
   -5.8163    2.5687   -1.5714 C   0  0  0  0  0  0
    4.8519   -1.6551    0.1590 H   0  0  0  0  0  0
    7.2884   -1.3233    0.1458 H   0  0  0  0  0  0
    8.2257    0.9455   -0.0127 H   0  0  0  0  0  0
    6.7345    2.8958   -0.1591 H   0  0  0  0  0  0
    1.5199   -3.2217   -1.1175 H   0  0  0  0  0  0
   -1.7840   -5.4529    0.4041 H   0  0  0  0  0  0
   -2.5775   -3.4703    1.6243 H   0  0  0  0  0  0
   -1.0473    2.3656    1.2183 H   0  0  0  0  0  0
   -3.4635    2.8204    1.1589 H   0  0  0  0  0  0
   -4.0638   -0.5830   -1.3435 H   0  0  0  0  0  0
   -1.6502   -1.0534   -1.3031 H   0  0  0  0  0  0
   -6.8647    2.8417   -1.6911 H   0  0  0  0  0  0
   -5.2211    3.4695   -1.4217 H   0  0  0  0  0  0
   -5.4715    2.0499   -2.4659 H   0  0  0  0  0  0
  1  2  2  0  0  0
  1  5  1  0  0  0
  1 21  1  0  0  0
  2  3  1  0  0  0
  2 13  1  0  0  0
  3  4  2  0  0  0
  4  5  1  0  0  0
  4  6  1  0  0  0
  6  7  1  0  0  0
  6 11  2  0  0  0
  7  8  2  0  0  0
  7 31  1  0  0  0
  8  9  1  0  0  0
  8 32  1  0  0  0
  9 10  2  0  0  0
  9 33  1  0  0  0
 10 11  1  0  0  0
 10 34  1  0  0  0
 11 12  1  0  0  0
 13 14  1  0  0  0
 13 18  2  0  0  0
 14 15  2  0  0  0
 14 35  1  0  0  0
 15 16  1  0  0  0
 15 20  1  0  0  0
 16 17  2  0  0  0
 16 36  1  0  0  0
 17 18  1  0  0  0
 17 37  1  0  0  0
 18 19  1  0  0  0
 21 22  1  0  0  0
 21 26  2  0  0  0
 22 23  2  0  0  0
 22 38  1  0  0  0
 23 24  1  0  0  0
 23 39  1  0  0  0
 24 25  2  0  0  0
 24 27  1  0  0  0
 25 26  1  0  0  0
 25 40  1  0  0  0
 26 41  1  0  0  0
 27 28  2  0  0  0
 27 29  2  0  0  0
 27 30  1  0  0  0
 30 42  1  0  0  0
 30 43  1  0  0  0
 30 44  1  0  0  0
M  END
>  <Activity>
4

>  <set>
3

>  <Min_dist>
0.041667

>  <Avg_dist>
0.574137

$$$$
13-4
  Cerius2 12110214523D 1   1.00000                          
 
 35 37  0  0  0  0  0  0  0  0999 V2000
   -3.2367   -2.6873    0.1307 C   0  0  0  0  0  0
   -3.7836   -1.9160   -0.8818 C   0  0  0  0  0  0
   -3.5377   -0.5589   -0.9276 C   0  0  0  0  0  0
   -2.7383    0.0355    0.0468 C   0  0  0  0  0  0
   -2.1906   -0.7441    1.0636 C   0  0  0  0  0  0
   -2.4413   -2.1005    1.1014 C   0  0  0  0  0  0
   -2.4707    1.4943    0.0014 C   0  0  0  0  0  0
   -1.1952    2.1120   -0.0304 C   0  0  0  0  0  0
   -1.3790    3.4136   -0.0668 N   0  0  0  0  0  0
   -2.7560    3.6663   -0.0596 N   0  0  0  0  0  0
   -3.1721    4.5423   -0.0814 H   0  0  0  0  0  0
   -3.4061    2.4847   -0.0233 C   0  0  0  0  0  0
    0.1136    1.4145   -0.0233 C   0  0  0  0  0  0
    0.2978    0.2650   -0.7896 C   0  0  0  0  0  0
    1.5180   -0.3797   -0.7795 C   0  0  0  0  0  0
    2.5570    0.1127   -0.0105 C   0  0  0  0  0  0
    2.3799    1.2532    0.7520 C   0  0  0  0  0  0
    1.1658    1.9093    0.7452 C   0  0  0  0  0  0
    4.1118   -0.7163   -0.0016 S   0  0  0  0  0  0
    4.6509   -0.3613    1.2643 O   0  0  0  0  0  0
    3.7572   -2.0543   -0.3230 O   0  0  0  0  0  0
    5.0129    0.0809   -1.3593 C   0  0  0  0  0  0
   -3.4842   -4.0147    0.1747 F   0  0  0  0  0  0
   -4.4030   -2.3775   -1.6365 H   0  0  0  0  0  0
   -3.9639    0.0416   -1.7176 H   0  0  0  0  0  0
   -1.5701   -0.2875    1.8206 H   0  0  0  0  0  0
   -2.0172   -2.7055    1.8892 H   0  0  0  0  0  0
   -4.4773    2.3483   -0.0093 H   0  0  0  0  0  0
   -0.5130   -0.1208   -1.3898 H   0  0  0  0  0  0
    1.6618   -1.2706   -1.3729 H   0  0  0  0  0  0
    3.1946    1.6332    1.3505 H   0  0  0  0  0  0
    1.0287    2.7999    1.3406 H   0  0  0  0  0  0
    6.0052   -0.3617   -1.4460 H   0  0  0  0  0  0
    4.4676   -0.0642   -2.2919 H   0  0  0  0  0  0
    5.1072    1.1475   -1.1558 H   0  0  0  0  0  0
  1  2  1  0  0  0
  1  6  2  0  0  0
  1 23  1  0  0  0
  2  3  2  0  0  0
  2 24  1  0  0  0
  3  4  1  0  0  0
  3 25  1  0  0  0
  4  5  2  0  0  0
  4  7  1  0  0  0
  5  6  1  0  0  0
  5 26  1  0  0  0
  6 27  1  0  0  0
  7  8  1  0  0  0
  7 12  2  0  0  0
  8  9  2  0  0  0
  8 13  1  0  0  0
  9 10  1  0  0  0
 10 11  1  0  0  0
 10 12  1  0  0  0
 12 28  1  0  0  0
 13 14  1  0  0  0
 13 18  2  0  0  0
 14 15  2  0  0  0
 14 29  1  0  0  0
 15 16  1  0  0  0
 15 30  1  0  0  0
 16 17  2  0  0  0
 16 19  1  0  0  0
 17 18  1  0  0  0
 17 31  1  0  0  0
 18 32  1  0  0  0
 19 20  2  0  0  0
 19 21  2  0  0  0
 19 22  1  0  0  0
 22 33  1  0  0  0
 22 34  1  0  0  0
 22 35  1  0  0  0
M  END
>  <Activity>
4

>  <set>
3

>  <Min_dist>
0.309859

>  <Avg_dist>
0.559648

$$$$
13-5
  Cerius2 12110214523D 1   1.00000                          
 
 38 40  0  0  0  0  0  0  0  0999 V2000
    1.6157   -3.4923    0.1308 C   0  0  0  0  0  0
    2.2352   -2.8515   -0.9297 C   0  0  0  0  0  0
    2.2738   -1.4729   -0.9781 C   0  0  0  0  0  0
    1.6880   -0.7254    0.0417 C   0  0  0  0  0  0
    1.0655   -1.3742    1.1062 C   0  0  0  0  0  0
    1.0321   -2.7531    1.1468 C   0  0  0  0  0  0
    1.7273    0.7571   -0.0057 C   0  0  0  0  0  0
    0.6069    1.6249   -0.0354 C   0  0  0  0  0  0
    1.0556    2.8605   -0.0737 N   0  0  0  0  0  0
    2.4550    2.8233   -0.0699 N   0  0  0  0  0  0
    3.0431    3.5944   -0.0928 H   0  0  0  0  0  0
    2.8471    1.5333   -0.0228 C   0  0  0  0  0  0
    4.2704    1.0385   -0.0024 C   0  0  0  0  0  0
    5.1443    2.1303   -0.0408 F   0  0  0  0  0  0
    4.4922    0.3044    1.1677 F   0  0  0  0  0  0
    4.4959    0.2213   -1.1154 F   0  0  0  0  0  0
   -0.8177    1.2128   -0.0254 C   0  0  0  0  0  0
   -1.7490    1.9328    0.7208 C   0  0  0  0  0  0
   -3.0735    1.5450    0.7259 C   0  0  0  0  0  0
   -3.4773    0.4437   -0.0073 C   0  0  0  0  0  0
   -2.5574   -0.2746   -0.7497 C   0  0  0  0  0  0
   -1.2313    0.1074   -0.7668 C   0  0  0  0  0  0
   -5.1697   -0.0463    0.0050 S   0  0  0  0  0  0
   -5.0970   -1.4373   -0.2759 O   0  0  0  0  0  0
   -5.6320    0.4487    1.2542 O   0  0  0  0  0  0
   -5.8782    0.8800   -1.3845 C   0  0  0  0  0  0
    1.5757   -4.8421    0.1716 F   0  0  0  0  0  0
    2.6890   -3.4316   -1.7196 H   0  0  0  0  0  0
    2.7575   -0.9741   -1.8048 H   0  0  0  0  0  0
    0.6106   -0.7987    1.8988 H   0  0  0  0  0  0
    0.5499   -3.2568    1.9715 H   0  0  0  0  0  0
   -1.4347    2.7924    1.2941 H   0  0  0  0  0  0
   -3.7960    2.1022    1.3038 H   0  0  0  0  0  0
   -2.8782   -1.1336   -1.3203 H   0  0  0  0  0  0
   -0.5140   -0.4539   -1.3471 H   0  0  0  0  0  0
   -6.9400    0.6493   -1.4713 H   0  0  0  0  0  0
   -5.7516    1.9487   -1.2110 H   0  0  0  0  0  0
   -5.3687    0.5987   -2.3061 H   0  0  0  0  0  0
  1  2  1  0  0  0
  1  6  2  0  0  0
  1 27  1  0  0  0
  2  3  2  0  0  0
  2 28  1  0  0  0
  3  4  1  0  0  0
  3 29  1  0  0  0
  4  5  2  0  0  0
  4  7  1  0  0  0
  5  6  1  0  0  0
  5 30  1  0  0  0
  6 31  1  0  0  0
  7  8  1  0  0  0
  7 12  2  0  0  0
  8  9  2  0  0  0
  8 17  1  0  0  0
  9 10  1  0  0  0
 10 11  1  0  0  0
 10 12  1  0  0  0
 12 13  1  0  0  0
 13 14  1  0  0  0
 13 15  1  0  0  0
 13 16  1  0  0  0
 17 18  1  0  0  0
 17 22  2  0  0  0
 18 19  2  0  0  0
 18 32  1  0  0  0
 19 20  1  0  0  0
 19 33  1  0  0  0
 20 21  2  0  0  0
 20 23  1  0  0  0
 21 22  1  0  0  0
 21 34  1  0  0  0
 22 35  1  0  0  0
 23 24  2  0  0  0
 23 25  2  0  0  0
 23 26  1  0  0  0
 26 36  1  0  0  0
 26 37  1  0  0  0
 26 38  1  0  0  0
M  END
>  <Activity>
4

>  <set>
3

>  <Min_dist>
0.157143

>  <Avg_dist>
0.517805

$$$$
13-6A
  Cerius2 12110214523D 1   1.00000                          
 
 42 44  0  0  0  0  0  0  0  0999 V2000
   -1.0094   -4.3216    0.2466 C   0  0  0  0  0  0
   -1.8164   -3.9502   -0.8164 C   0  0  0  0  0  0
   -2.2307   -2.6403   -0.9459 C   0  0  0  0  0  0
   -1.8366   -1.6908   -0.0053 C   0  0  0  0  0  0
   -1.0253   -2.0690    1.0626 C   0  0  0  0  0  0
   -0.6152   -3.3810    1.1841 C   0  0  0  0  0  0
   -2.2793   -0.2810   -0.1406 C   0  0  0  0  0  0
   -1.4393    0.8591   -0.2021 C   0  0  0  0  0  0
   -2.2079    1.9195   -0.3218 N   0  0  0  0  0  0
   -3.5429    1.4983   -0.3405 N   0  0  0  0  0  0
   -3.5672    0.1537   -0.2345 C   0  0  0  0  0  0
   -4.7145    2.3697   -0.4600 C   0  0  0  0  0  0
   -4.7396    3.3387    0.6939 C   0  0  0  0  0  0
   -4.6991    4.6283    0.4673 C   0  0  0  0  0  0
    0.0426    0.8567   -0.1415 C   0  0  0  0  0  0
    0.7693   -0.1113   -0.8324 C   0  0  0  0  0  0
    2.1481   -0.1085   -0.7729 C   0  0  0  0  0  0
    2.8089    0.8524   -0.0290 C   0  0  0  0  0  0
    2.0928    1.8156    0.6587 C   0  0  0  0  0  0
    0.7139    1.8259    0.6018 C   0  0  0  0  0  0
    4.5694    0.8492    0.0433 S   0  0  0  0  0  0
    4.8347    1.4810    1.2882 O   0  0  0  0  0  0
    4.8920   -0.5139   -0.1956 O   0  0  0  0  0  0
    5.0424    1.9031   -1.3553 C   0  0  0  0  0  0
   -0.6103   -5.6062    0.3724 F   0  0  0  0  0  0
   -2.1213   -4.6867   -1.5450 H   0  0  0  0  0  0
   -2.8592   -2.3514   -1.7754 H   0  0  0  0  0  0
   -0.7173   -1.3362    1.7938 H   0  0  0  0  0  0
    0.0136   -3.6750    2.0115 H   0  0  0  0  0  0
   -4.4508   -0.4673   -0.2197 H   0  0  0  0  0  0
   -4.6619    2.9228   -1.3978 H   0  0  0  0  0  0
   -5.6207    1.7641   -0.4457 H   0  0  0  0  0  0
   -4.7910    2.9699    1.7077 H   0  0  0  0  0  0
   -4.7172    5.3227    1.2943 H   0  0  0  0  0  0
   -4.6478    4.9971   -0.5465 H   0  0  0  0  0  0
    0.2543   -0.8625   -1.4130 H   0  0  0  0  0  0
    2.7122   -0.8581   -1.3079 H   0  0  0  0  0  0
    2.6139    2.5634    1.2380 H   0  0  0  0  0  0
    0.1558    2.5785    1.1388 H   0  0  0  0  0  0
    6.1289    1.9725   -1.4067 H   0  0  0  0  0  0
    4.6617    1.4710   -2.2808 H   0  0  0  0  0  0
    4.6207    2.8989   -1.2188 H   0  0  0  0  0  0
  1  2  1  0  0  0
  1  6  2  0  0  0
  1 25  1  0  0  0
  2  3  2  0  0  0
  2 26  1  0  0  0
  3  4  1  0  0  0
  3 27  1  0  0  0
  4  5  2  0  0  0
  4  7  1  0  0  0
  5  6  1  0  0  0
  5 28  1  0  0  0
  6 29  1  0  0  0
  7  8  1  0  0  0
  7 11  2  0  0  0
  8  9  2  0  0  0
  8 15  1  0  0  0
  9 10  1  0  0  0
 10 11  1  0  0  0
 10 12  1  0  0  0
 11 30  1  0  0  0
 12 13  1  0  0  0
 12 31  1  0  0  0
 12 32  1  0  0  0
 13 14  2  0  0  0
 13 33  1  0  0  0
 14 34  1  0  0  0
 14 35  1  0  0  0
 15 16  1  0  0  0
 15 20  2  0  0  0
 16 17  2  0  0  0
 16 36  1  0  0  0
 17 18  1  0  0  0
 17 37  1  0  0  0
 18 19  2  0  0  0
 18 21  1  0  0  0
 19 20  1  0  0  0
 19 38  1  0  0  0
 20 39  1  0  0  0
 21 22  2  0  0  0
 21 23  2  0  0  0
 21 24  1  0  0  0
 24 40  1  0  0  0
 24 41  1  0  0  0
 24 42  1  0  0  0
M  END
>  <Activity>
4

>  <set>
3

>  <Min_dist>
0.220779

>  <Avg_dist>
0.562261

$$$$
7-39
  Cerius2 12110214523D 1   1.00000                          
 
 36 38  0  0  0  0  0  0  0  0999 V2000
    2.6921    0.8516    0.0086 C   0  0  0  0  0  0
    1.6458    1.7898   -0.0304 C   0  0  0  0  0  0
    1.9278    3.0870   -0.0708 N   0  0  0  0  0  0
    3.1857    3.4896   -0.0741 C   0  0  0  0  0  0
    4.2164    2.5656   -0.0362 C   0  0  0  0  0  0
    3.9521    1.2721    0.0047 N   0  0  0  0  0  0
    0.2359    1.3337   -0.0270 C   0  0  0  0  0  0
   -0.7216    2.0253    0.7139 C   0  0  0  0  0  0
   -2.0330    1.5958    0.7132 C   0  0  0  0  0  0
   -2.3984    0.4815   -0.0206 C   0  0  0  0  0  0
   -1.4528   -0.2090   -0.7573 C   0  0  0  0  0  0
   -0.1395    0.2146   -0.7693 C   0  0  0  0  0  0
   -4.0749   -0.0608   -0.0165 S   0  0  0  0  0  0
   -3.9575   -1.4493   -0.2950 O   0  0  0  0  0  0
   -4.5589    0.4212    1.2295 O   0  0  0  0  0  0
   -4.8044    0.8413   -1.4110 C   0  0  0  0  0  0
    2.3909   -0.5981    0.0599 C   0  0  0  0  0  0
    3.1609   -1.4989   -0.6753 C   0  0  0  0  0  0
    2.8769   -2.8477   -0.6239 C   0  0  0  0  0  0
    1.8285   -3.3081    0.1566 C   0  0  0  0  0  0
    1.0603   -2.4168    0.8886 C   0  0  0  0  0  0
    1.3402   -1.0667    0.8481 C   0  0  0  0  0  0
    1.5542   -4.6302    0.2038 F   0  0  0  0  0  0
    3.4117    4.5452   -0.1070 H   0  0  0  0  0  0
    5.2419    2.9044   -0.0396 H   0  0  0  0  0  0
   -0.4375    2.8952    1.2874 H   0  0  0  0  0  0
   -2.7755    2.1305    1.2870 H   0  0  0  0  0  0
   -1.7438   -1.0787   -1.3277 H   0  0  0  0  0  0
    0.5979   -0.3250   -1.3451 H   0  0  0  0  0  0
   -5.8580    0.5775   -1.5031 H   0  0  0  0  0  0
   -4.7120    1.9135   -1.2384 H   0  0  0  0  0  0
   -4.2816    0.5747   -2.3296 H   0  0  0  0  0  0
    3.9779   -1.1410   -1.2842 H   0  0  0  0  0  0
    3.4724   -3.5461   -1.1932 H   0  0  0  0  0  0
    0.2438   -2.7802    1.4949 H   0  0  0  0  0  0
    0.7412   -0.3728    1.4191 H   0  0  0  0  0  0
  1  2  1  0  0  0
  1  6  2  0  0  0
  1 17  1  0  0  0
  2  3  2  0  0  0
  2  7  1  0  0  0
  3  4  1  0  0  0
  4  5  2  0  0  0
  4 24  1  0  0  0
  5  6  1  0  0  0
  5 25  1  0  0  0
  7  8  1  0  0  0
  7 12  2  0  0  0
  8  9  2  0  0  0
  8 26  1  0  0  0
  9 10  1  0  0  0
  9 27  1  0  0  0
 10 11  2  0  0  0
 10 13  1  0  0  0
 11 12  1  0  0  0
 11 28  1  0  0  0
 12 29  1  0  0  0
 13 14  2  0  0  0
 13 15  2  0  0  0
 13 16  1  0  0  0
 16 30  1  0  0  0
 16 31  1  0  0  0
 16 32  1  0  0  0
 17 18  1  0  0  0
 17 22  2  0  0  0
 18 19  2  0  0  0
 18 33  1  0  0  0
 19 20  1  0  0  0
 19 34  1  0  0  0
 20 21  2  0  0  0
 20 23  1  0  0  0
 21 22  1  0  0  0
 21 35  1  0  0  0
 22 36  1  0  0  0
M  END
>  <Activity>
4

>  <set>
3

>  <Min_dist>
0.34375

>  <Avg_dist>
0.540501

$$$$
