7-4
  Cerius2 12110214553D 1   1.00000                          
 
 39 42  0  0  0  0  0  0  0  0999 V2000
   -5.6680   -0.2159   -0.7532 N   0  0  0  0  0  0
   -5.5268   -1.5041   -0.4674 C   0  0  0  0  0  0
   -4.4071   -2.0019    0.0303 N   0  0  0  0  0  0
   -3.3597   -1.2178    0.2685 C   0  0  0  0  0  0
   -3.4673    0.1556   -0.0209 C   0  0  0  0  0  0
   -4.6735    0.6413   -0.5480 C   0  0  0  0  0  0
   -4.8239    1.9828   -0.8484 N   0  0  0  0  0  0
   -2.1804    0.7261    0.3444 C   0  0  0  0  0  0
   -1.4213   -0.2881    0.8027 C   0  0  0  0  0  0
   -2.1239   -1.4305    0.7572 O   0  0  0  0  0  0
    0.0001   -0.0897    1.2734 C   0  0  0  0  0  0
    0.5095    1.1750    0.7241 N   0  0  0  0  0  0
   -0.4164    2.2448    1.1145 C   0  0  0  0  0  0
   -1.6967    2.1506    0.2702 C   0  0  0  0  0  0
    1.7821    1.4487    1.4049 C   0  0  0  0  0  0
    2.8549    0.5507    0.8448 C   0  0  0  0  0  0
    3.3055   -0.5296    1.5804 C   0  0  0  0  0  0
    4.2889   -1.3538    1.0672 C   0  0  0  0  0  0
    4.8231   -1.0983   -0.1835 C   0  0  0  0  0  0
    4.3727   -0.0177   -0.9200 C   0  0  0  0  0  0
    3.3844    0.8041   -0.4079 C   0  0  0  0  0  0
    2.8184    2.1606   -1.3315 Cl  0  0  0  0  0  0
    6.0588   -2.1335   -0.8278 Cl  0  0  0  0  0  0
   -6.5915   -2.3587   -0.6984 N   0  0  0  0  0  0
   -5.6624    2.3073   -1.2125 H   0  0  0  0  0  0
   -4.0908    2.5993   -0.6951 H   0  0  0  0  0  0
    0.0221   -0.0500    2.3624 H   0  0  0  0  0  0
    0.6194   -0.9156    0.9235 H   0  0  0  0  0  0
   -0.6688    2.1394    2.1697 H   0  0  0  0  0  0
    0.0569    3.2127    0.9496 H   0  0  0  0  0  0
   -1.4784    2.4144   -0.7646 H   0  0  0  0  0  0
   -2.4560    2.8213    0.6723 H   0  0  0  0  0  0
    2.0616    2.4905    1.2476 H   0  0  0  0  0  0
    1.6710    1.2597    2.4726 H   0  0  0  0  0  0
    2.8891   -0.7292    2.5567 H   0  0  0  0  0  0
    4.6408   -2.1974    1.6425 H   0  0  0  0  0  0
    4.7896    0.1824   -1.8959 H   0  0  0  0  0  0
   -7.4211   -2.0125   -1.0627 H   0  0  0  0  0  0
   -6.5077   -3.3036   -0.4959 H   0  0  0  0  0  0
  1  2  1  0  0  0
  1  6  2  0  0  0
  2  3  2  0  0  0
  2 24  1  0  0  0
  3  4  1  0  0  0
  4  5  2  0  0  0
  4 10  1  0  0  0
  5  6  1  0  0  0
  5  8  1  0  0  0
  6  7  1  0  0  0
  7 25  1  0  0  0
  7 26  1  0  0  0
  8  9  2  0  0  0
  8 14  1  0  0  0
  9 10  1  0  0  0
  9 11  1  0  0  0
 11 12  1  0  0  0
 11 27  1  0  0  0
 11 28  1  0  0  0
 12 13  1  0  0  0
 12 15  1  0  0  0
 13 14  1  0  0  0
 13 29  1  0  0  0
 13 30  1  0  0  0
 14 31  1  0  0  0
 14 32  1  0  0  0
 15 16  1  0  0  0
 15 33  1  0  0  0
 15 34  1  0  0  0
 16 17  1  0  0  0
 16 21  2  0  0  0
 17 18  2  0  0  0
 17 35  1  0  0  0
 18 19  1  0  0  0
 18 36  1  0  0  0
 19 20  2  0  0  0
 19 23  1  0  0  0
 20 21  1  0  0  0
 20 37  1  0  0  0
 21 22  1  0  0  0
 24 38  1  0  0  0
 24 39  1  0  0  0
M  END
>  <ACTIVITY>
4.29328

>  <set_rl>
1

>  <Min_dist>
999.9

>  <Avg_dist>
999.9

>  <PC_uM>
22.6

>  <TG_uM>
13.1

>  <RL_uM>
50.9

$$$$
7-5
  Cerius2 12110214553D 1   1.00000                          
 
 39 42  0  0  0  0  0  0  0  0999 V2000
   -5.8285   -0.5278   -0.5546 N   0  0  0  0  0  0
   -5.4474   -1.7782   -0.3261 C   0  0  0  0  0  0
   -4.2108   -2.0904    0.0237 N   0  0  0  0  0  0
   -3.2835   -1.1473    0.1629 C   0  0  0  0  0  0
   -3.6459    0.1927   -0.0704 C   0  0  0  0  0  0
   -4.9689    0.4791   -0.4398 C   0  0  0  0  0  0
   -5.3694    1.7808   -0.6802 N   0  0  0  0  0  0
   -2.4344    0.9632    0.1609 C   0  0  0  0  0  0
   -1.4718    0.0828    0.4976 C   0  0  0  0  0  0
   -1.9804   -1.1591    0.4990 O   0  0  0  0  0  0
   -0.0557    0.5072    0.8068 C   0  0  0  0  0  0
    0.1731    1.8443    0.2408 N   0  0  0  0  0  0
   -0.8609    2.7429    0.7678 C   0  0  0  0  0  0
   -2.2002    2.4486    0.0744 C   0  0  0  0  0  0
    1.4563    2.3163    0.7781 C   0  0  0  0  0  0
    2.5717    1.4549    0.2443 C   0  0  0  0  0  0
    3.2041    1.7970   -0.9367 C   0  0  0  0  0  0
    4.2271    1.0079   -1.4274 C   0  0  0  0  0  0
    4.6191   -0.1249   -0.7368 C   0  0  0  0  0  0
    3.9859   -0.4674    0.4458 C   0  0  0  0  0  0
    2.9657    0.3267    0.9384 C   0  0  0  0  0  0
    4.4765   -1.8887    1.3136 Cl  0  0  0  0  0  0
    5.9037   -1.1168   -1.3529 Cl  0  0  0  0  0  0
   -6.3793   -2.7938   -0.4583 N   0  0  0  0  0  0
   -6.2866    1.9669   -0.9350 H   0  0  0  0  0  0
   -4.7330    2.5078   -0.5939 H   0  0  0  0  0  0
    0.0889    0.5380    1.8867 H   0  0  0  0  0  0
    0.6432   -0.2018    0.3629 H   0  0  0  0  0  0
   -0.9657    2.5859    1.8413 H   0  0  0  0  0  0
   -0.5738    3.7773    0.5786 H   0  0  0  0  0  0
   -2.1522    2.7560   -0.9702 H   0  0  0  0  0  0
   -3.0049    2.9808    0.5816 H   0  0  0  0  0  0
    1.6188    3.3505    0.4748 H   0  0  0  0  0  0
    1.4390    2.2552    1.8663 H   0  0  0  0  0  0
    2.8981    2.6811   -1.4763 H   0  0  0  0  0  0
    4.7204    1.2755   -2.3501 H   0  0  0  0  0  0
    2.4716    0.0603    1.8611 H   0  0  0  0  0  0
   -7.2915   -2.5848   -0.7138 H   0  0  0  0  0  0
   -6.1200   -3.7142   -0.2956 H   0  0  0  0  0  0
  1  2  1  0  0  0
  1  6  2  0  0  0
  2  3  2  0  0  0
  2 24  1  0  0  0
  3  4  1  0  0  0
  4  5  2  0  0  0
  4 10  1  0  0  0
  5  6  1  0  0  0
  5  8  1  0  0  0
  6  7  1  0  0  0
  7 25  1  0  0  0
  7 26  1  0  0  0
  8  9  2  0  0  0
  8 14  1  0  0  0
  9 10  1  0  0  0
  9 11  1  0  0  0
 11 12  1  0  0  0
 11 27  1  0  0  0
 11 28  1  0  0  0
 12 13  1  0  0  0
 12 15  1  0  0  0
 13 14  1  0  0  0
 13 29  1  0  0  0
 13 30  1  0  0  0
 14 31  1  0  0  0
 14 32  1  0  0  0
 15 16  1  0  0  0
 15 33  1  0  0  0
 15 34  1  0  0  0
 16 17  1  0  0  0
 16 21  2  0  0  0
 17 18  2  0  0  0
 17 35  1  0  0  0
 18 19  1  0  0  0
 18 36  1  0  0  0
 19 20  2  0  0  0
 19 23  1  0  0  0
 20 21  1  0  0  0
 20 22  1  0  0  0
 21 37  1  0  0  0
 24 38  1  0  0  0
 24 39  1  0  0  0
M  END
>  <ACTIVITY>
4.68613

>  <set_rl>
1

>  <Min_dist>
999.9

>  <Avg_dist>
999.9

>  <PC_uM>
24.1

>  <TG_uM>
22.3

>  <RL_uM>
20.6

$$$$
1-98535
  Cerius2 12110214553D 1   1.00000                          
 
 47 49  0  0  0  0  0  0  0  0999 V2000
    5.6332   -0.2512    0.3990 C   0  0  0  0  0  0
    6.5261   -1.3829    0.6556 C   0  0  0  0  0  0
    7.8228   -1.2045    0.4459 N   0  0  0  0  0  0
    8.2987   -0.0393    0.0174 C   0  0  0  0  0  0
    7.5398    1.0098   -0.2287 N   0  0  0  0  0  0
    6.2128    0.9590   -0.0563 C   0  0  0  0  0  0
    5.4279    2.0112   -0.3003 N   0  0  0  0  0  0
    4.1289    1.9091   -0.1147 C   0  0  0  0  0  0
    3.5635    0.7158    0.3335 C   0  0  0  0  0  0
    4.3196   -0.3317    0.5851 N   0  0  0  0  0  0
    2.0731    0.6266    0.5375 C   0  0  0  0  0  0
    1.4361    0.1796   -0.7037 N   0  0  0  0  0  0
    0.0558    0.0218   -0.7591 C   0  0  0  0  0  0
   -0.5480   -0.4031   -1.9394 C   0  0  0  0  0  0
   -1.9139   -0.5602   -1.9974 C   0  0  0  0  0  0
   -2.6953   -0.2928   -0.8695 C   0  0  0  0  0  0
   -2.0860    0.1337    0.3143 C   0  0  0  0  0  0
   -0.7191    0.2834    0.3676 C   0  0  0  0  0  0
   -4.1598   -0.4598   -0.9283 C   0  0  0  0  0  0
   -4.6885   -0.8304   -1.9587 O   0  0  0  0  0  0
   -4.9118   -0.2016    0.1599 N   0  0  0  0  0  0
   -6.3662   -0.3674    0.1014 C   0  0  0  0  0  0
   -6.7275   -1.7759    0.4970 C   0  0  0  0  0  0
   -6.0256   -2.3870    1.2853 O   0  0  0  0  0  0
   -7.7218   -2.3048    0.0289 O   0  5  0  0  0  0
   -7.0311    0.6190    1.0636 C   0  0  0  0  0  0
   -6.6698    2.0276    0.6680 C   0  0  0  0  0  0
   -7.1000    2.9708    1.3105 O   0  0  0  0  0  0
   -5.9472    2.2243   -0.2947 O   0  5  0  0  0  0
    9.6613    0.0782   -0.1801 N   0  0  0  0  0  0
    6.0357   -2.5911    1.1001 N   0  0  0  0  0  0
    3.4933    2.7598   -0.3115 H   0  0  0  0  0  0
    1.8574   -0.0860    1.3337 H   0  0  0  0  0  0
    1.6847    1.6072    0.8126 H   0  0  0  0  0  0
    1.9773   -0.0062   -1.4869 H   0  0  0  0  0  0
    0.0561   -0.6092   -2.8106 H   0  0  0  0  0  0
   -2.3817   -0.8895   -2.9134 H   0  0  0  0  0  0
   -2.6870    0.3414    1.1872 H   0  0  0  0  0  0
   -0.2477    0.6125    1.2818 H   0  0  0  0  0  0
   -4.4900    0.0941    0.9819 H   0  0  0  0  0  0
   -6.7133   -0.1747   -0.9137 H   0  0  0  0  0  0
   -8.1132    0.4957    1.0201 H   0  0  0  0  0  0
   -6.6840    0.4264    2.0787 H   0  0  0  0  0  0
   10.2435   -0.6780   -0.0065 H   0  0  0  0  0  0
   10.0356    0.9168   -0.4923 H   0  0  0  0  0  0
    6.6424   -3.3298    1.2648 H   0  0  0  0  0  0
    5.0837   -2.7032    1.2484 H   0  0  0  0  0  0
  1  2  1  0  0  0
  1  6  2  0  0  0
  1 10  1  0  0  0
  2  3  2  0  0  0
  2 31  1  0  0  0
  3  4  1  0  0  0
  4  5  2  0  0  0
  4 30  1  0  0  0
  5  6  1  0  0  0
  6  7  1  0  0  0
  7  8  2  0  0  0
  8  9  1  0  0  0
  8 32  1  0  0  0
  9 10  2  0  0  0
  9 11  1  0  0  0
 11 12  1  0  0  0
 11 33  1  0  0  0
 11 34  1  0  0  0
 12 13  1  0  0  0
 12 35  1  0  0  0
 13 14  1  0  0  0
 13 18  2  0  0  0
 14 15  2  0  0  0
 14 36  1  0  0  0
 15 16  1  0  0  0
 15 37  1  0  0  0
 16 17  2  0  0  0
 16 19  1  0  0  0
 17 18  1  0  0  0
 17 38  1  0  0  0
 18 39  1  0  0  0
 19 20  2  0  0  0
 19 21  1  0  0  0
 21 22  1  0  0  0
 21 40  1  0  0  0
 22 23  1  0  0  0
 22 26  1  0  0  0
 22 41  1  0  0  0
 23 24  2  0  0  0
 23 25  1  0  0  0
 26 27  1  0  0  0
 26 42  1  0  0  0
 26 43  1  0  0  0
 27 28  2  0  0  0
 27 29  1  0  0  0
 30 44  1  0  0  0
 30 45  1  0  0  0
 31 46  1  0  0  0
 31 47  1  0  0  0
M  CHG  2  25  -1  29  -1
M  END
>  <ACTIVITY>
7.76955

>  <set_rl>
1

>  <Min_dist>
999.9

>  <Avg_dist>
999.9

>  <PC_uM>
0.028

>  <TG_uM>
N/A

>  <RL_uM>
0.017

$$$$
1-107146
  Cerius2 12110214553D 1   1.00000                          
 
 53 55  0  0  0  0  0  0  0  0999 V2000
    5.7134   -0.6608    0.1351 C   0  0  0  0  0  0
    6.3833   -1.9008   -0.2620 C   0  0  0  0  0  0
    7.7008   -1.8707   -0.4052 N   0  0  0  0  0  0
    8.3924   -0.7546   -0.1962 C   0  0  0  0  0  0
    7.8396    0.3869    0.1620 N   0  0  0  0  0  0
    6.5163    0.4886    0.3400 C   0  0  0  0  0  0
    5.9383    1.6364    0.7027 N   0  0  0  0  0  0
    4.6330    1.6833    0.8644 C   0  0  0  0  0  0
    3.8475    0.5491    0.6616 C   0  0  0  0  0  0
    4.3974   -0.5935    0.3091 N   0  0  0  0  0  0
    2.3550    0.6309    0.8539 C   0  0  0  0  0  0
    1.7172    1.0017   -0.4164 N   0  0  0  0  0  0
    0.3478    1.0605   -0.1743 C   0  0  0  0  0  0
   -0.1524    1.9484    0.7731 C   0  0  0  0  0  0
   -1.5061    2.0092    1.0152 C   0  0  0  0  0  0
   -2.3798    1.1780    0.3086 C   0  0  0  0  0  0
   -1.8759    0.2863   -0.6430 C   0  0  0  0  0  0
   -0.5204    0.2337   -0.8853 C   0  0  0  0  0  0
   -0.0316   -0.6273   -1.8044 F   0  0  0  0  0  0
   -3.8309    1.2411    0.5667 C   0  0  0  0  0  0
   -4.2679    2.0168    1.3949 O   0  0  0  0  0  0
   -4.6722    0.4390   -0.1154 N   0  0  0  0  0  0
   -6.1132    0.5017    0.1410 C   0  0  0  0  0  0
   -6.7427    1.5192   -0.7753 C   0  0  0  0  0  0
   -6.2589    1.7317   -1.8746 O   0  0  0  0  0  0
   -7.7359    2.1301   -0.4177 O   0  5  0  0  0  0
   -6.7372   -0.8714   -0.1162 C   0  0  0  0  0  0
   -6.0982   -1.9043    0.8141 C   0  0  0  0  0  0
   -6.7128   -3.2568    0.5608 C   0  0  0  0  0  0
   -6.3413   -4.2253    1.2022 O   0  0  0  0  0  0
   -7.5817   -3.3828   -0.2858 O   0  5  0  0  0  0
    2.1509    2.3714   -0.7225 C   0  0  0  0  0  0
    9.7636   -0.7936   -0.3629 N   0  0  0  0  0  0
    5.6691   -3.0588   -0.4788 N   0  0  0  0  0  0
    4.1647    2.6111    1.1581 H   0  0  0  0  0  0
    1.9772   -0.3378    1.1810 H   0  0  0  0  0  0
    2.1266    1.3836    1.6084 H   0  0  0  0  0  0
    0.5225    2.5905    1.3195 H   0  0  0  0  0  0
   -1.8928    2.6987    1.7510 H   0  0  0  0  0  0
   -2.5484   -0.3576   -1.1904 H   0  0  0  0  0  0
   -4.3236   -0.1798   -0.7760 H   0  0  0  0  0  0
   -6.2856    0.7907    1.1778 H   0  0  0  0  0  0
   -7.8094   -0.8247    0.0745 H   0  0  0  0  0  0
   -6.5649   -1.1603   -1.1530 H   0  0  0  0  0  0
   -5.0260   -1.9510    0.6234 H   0  0  0  0  0  0
   -6.2705   -1.6154    1.8509 H   0  0  0  0  0  0
    1.7014    2.6936   -1.6618 H   0  0  0  0  0  0
    1.8363    3.0398    0.0790 H   0  0  0  0  0  0
    3.2370    2.3973   -0.8118 H   0  0  0  0  0  0
   10.1968   -1.6207   -0.6259 H   0  0  0  0  0  0
   10.2929    0.0061   -0.2170 H   0  0  0  0  0  0
    6.1300   -3.8708   -0.7414 H   0  0  0  0  0  0
    4.7054   -3.0620   -0.3688 H   0  0  0  0  0  0
  1  2  1  0  0  0
  1  6  2  0  0  0
  1 10  1  0  0  0
  2  3  2  0  0  0
  2 34  1  0  0  0
  3  4  1  0  0  0
  4  5  2  0  0  0
  4 33  1  0  0  0
  5  6  1  0  0  0
  6  7  1  0  0  0
  7  8  2  0  0  0
  8  9  1  0  0  0
  8 35  1  0  0  0
  9 10  2  0  0  0
  9 11  1  0  0  0
 11 12  1  0  0  0
 11 36  1  0  0  0
 11 37  1  0  0  0
 12 13  1  0  0  0
 12 32  1  0  0  0
 13 14  1  0  0  0
 13 18  2  0  0  0
 14 15  2  0  0  0
 14 38  1  0  0  0
 15 16  1  0  0  0
 15 39  1  0  0  0
 16 17  2  0  0  0
 16 20  1  0  0  0
 17 18  1  0  0  0
 17 40  1  0  0  0
 18 19  1  0  0  0
 20 21  2  0  0  0
 20 22  1  0  0  0
 22 23  1  0  0  0
 22 41  1  0  0  0
 23 24  1  0  0  0
 23 27  1  0  0  0
 23 42  1  0  0  0
 24 25  2  0  0  0
 24 26  1  0  0  0
 27 28  1  0  0  0
 27 43  1  0  0  0
 27 44  1  0  0  0
 28 29  1  0  0  0
 28 45  1  0  0  0
 28 46  1  0  0  0
 29 30  2  0  0  0
 29 31  1  0  0  0
 32 47  1  0  0  0
 32 48  1  0  0  0
 32 49  1  0  0  0
 33 50  1  0  0  0
 33 51  1  0  0  0
 34 52  1  0  0  0
 34 53  1  0  0  0
M  CHG  2  26  -1  31  -1
M  END
>  <ACTIVITY>
9.4437

>  <set_rl>
1

>  <Min_dist>
999.9

>  <Avg_dist>
999.9

>  <PC_uM>
0.00072

>  <TG_uM>
0.0119

>  <RL_uM>
0.00036

$$$$
1-117356
  Cerius2 12110214553D 1   1.00000                          
 
 53 55  0  0  0  0  0  0  0  0999 V2000
    4.0649   -0.7933    0.5741 C   0  0  0  0  0  0
    3.6090   -2.1843    0.5424 C   0  0  0  0  0  0
    4.4772   -3.1085    0.1560 N   0  0  0  0  0  0
    5.7195   -2.7863   -0.1911 C   0  0  0  0  0  0
    6.1803   -1.5515   -0.1805 N   0  0  0  0  0  0
    5.4025   -0.5264    0.1902 C   0  0  0  0  0  0
    5.8515    0.7309    0.2073 N   0  0  0  0  0  0
    5.0461    1.7029    0.5801 C   0  0  0  0  0  0
    3.7306    1.4349    0.9569 C   0  0  0  0  0  0
    3.2695    0.2022    0.9524 N   0  0  0  0  0  0
    2.8300    2.5669    1.3794 C   0  0  0  0  0  0
    2.1297    3.0974    0.2070 N   0  0  0  0  0  0
    0.9000    2.5672   -0.1672 C   0  0  0  0  0  0
    0.2358    3.0724   -1.2815 C   0  0  0  0  0  0
   -0.9814    2.5498   -1.6544 C   0  0  0  0  0  0
   -1.5508    1.5105   -0.9129 C   0  0  0  0  0  0
   -0.8814    1.0053    0.2056 C   0  0  0  0  0  0
    0.3382    1.5283    0.5700 C   0  0  0  0  0  0
   -2.8558    0.9483   -1.3096 C   0  0  0  0  0  0
   -3.4372    1.3889   -2.2824 O   0  0  0  0  0  0
   -3.4035   -0.0537   -0.5937 N   0  0  0  0  0  0
   -4.6994   -0.6120   -0.9876 C   0  0  0  0  0  0
   -4.4837   -1.7536   -1.9475 C   0  0  0  0  0  0
   -3.4700   -2.4279   -1.8751 O   0  0  0  0  0  0
   -5.3228   -2.0031   -2.7968 O   0  5  0  0  0  0
   -5.4339   -1.1216    0.2540 C   0  0  0  0  0  0
   -5.6529    0.0374    1.2286 C   0  0  0  0  0  0
   -6.3763   -0.4646    2.4516 C   0  0  0  0  0  0
   -6.6627    0.3405    3.3983 O   0  0  0  0  0  0
   -6.7022   -1.6943    2.5398 O   0  5  0  0  0  0
    2.7251    4.1865   -0.5711 C   0  0  0  0  0  0
    6.5730   -3.7997   -0.5835 N   0  0  0  0  0  0
    2.3224   -2.5211    0.9020 N   0  0  0  0  0  0
    5.4086    2.7202    0.5945 H   0  0  0  0  0  0
    2.1015    2.2010    2.1029 H   0  0  0  0  0  0
    3.4280    3.3568    1.8336 H   0  0  0  0  0  0
    0.6761    3.8756   -1.8537 H   0  0  0  0  0  0
   -1.4963    2.9424   -2.5187 H   0  0  0  0  0  0
   -1.3190    0.2027    0.7806 H   0  0  0  0  0  0
    0.8560    1.1383    1.4338 H   0  0  0  0  0  0
   -2.9397   -0.4052    0.1824 H   0  0  0  0  0  0
   -5.2964    0.1613   -1.4711 H   0  0  0  0  0  0
   -6.3981   -1.5370   -0.0391 H   0  0  0  0  0  0
   -4.8369   -1.8949    0.7375 H   0  0  0  0  0  0
   -4.6887    0.4528    1.5217 H   0  0  0  0  0  0
   -6.2499    0.8107    0.7451 H   0  0  0  0  0  0
    3.6811    4.4680   -0.1296 H   0  0  0  0  0  0
    2.8824    3.8558   -1.5978 H   0  0  0  0  0  0
    2.0549    5.0461   -0.5649 H   0  0  0  0  0  0
    6.2604   -4.7178   -0.6004 H   0  0  0  0  0  0
    7.4848   -3.5931   -0.8420 H   0  0  0  0  0  0
    2.0381   -3.4480    0.8747 H   0  0  0  0  0  0
    1.7009   -1.8312    1.1824 H   0  0  0  0  0  0
  1  2  1  0  0  0
  1  6  2  0  0  0
  1 10  1  0  0  0
  2  3  2  0  0  0
  2 33  1  0  0  0
  3  4  1  0  0  0
  4  5  2  0  0  0
  4 32  1  0  0  0
  5  6  1  0  0  0
  6  7  1  0  0  0
  7  8  2  0  0  0
  8  9  1  0  0  0
  8 34  1  0  0  0
  9 10  2  0  0  0
  9 11  1  0  0  0
 11 12  1  0  0  0
 11 35  1  0  0  0
 11 36  1  0  0  0
 12 13  1  0  0  0
 12 31  1  0  0  0
 13 14  1  0  0  0
 13 18  2  0  0  0
 14 15  2  0  0  0
 14 37  1  0  0  0
 15 16  1  0  0  0
 15 38  1  0  0  0
 16 17  2  0  0  0
 16 19  1  0  0  0
 17 18  1  0  0  0
 17 39  1  0  0  0
 18 40  1  0  0  0
 19 20  2  0  0  0
 19 21  1  0  0  0
 21 22  1  0  0  0
 21 41  1  0  0  0
 22 23  1  0  0  0
 22 26  1  0  0  0
 22 42  1  0  0  0
 23 24  2  0  0  0
 23 25  1  0  0  0
 26 27  1  0  0  0
 26 43  1  0  0  0
 26 44  1  0  0  0
 27 28  1  0  0  0
 27 45  1  0  0  0
 27 46  1  0  0  0
 28 29  2  0  0  0
 28 30  1  0  0  0
 31 47  1  0  0  0
 31 48  1  0  0  0
 31 49  1  0  0  0
 32 50  1  0  0  0
 32 51  1  0  0  0
 33 52  1  0  0  0
 33 53  1  0  0  0
M  CHG  2  25  -1  30  -1
M  END
>  <ACTIVITY>
8.20761

>  <set_rl>
1

>  <Min_dist>
999.9

>  <Avg_dist>
999.9

>  <PC_uM>
0.00088

>  <TG_uM>
N/A

>  <RL_uM>
0.0062

$$$$
1-131463
  Cerius2 12110214553D 1   1.00000                          
 
 38 40  0  0  0  0  0  0  0  0999 V2000
    2.3319   -0.2349    0.3736 C   0  0  0  0  0  0
    2.5238   -1.6820    0.4876 C   0  0  0  0  0  0
    3.6384   -2.1970   -0.0121 N   0  0  0  0  0  0
    4.5521   -1.4284   -0.5970 C   0  0  0  0  0  0
    4.4291   -0.1225   -0.7257 N   0  0  0  0  0  0
    3.3490    0.5193   -0.2626 C   0  0  0  0  0  0
    3.2067    1.8414   -0.3839 N   0  0  0  0  0  0
    2.1253    2.4241    0.0887 C   0  0  0  0  0  0
    1.1274    1.6772    0.7139 C   0  0  0  0  0  0
    1.2501    0.3738    0.8487 N   0  0  0  0  0  0
   -0.1006    2.3700    1.2460 C   0  0  0  0  0  0
   -1.1269    2.4153    0.2015 N   0  0  0  0  0  0
   -2.0456    1.3800    0.0851 C   0  0  0  0  0  0
   -3.0206    1.4248   -0.9086 C   0  0  0  0  0  0
   -3.9259    0.4089   -1.0258 C   0  0  0  0  0  0
   -3.8727   -0.6785   -0.1461 C   0  0  0  0  0  0
   -2.8911   -0.7203    0.8510 C   0  0  0  0  0  0
   -1.9860    0.2968    0.9588 C   0  0  0  0  0  0
   -4.8464   -1.7747   -0.2687 C   0  0  0  0  0  0
   -4.7985   -2.7245    0.5011 O   0  0  0  0  0  0
   -5.7040   -1.7365   -1.1405 O   0  5  0  0  0  0
   -1.1842    3.5526   -0.7202 C   0  0  0  0  0  0
    5.6914   -2.0306   -1.0959 N   0  0  0  0  0  0
    1.5788   -2.4806    1.0935 N   0  0  0  0  0  0
    2.0095    3.4934   -0.0086 H   0  0  0  0  0  0
   -0.4826    1.8219    2.1072 H   0  0  0  0  0  0
    0.1568    3.3856    1.5467 H   0  0  0  0  0  0
   -3.0610    2.2642   -1.5870 H   0  0  0  0  0  0
   -4.6821    0.4447   -1.7961 H   0  0  0  0  0  0
   -2.8472   -1.5575    1.5318 H   0  0  0  0  0  0
   -1.2283    0.2653    1.7278 H   0  0  0  0  0  0
   -0.3904    4.2585   -0.4761 H   0  0  0  0  0  0
   -1.0537    3.1984   -1.7428 H   0  0  0  0  0  0
   -2.1512    4.0470   -0.6276 H   0  0  0  0  0  0
    5.8081   -2.9901   -1.0145 H   0  0  0  0  0  0
    6.3743   -1.4938   -1.5275 H   0  0  0  0  0  0
    1.7230   -3.4375    1.1599 H   0  0  0  0  0  0
    0.7692   -2.0860    1.4537 H   0  0  0  0  0  0
  1  2  1  0  0  0
  1  6  2  0  0  0
  1 10  1  0  0  0
  2  3  2  0  0  0
  2 24  1  0  0  0
  3  4  1  0  0  0
  4  5  2  0  0  0
  4 23  1  0  0  0
  5  6  1  0  0  0
  6  7  1  0  0  0
  7  8  2  0  0  0
  8  9  1  0  0  0
  8 25  1  0  0  0
  9 10  2  0  0  0
  9 11  1  0  0  0
 11 12  1  0  0  0
 11 26  1  0  0  0
 11 27  1  0  0  0
 12 13  1  0  0  0
 12 22  1  0  0  0
 13 14  1  0  0  0
 13 18  2  0  0  0
 14 15  2  0  0  0
 14 28  1  0  0  0
 15 16  1  0  0  0
 15 29  1  0  0  0
 16 17  2  0  0  0
 16 19  1  0  0  0
 17 18  1  0  0  0
 17 30  1  0  0  0
 18 31  1  0  0  0
 19 20  2  0  0  0
 19 21  1  0  0  0
 22 32  1  0  0  0
 22 33  1  0  0  0
 22 34  1  0  0  0
 23 35  1  0  0  0
 23 36  1  0  0  0
 24 37  1  0  0  0
 24 38  1  0  0  0
M  CHG  1  21  -1
M  END
>  <ACTIVITY>
6.95861

>  <set_rl>
1

>  <Min_dist>
999.9

>  <Avg_dist>
999.9

>  <PC_uM>
0.94

>  <TG_uM>
2.27

>  <RL_uM>
0.11

$$$$
1-144698
  Cerius2 12110214553D 1   1.00000                          
 
 56 58  0  0  0  0  0  0  0  0999 V2000
   -5.7512    0.3245   -0.5819 C   0  0  0  0  0  0
   -6.8115   -0.6754   -0.7221 C   0  0  0  0  0  0
   -8.0661   -0.2638   -0.6042 N   0  0  0  0  0  0
   -8.3543    1.0123   -0.3668 C   0  0  0  0  0  0
   -7.4394    1.9514   -0.2322 N   0  0  0  0  0  0
   -6.1350    1.6650   -0.3296 C   0  0  0  0  0  0
   -5.1939    2.6027   -0.1961 N   0  0  0  0  0  0
   -3.9251    2.2688   -0.3008 C   0  0  0  0  0  0
   -3.5528    0.9481   -0.5492 C   0  0  0  0  0  0
   -4.4644    0.0093   -0.6894 N   0  0  0  0  0  0
   -2.0927    0.5935   -0.6643 C   0  0  0  0  0  0
   -1.5697    0.2357    0.6610 N   0  0  0  0  0  0
   -0.2264   -0.0793    0.4887 C   0  0  0  0  0  0
    0.6514    0.8747   -0.0193 C   0  0  0  0  0  0
    1.9812    0.5661   -0.1910 C   0  0  0  0  0  0
    2.4508   -0.7072    0.1454 C   0  0  0  0  0  0
    1.5672   -1.6627    0.6551 C   0  0  0  0  0  0
    0.2392   -1.3460    0.8298 C   0  0  0  0  0  0
   -0.7141   -2.3755    1.3798 C   0  0  0  0  0  0
   -0.0211   -3.5638    1.6343 F   0  0  0  0  0  0
   -1.2780   -1.9007    2.5688 F   0  0  0  0  0  0
   -1.7281   -2.6176    0.4469 F   0  0  0  0  0  0
    3.8759   -1.0415   -0.0379 C   0  0  0  0  0  0
    4.2830   -2.1492    0.2551 O   0  0  0  0  0  0
    4.7266   -0.1192   -0.5299 N   0  0  0  0  0  0
    6.1418   -0.4513   -0.7119 C   0  0  0  0  0  0
    6.3519   -1.0152   -2.0935 C   0  0  0  0  0  0
    5.6351   -0.6580   -3.0134 O   0  0  0  0  0  0
    7.2387   -1.8287   -2.2919 O   0  5  0  0  0  0
    6.9880    0.8121   -0.5426 C   0  0  0  0  0  0
    6.7747    1.3846    0.8602 C   0  0  0  0  0  0
    7.6082    2.6290    1.0269 C   0  0  0  0  0  0
    7.5827    3.2434    2.0802 O   0  0  0  0  0  0
    8.3081    3.0218    0.1086 O   0  5  0  0  0  0
   -1.6157    1.4565    1.4767 C   0  0  0  0  0  0
   -9.6836    1.3731   -0.2558 N   0  0  0  0  0  0
   -6.5157   -1.9982   -0.9685 N   0  0  0  0  0  0
   -3.1633    3.0268   -0.1933 H   0  0  0  0  0  0
   -1.9766   -0.2528   -1.3414 H   0  0  0  0  0  0
   -1.5407    1.4489   -1.0539 H   0  0  0  0  0  0
    0.2879    1.8579   -0.2793 H   0  0  0  0  0  0
    2.6614    1.3064   -0.5854 H   0  0  0  0  0  0
    1.9270   -2.6471    0.9159 H   0  0  0  0  0  0
    4.4019    0.7644   -0.7636 H   0  0  0  0  0  0
    6.4401   -1.1906    0.0315 H   0  0  0  0  0  0
    8.0410    0.5651   -0.6779 H   0  0  0  0  0  0
    6.6898    1.5514   -1.2859 H   0  0  0  0  0  0
    5.7218    1.6317    0.9956 H   0  0  0  0  0  0
    7.0729    0.6453    1.6035 H   0  0  0  0  0  0
   -1.2355    1.2409    2.4752 H   0  0  0  0  0  0
   -1.0006    2.2272    1.0122 H   0  0  0  0  0  0
   -2.6453    1.8073    1.5479 H   0  0  0  0  0  0
  -10.3778    0.7023   -0.3509 H   0  0  0  0  0  0
   -9.9225    2.2972   -0.0829 H   0  0  0  0  0  0
   -7.2314   -2.6466   -1.0585 H   0  0  0  0  0  0
   -5.5916   -2.2811   -1.0521 H   0  0  0  0  0  0
  1  2  1  0  0  0
  1  6  2  0  0  0
  1 10  1  0  0  0
  2  3  2  0  0  0
  2 37  1  0  0  0
  3  4  1  0  0  0
  4  5  2  0  0  0
  4 36  1  0  0  0
  5  6  1  0  0  0
  6  7  1  0  0  0
  7  8  2  0  0  0
  8  9  1  0  0  0
  8 38  1  0  0  0
  9 10  2  0  0  0
  9 11  1  0  0  0
 11 12  1  0  0  0
 11 39  1  0  0  0
 11 40  1  0  0  0
 12 13  1  0  0  0
 12 35  1  0  0  0
 13 14  1  0  0  0
 13 18  2  0  0  0
 14 15  2  0  0  0
 14 41  1  0  0  0
 15 16  1  0  0  0
 15 42  1  0  0  0
 16 17  2  0  0  0
 16 23  1  0  0  0
 17 18  1  0  0  0
 17 43  1  0  0  0
 18 19  1  0  0  0
 19 20  1  0  0  0
 19 21  1  0  0  0
 19 22  1  0  0  0
 23 24  2  0  0  0
 23 25  1  0  0  0
 25 26  1  0  0  0
 25 44  1  0  0  0
 26 27  1  0  0  0
 26 30  1  0  0  0
 26 45  1  0  0  0
 27 28  2  0  0  0
 27 29  1  0  0  0
 30 31  1  0  0  0
 30 46  1  0  0  0
 30 47  1  0  0  0
 31 32  1  0  0  0
 31 48  1  0  0  0
 31 49  1  0  0  0
 32 33  2  0  0  0
 32 34  1  0  0  0
 35 50  1  0  0  0
 35 51  1  0  0  0
 35 52  1  0  0  0
 36 53  1  0  0  0
 36 54  1  0  0  0
 37 55  1  0  0  0
 37 56  1  0  0  0
M  CHG  2  29  -1  34  -1
M  END
>  <ACTIVITY>
8.80967

>  <set_rl>
1

>  <Min_dist>
999.9

>  <Avg_dist>
999.9

>  <PC_uM>
0.00031

>  <TG_uM>
0.0067

>  <RL_uM>
0.00155

$$$$
1-233903
  Cerius2 12110214553D 1   1.00000                          
 
 37 39  0  0  0  0  0  0  0  0999 V2000
    3.2052   -0.3207    0.2345 C   0  0  0  0  0  0
    4.0969   -1.4797    0.1604 C   0  0  0  0  0  0
    5.3692   -1.2600   -0.1396 N   0  0  0  0  0  0
    5.8226   -0.0308   -0.3659 C   0  0  0  0  0  0
    5.0637    1.0454   -0.3123 N   0  0  0  0  0  0
    3.7600    0.9582   -0.0192 C   0  0  0  0  0  0
    2.9754    2.0371    0.0397 N   0  0  0  0  0  0
    1.6999    1.8971    0.3322 C   0  0  0  0  0  0
    1.1589    0.6361    0.5810 C   0  0  0  0  0  0
    1.9156   -0.4397    0.5334 N   0  0  0  0  0  0
   -0.3050    0.5046    0.9137 C   0  0  0  0  0  0
   -1.0720    0.3226   -0.3212 N   0  0  0  0  0  0
   -2.4538    0.1776   -0.2664 C   0  0  0  0  0  0
   -3.1812    0.0047   -1.4407 C   0  0  0  0  0  0
   -4.5488   -0.1390   -1.3898 C   0  0  0  0  0  0
   -5.2077   -0.1113   -0.1571 C   0  0  0  0  0  0
   -4.4744    0.0625    1.0203 C   0  0  0  0  0  0
   -3.1064    0.2000    0.9632 C   0  0  0  0  0  0
   -6.6737   -0.2646   -0.0990 C   0  0  0  0  0  0
   -7.3104   -0.4152   -1.1240 O   0  0  0  0  0  0
   -7.3075   -0.2376    1.0901 N   0  0  0  0  0  0
    7.1606    0.1268   -0.6733 N   0  0  0  0  0  0
    3.6298   -2.7544    0.3950 N   0  0  0  0  0  0
    1.0647    2.7692    0.3804 H   0  0  0  0  0  0
   -0.4538   -0.3573    1.5642 H   0  0  0  0  0  0
   -0.6444    1.4068    1.4226 H   0  0  0  0  0  0
   -0.6159    0.3031   -1.1770 H   0  0  0  0  0  0
   -2.6717   -0.0163   -2.3927 H   0  0  0  0  0  0
   -5.1126   -0.2728   -2.3012 H   0  0  0  0  0  0
   -4.9806    0.0848    1.9741 H   0  0  0  0  0  0
   -2.5393    0.3339    1.8725 H   0  0  0  0  0  0
   -8.2715   -0.3384    1.1283 H   0  0  0  0  0  0
   -6.7997   -0.1174    1.9078 H   0  0  0  0  0  0
    7.7422   -0.6481   -0.7193 H   0  0  0  0  0  0
    7.5182    1.0123   -0.8431 H   0  0  0  0  0  0
    4.2353   -3.5103    0.3415 H   0  0  0  0  0  0
    2.6954   -2.8960    0.6136 H   0  0  0  0  0  0
  1  2  1  0  0  0
  1  6  2  0  0  0
  1 10  1  0  0  0
  2  3  2  0  0  0
  2 23  1  0  0  0
  3  4  1  0  0  0
  4  5  2  0  0  0
  4 22  1  0  0  0
  5  6  1  0  0  0
  6  7  1  0  0  0
  7  8  2  0  0  0
  8  9  1  0  0  0
  8 24  1  0  0  0
  9 10  2  0  0  0
  9 11  1  0  0  0
 11 12  1  0  0  0
 11 25  1  0  0  0
 11 26  1  0  0  0
 12 13  1  0  0  0
 12 27  1  0  0  0
 13 14  1  0  0  0
 13 18  2  0  0  0
 14 15  2  0  0  0
 14 28  1  0  0  0
 15 16  1  0  0  0
 15 29  1  0  0  0
 16 17  2  0  0  0
 16 19  1  0  0  0
 17 18  1  0  0  0
 17 30  1  0  0  0
 18 31  1  0  0  0
 19 20  2  0  0  0
 19 21  1  0  0  0
 21 32  1  0  0  0
 21 33  1  0  0  0
 22 34  1  0  0  0
 22 35  1  0  0  0
 23 36  1  0  0  0
 23 37  1  0  0  0
M  END
>  <ACTIVITY>
3.65758

>  <set_rl>
1

>  <Min_dist>
999.9

>  <Avg_dist>
999.9

>  <PC_uM>
153000

>  <TG_uM>
N/A

>  <RL_uM>
220

$$$$
1-233904
  Cerius2 12110214553D 1   1.00000                          
 
 36 38  0  0  0  0  0  0  0  0999 V2000
    1.6303   -0.0997    0.3749 C   0  0  0  0  0  0
    2.2415   -1.4301    0.4001 C   0  0  0  0  0  0
    3.4751   -1.5504   -0.0700 N   0  0  0  0  0  0
    4.1368   -0.5010   -0.5483 C   0  0  0  0  0  0
    3.6339    0.7164   -0.5940 N   0  0  0  0  0  0
    2.3966    0.9706   -0.1497 C   0  0  0  0  0  0
    1.8702    2.1971   -0.1879 N   0  0  0  0  0  0
    0.6490    2.3939    0.2617 C   0  0  0  0  0  0
   -0.1008    1.3370    0.7770 C   0  0  0  0  0  0
    0.4008    0.1214    0.8288 N   0  0  0  0  0  0
   -1.4967    1.5905    1.2851 C   0  0  0  0  0  0
   -2.4541    1.4167    0.1899 N   0  0  0  0  0  0
   -3.0205    0.1628   -0.0501 C   0  0  0  0  0  0
   -3.9285   -0.0038   -1.0881 C   0  0  0  0  0  0
   -4.4863   -1.2451   -1.3230 C   0  0  0  0  0  0
   -4.1419   -2.3216   -0.5262 C   0  0  0  0  0  0
   -3.2384   -2.1593    0.5079 C   0  0  0  0  0  0
   -2.6728   -0.9219    0.7450 C   0  0  0  0  0  0
   -2.8174    2.5582   -0.6535 C   0  0  0  0  0  0
    5.4199   -0.6971   -1.0222 N   0  0  0  0  0  0
    1.5583   -2.5189    0.8956 N   0  0  0  0  0  0
    0.2226    3.3857    0.2315 H   0  0  0  0  0  0
   -1.7263    0.8852    2.0838 H   0  0  0  0  0  0
   -1.5644    2.6085    1.6688 H   0  0  0  0  0  0
   -4.1982    0.8366   -1.7105 H   0  0  0  0  0  0
   -5.1926   -1.3752   -2.1296 H   0  0  0  0  0  0
   -4.5799   -3.2912   -0.7119 H   0  0  0  0  0  0
   -2.9716   -3.0021    1.1283 H   0  0  0  0  0  0
   -1.9669   -0.7959    1.5527 H   0  0  0  0  0  0
   -2.2792    3.4443   -0.3171 H   0  0  0  0  0  0
   -2.5530    2.3436   -1.6889 H   0  0  0  0  0  0
   -3.8905    2.7359   -0.5819 H   0  0  0  0  0  0
    5.8149   -1.5828   -1.0003 H   0  0  0  0  0  0
    5.9255    0.0508   -1.3768 H   0  0  0  0  0  0
    1.9793   -3.3928    0.9043 H   0  0  0  0  0  0
    0.6562   -2.4118    1.2358 H   0  0  0  0  0  0
  1  2  1  0  0  0
  1  6  2  0  0  0
  1 10  1  0  0  0
  2  3  2  0  0  0
  2 21  1  0  0  0
  3  4  1  0  0  0
  4  5  2  0  0  0
  4 20  1  0  0  0
  5  6  1  0  0  0
  6  7  1  0  0  0
  7  8  2  0  0  0
  8  9  1  0  0  0
  8 22  1  0  0  0
  9 10  2  0  0  0
  9 11  1  0  0  0
 11 12  1  0  0  0
 11 23  1  0  0  0
 11 24  1  0  0  0
 12 13  1  0  0  0
 12 19  1  0  0  0
 13 14  1  0  0  0
 13 18  2  0  0  0
 14 15  2  0  0  0
 14 25  1  0  0  0
 15 16  1  0  0  0
 15 26  1  0  0  0
 16 17  2  0  0  0
 16 27  1  0  0  0
 17 18  1  0  0  0
 17 28  1  0  0  0
 18 29  1  0  0  0
 19 30  1  0  0  0
 19 31  1  0  0  0
 19 32  1  0  0  0
 20 33  1  0  0  0
 20 34  1  0  0  0
 21 35  1  0  0  0
 21 36  1  0  0  0
M  END
>  <ACTIVITY>
6.08092

>  <set_rl>
1

>  <Min_dist>
999.9

>  <Avg_dist>
999.9

>  <PC_uM>
10

>  <TG_uM>
16.9

>  <RL_uM>
0.83

$$$$
9-12C
  Cerius2 12110214553D 1   1.00000                          
 
 38 41  0  0  0  0  0  0  0  0999 V2000
   -5.4013    0.6991   -1.0747 N   0  0  0  0  0  0
   -5.8345    0.5105    0.1682 C   0  0  0  0  0  0
   -5.0758    0.0441    1.1397 N   0  0  0  0  0  0
   -3.7931   -0.2740    0.9234 C   0  0  0  0  0  0
   -3.2606   -0.0993   -0.3781 C   0  0  0  0  0  0
   -4.1510    0.4223   -1.4169 C   0  0  0  0  0  0
   -3.7047    0.6182   -2.7055 N   0  0  0  0  0  0
   -1.9910   -0.4055   -0.6248 N   0  0  0  0  0  0
   -1.2353   -0.8706    0.3471 C   0  0  0  0  0  0
   -1.7543   -1.0443    1.6297 C   0  0  0  0  0  0
   -3.0088   -0.7473    1.8948 N   0  0  0  0  0  0
    0.2046   -1.2192    0.0712 C   0  0  0  0  0  0
    1.2461    0.2369    0.3638 S   0  0  0  0  0  0
    2.8281   -0.4358   -0.0228 C   0  0  0  0  0  0
    2.9474   -1.7528   -0.4167 C   0  0  0  0  0  0
    4.1920   -2.2929   -0.7239 C   0  0  0  0  0  0
    5.3245   -1.5405   -0.6446 C   0  0  0  0  0  0
    5.2469   -0.1947   -0.2475 C   0  0  0  0  0  0
    3.9849    0.3694    0.0621 C   0  0  0  0  0  0
    3.9090    1.7135    0.4581 C   0  0  0  0  0  0
    5.0466    2.4575    0.5398 C   0  0  0  0  0  0
    6.2885    1.9038    0.2356 C   0  0  0  0  0  0
    6.3993    0.6053   -0.1569 C   0  0  0  0  0  0
   -7.1499    0.8203    0.4566 N   0  0  0  0  0  0
   -4.3090    0.9647   -3.3806 H   0  0  0  0  0  0
   -2.7863    0.4097   -2.9377 H   0  0  0  0  0  0
   -1.1193   -1.4272    2.4149 H   0  0  0  0  0  0
    0.5159   -2.0275    0.7330 H   0  0  0  0  0  0
    0.3089   -1.5381   -0.9658 H   0  0  0  0  0  0
    2.0648   -2.3712   -0.4870 H   0  0  0  0  0  0
    4.2614   -3.3263   -1.0300 H   0  0  0  0  0  0
    6.2818   -1.9780   -0.8865 H   0  0  0  0  0  0
    2.9530    2.1558    0.6965 H   0  0  0  0  0  0
    4.9853    3.4918    0.8445 H   0  0  0  0  0  0
    7.1758    2.5153    0.3080 H   0  0  0  0  0  0
    7.3685    0.1892   -0.3892 H   0  0  0  0  0  0
   -7.7307    1.1656   -0.2393 H   0  0  0  0  0  0
   -7.4924    0.6925    1.3551 H   0  0  0  0  0  0
  1  2  1  0  0  0
  1  6  2  0  0  0
  2  3  2  0  0  0
  2 24  1  0  0  0
  3  4  1  0  0  0
  4  5  2  0  0  0
  4 11  1  0  0  0
  5  6  1  0  0  0
  5  8  1  0  0  0
  6  7  1  0  0  0
  7 25  1  0  0  0
  7 26  1  0  0  0
  8  9  2  0  0  0
  9 10  1  0  0  0
  9 12  1  0  0  0
 10 11  2  0  0  0
 10 27  1  0  0  0
 12 13  1  0  0  0
 12 28  1  0  0  0
 12 29  1  0  0  0
 13 14  1  0  0  0
 14 15  1  0  0  0
 14 19  2  0  0  0
 15 16  2  0  0  0
 15 30  1  0  0  0
 16 17  1  0  0  0
 16 31  1  0  0  0
 17 18  2  0  0  0
 17 32  1  0  0  0
 18 19  1  0  0  0
 18 23  1  0  0  0
 19 20  1  0  0  0
 20 21  2  0  0  0
 20 33  1  0  0  0
 21 22  1  0  0  0
 21 34  1  0  0  0
 22 23  2  0  0  0
 22 35  1  0  0  0
 23 36  1  0  0  0
 24 37  1  0  0  0
 24 38  1  0  0  0
M  END
>  <ACTIVITY>
5.08619

>  <set_rl>
1

>  <Min_dist>
999.9

>  <Avg_dist>
999.9

>  <PC_uM>
4.2

>  <TG_uM>
7

>  <RL_uM>
8.2

$$$$
9-12D
  Cerius2 12110214553D 1   1.00000                          
 
 35 37  0  0  0  0  0  0  0  0999 V2000
   -4.8390    1.2145    0.1182 N   0  0  0  0  0  0
   -5.2748   -0.0264    0.3135 C   0  0  0  0  0  0
   -4.4940   -1.0871    0.2668 N   0  0  0  0  0  0
   -3.1842   -0.9710    0.0134 C   0  0  0  0  0  0
   -2.6472    0.3219   -0.2054 C   0  0  0  0  0  0
   -3.5629    1.4626   -0.1411 C   0  0  0  0  0  0
   -3.1139    2.7492   -0.3436 N   0  0  0  0  0  0
   -1.3509    0.4704   -0.4589 N   0  0  0  0  0  0
   -0.5733   -0.5903   -0.5045 C   0  0  0  0  0  0
   -1.0966   -1.8649   -0.2899 C   0  0  0  0  0  0
   -2.3773   -2.0336   -0.0375 N   0  0  0  0  0  0
    0.8969   -0.4260   -0.7921 C   0  0  0  0  0  0
    1.7969   -0.2047    0.7673 S   0  0  0  0  0  0
    3.4399   -0.0415    0.1518 C   0  0  0  0  0  0
    3.6812   -0.1063   -1.2155 C   0  0  0  0  0  0
    4.9698    0.0219   -1.6942 C   0  0  0  0  0  0
    6.0201    0.2142   -0.8149 C   0  0  0  0  0  0
    5.7838    0.2788    0.5461 C   0  0  0  0  0  0
    4.4966    0.1579    1.0317 C   0  0  0  0  0  0
    6.9315    0.4879    1.5001 C   0  0  0  0  0  0
   -6.6177   -0.2138    0.5801 N   0  0  0  0  0  0
   -3.7352    3.4927   -0.2971 H   0  0  0  0  0  0
   -2.1765    2.9117   -0.5326 H   0  0  0  0  0  0
   -0.4433   -2.7239   -0.3312 H   0  0  0  0  0  0
    1.2686   -1.3140   -1.3033 H   0  0  0  0  0  0
    1.0477    0.4480   -1.4258 H   0  0  0  0  0  0
    2.8617   -0.2571   -1.9026 H   0  0  0  0  0  0
    5.1580   -0.0283   -2.7565 H   0  0  0  0  0  0
    7.0271    0.3139   -1.1921 H   0  0  0  0  0  0
    4.3128    0.2084    2.0947 H   0  0  0  0  0  0
    7.0813    1.5557    1.6598 H   0  0  0  0  0  0
    6.7056    0.0064    2.4515 H   0  0  0  0  0  0
    7.8379    0.0529    1.0789 H   0  0  0  0  0  0
   -7.2152    0.5493    0.6207 H   0  0  0  0  0  0
   -6.9628   -1.1083    0.7267 H   0  0  0  0  0  0
  1  2  1  0  0  0
  1  6  2  0  0  0
  2  3  2  0  0  0
  2 21  1  0  0  0
  3  4  1  0  0  0
  4  5  2  0  0  0
  4 11  1  0  0  0
  5  6  1  0  0  0
  5  8  1  0  0  0
  6  7  1  0  0  0
  7 22  1  0  0  0
  7 23  1  0  0  0
  8  9  2  0  0  0
  9 10  1  0  0  0
  9 12  1  0  0  0
 10 11  2  0  0  0
 10 24  1  0  0  0
 12 13  1  0  0  0
 12 25  1  0  0  0
 12 26  1  0  0  0
 13 14  1  0  0  0
 14 15  1  0  0  0
 14 19  2  0  0  0
 15 16  2  0  0  0
 15 27  1  0  0  0
 16 17  1  0  0  0
 16 28  1  0  0  0
 17 18  2  0  0  0
 17 29  1  0  0  0
 18 19  1  0  0  0
 18 20  1  0  0  0
 19 30  1  0  0  0
 20 31  1  0  0  0
 20 32  1  0  0  0
 20 33  1  0  0  0
 21 34  1  0  0  0
 21 35  1  0  0  0
M  END
>  <ACTIVITY>
5.0716

>  <set_rl>
1

>  <Min_dist>
999.9

>  <Avg_dist>
999.9

>  <PC_uM>
21.2

>  <TG_uM>
1.8

>  <RL_uM>
8.48

$$$$
9-12E
  Cerius2 12110214553D 1   1.00000                          
 
 35 37  0  0  0  0  0  0  0  0999 V2000
   -4.8723    1.2087    0.0825 N   0  0  0  0  0  0
   -5.3166   -0.0437    0.1253 C   0  0  0  0  0  0
   -4.5321   -1.0975    0.0198 N   0  0  0  0  0  0
   -3.2096   -0.9617   -0.1407 C   0  0  0  0  0  0
   -2.6630    0.3444   -0.1956 C   0  0  0  0  0  0
   -3.5834    1.4766   -0.0727 C   0  0  0  0  0  0
   -3.1256    2.7752   -0.1172 N   0  0  0  0  0  0
   -1.3541    0.5125   -0.3536 N   0  0  0  0  0  0
   -0.5728   -0.5414   -0.4583 C   0  0  0  0  0  0
   -1.1055   -1.8290   -0.4050 C   0  0  0  0  0  0
   -2.3988   -2.0171   -0.2490 N   0  0  0  0  0  0
    0.9118   -0.3549   -0.6381 C   0  0  0  0  0  0
    1.7149   -0.2950    0.9873 S   0  0  0  0  0  0
    3.3918   -0.0773    0.4921 C   0  0  0  0  0  0
    4.3936    0.0229    1.4502 C   0  0  0  0  0  0
    5.7066    0.1934    1.0584 C   0  0  0  0  0  0
    6.0254    0.2650   -0.2855 C   0  0  0  0  0  0
    5.0310    0.1661   -1.2416 C   0  0  0  0  0  0
    3.7166   -0.0112   -0.8575 C   0  0  0  0  0  0
    7.4595    0.4516   -0.7089 C   0  0  0  0  0  0
   -6.6728   -0.2515    0.2898 N   0  0  0  0  0  0
   -3.7502    3.5127   -0.0341 H   0  0  0  0  0  0
   -2.1788    2.9521   -0.2317 H   0  0  0  0  0  0
   -0.4491   -2.6821   -0.4927 H   0  0  0  0  0  0
    1.3158   -1.1886   -1.2125 H   0  0  0  0  0  0
    1.0990    0.5776   -1.1705 H   0  0  0  0  0  0
    4.1453   -0.0322    2.4998 H   0  0  0  0  0  0
    6.4856    0.2713    1.8024 H   0  0  0  0  0  0
    5.2835    0.2228   -2.2902 H   0  0  0  0  0  0
    2.9407   -0.0883   -1.6047 H   0  0  0  0  0  0
    7.9308   -0.5230   -0.8356 H   0  0  0  0  0  0
    7.4918    0.9962   -1.6526 H   0  0  0  0  0  0
    7.9934    1.0168    0.0551 H   0  0  0  0  0  0
   -7.2732    0.5060    0.3704 H   0  0  0  0  0  0
   -7.0243   -1.1549    0.3245 H   0  0  0  0  0  0
  1  2  1  0  0  0
  1  6  2  0  0  0
  2  3  2  0  0  0
  2 21  1  0  0  0
  3  4  1  0  0  0
  4  5  2  0  0  0
  4 11  1  0  0  0
  5  6  1  0  0  0
  5  8  1  0  0  0
  6  7  1  0  0  0
  7 22  1  0  0  0
  7 23  1  0  0  0
  8  9  2  0  0  0
  9 10  1  0  0  0
  9 12  1  0  0  0
 10 11  2  0  0  0
 10 24  1  0  0  0
 12 13  1  0  0  0
 12 25  1  0  0  0
 12 26  1  0  0  0
 13 14  1  0  0  0
 14 15  1  0  0  0
 14 19  2  0  0  0
 15 16  2  0  0  0
 15 27  1  0  0  0
 16 17  1  0  0  0
 16 28  1  0  0  0
 17 18  2  0  0  0
 17 20  1  0  0  0
 18 19  1  0  0  0
 18 29  1  0  0  0
 19 30  1  0  0  0
 20 31  1  0  0  0
 20 32  1  0  0  0
 20 33  1  0  0  0
 21 34  1  0  0  0
 21 35  1  0  0  0
M  END
>  <ACTIVITY>
4.58503

>  <set_rl>
1

>  <Min_dist>
999.9

>  <Avg_dist>
999.9

>  <PC_uM>
30

>  <TG_uM>
15

>  <RL_uM>
26

$$$$
9-12G
  Cerius2 12110214553D 1   1.00000                          
 
 36 38  0  0  0  0  0  0  0  0999 V2000
   -5.2280    1.2289    0.0909 N   0  0  0  0  0  0
   -5.6845   -0.0166    0.0010 C   0  0  0  0  0  0
   -4.9056   -1.0658   -0.1706 N   0  0  0  0  0  0
   -3.5767   -0.9322   -0.2666 C   0  0  0  0  0  0
   -3.0170    0.3666   -0.1798 C   0  0  0  0  0  0
   -3.9316    1.4940    0.0111 C   0  0  0  0  0  0
   -3.4612    2.7855    0.1041 N   0  0  0  0  0  0
   -1.7014    0.5324   -0.2709 N   0  0  0  0  0  0
   -0.9258   -0.5170   -0.4418 C   0  0  0  0  0  0
   -1.4714   -1.7975   -0.5279 C   0  0  0  0  0  0
   -2.7714   -1.9831   -0.4401 N   0  0  0  0  0  0
    0.5663   -0.3331   -0.5461 C   0  0  0  0  0  0
    1.3048   -0.4323    1.1078 S   0  0  0  0  0  0
    3.0019   -0.1908    0.7002 C   0  0  0  0  0  0
    3.9643   -0.1914    1.7019 C   0  0  0  0  0  0
    5.2941   -0.0026    1.3812 C   0  0  0  0  0  0
    5.6691    0.1877    0.0593 C   0  0  0  0  0  0
    4.7089    0.1884   -0.9418 C   0  0  0  0  0  0
    3.3791   -0.0055   -0.6239 C   0  0  0  0  0  0
    6.9790    0.3740   -0.2553 O   0  0  0  0  0  0
    7.0437    0.5390   -1.6733 C   0  0  0  0  0  0
   -7.0479   -0.2219    0.0930 N   0  0  0  0  0  0
   -4.0822    3.5199    0.2305 H   0  0  0  0  0  0
   -2.5091    2.9605    0.0431 H   0  0  0  0  0  0
   -0.8194   -2.6469   -0.6683 H   0  0  0  0  0  0
    0.9855   -1.1155   -1.1787 H   0  0  0  0  0  0
    0.7826    0.6419   -0.9827 H   0  0  0  0  0  0
    3.6726   -0.3391    2.7313 H   0  0  0  0  0  0
    6.0425   -0.0026    2.1599 H   0  0  0  0  0  0
    5.0019    0.3369   -1.9706 H   0  0  0  0  0  0
    2.6317   -0.0049   -1.4035 H   0  0  0  0  0  0
    8.0800    0.6922   -1.9743 H   0  0  0  0  0  0
    6.6518   -0.3534   -2.1612 H   0  0  0  0  0  0
    6.4487    1.4041   -1.9659 H   0  0  0  0  0  0
   -7.6445    0.5323    0.2197 H   0  0  0  0  0  0
   -7.4083   -1.1203    0.0307 H   0  0  0  0  0  0
  1  2  1  0  0  0
  1  6  2  0  0  0
  2  3  2  0  0  0
  2 22  1  0  0  0
  3  4  1  0  0  0
  4  5  2  0  0  0
  4 11  1  0  0  0
  5  6  1  0  0  0
  5  8  1  0  0  0
  6  7  1  0  0  0
  7 23  1  0  0  0
  7 24  1  0  0  0
  8  9  2  0  0  0
  9 10  1  0  0  0
  9 12  1  0  0  0
 10 11  2  0  0  0
 10 25  1  0  0  0
 12 13  1  0  0  0
 12 26  1  0  0  0
 12 27  1  0  0  0
 13 14  1  0  0  0
 14 15  1  0  0  0
 14 19  2  0  0  0
 15 16  2  0  0  0
 15 28  1  0  0  0
 16 17  1  0  0  0
 16 29  1  0  0  0
 17 18  2  0  0  0
 17 20  1  0  0  0
 18 19  1  0  0  0
 18 30  1  0  0  0
 19 31  1  0  0  0
 20 21  1  0  0  0
 21 32  1  0  0  0
 21 33  1  0  0  0
 21 34  1  0  0  0
 22 35  1  0  0  0
 22 36  1  0  0  0
M  END
>  <ACTIVITY>
4.9914

>  <set_rl>
1

>  <Min_dist>
999.9

>  <Avg_dist>
999.9

>  <PC_uM>
17.2

>  <TG_uM>
14

>  <RL_uM>
10.2

$$$$
9-12J
  Cerius2 12110214553D 1   1.00000                          
 
 32 34  0  0  0  0  0  0  0  0999 V2000
   -5.3577    1.2423    0.0698 N   0  0  0  0  0  0
   -5.8182   -0.0049    0.0614 C   0  0  0  0  0  0
   -5.0449   -1.0647   -0.0647 N   0  0  0  0  0  0
   -3.7179   -0.9409   -0.1947 C   0  0  0  0  0  0
   -3.1542    0.3591   -0.1945 C   0  0  0  0  0  0
   -4.0627    1.4984   -0.0511 C   0  0  0  0  0  0
   -3.5881    2.7917   -0.0426 N   0  0  0  0  0  0
   -1.8403    0.5153   -0.3214 N   0  0  0  0  0  0
   -1.0703   -0.5445   -0.4467 C   0  0  0  0  0  0
   -1.6199   -1.8261   -0.4475 C   0  0  0  0  0  0
   -2.9182   -2.0025   -0.3231 N   0  0  0  0  0  0
    0.4198   -0.3715   -0.5912 C   0  0  0  0  0  0
    1.1912   -0.3769    1.0506 S   0  0  0  0  0  0
    2.8802   -0.1646    0.5958 C   0  0  0  0  0  0
    3.8635   -0.1099    1.5760 C   0  0  0  0  0  0
    5.1864    0.0561    1.2165 C   0  0  0  0  0  0
    5.5332    0.1679   -0.1187 C   0  0  0  0  0  0
    4.5560    0.1143   -1.0972 C   0  0  0  0  0  0
    3.2321   -0.0573   -0.7442 C   0  0  0  0  0  0
    7.1974    0.3765   -0.5668 Cl  0  0  0  0  0  0
   -7.1798   -0.2005    0.1923 N   0  0  0  0  0  0
   -4.2050    3.5341    0.0534 H   0  0  0  0  0  0
   -2.6370    2.9600   -0.1326 H   0  0  0  0  0  0
   -0.9724   -2.6843   -0.5514 H   0  0  0  0  0  0
    0.8247   -1.1905   -1.1856 H   0  0  0  0  0  0
    0.6290    0.5760   -1.0878 H   0  0  0  0  0  0
    3.5935   -0.1968    2.6181 H   0  0  0  0  0  0
    5.9511    0.0990    1.9779 H   0  0  0  0  0  0
    4.8297    0.2026   -2.1383 H   0  0  0  0  0  0
    2.4700   -0.0994   -1.5083 H   0  0  0  0  0  0
   -7.7723    0.5617    0.2870 H   0  0  0  0  0  0
   -7.5431   -1.0999    0.1895 H   0  0  0  0  0  0
  1  2  1  0  0  0
  1  6  2  0  0  0
  2  3  2  0  0  0
  2 21  1  0  0  0
  3  4  1  0  0  0
  4  5  2  0  0  0
  4 11  1  0  0  0
  5  6  1  0  0  0
  5  8  1  0  0  0
  6  7  1  0  0  0
  7 22  1  0  0  0
  7 23  1  0  0  0
  8  9  2  0  0  0
  9 10  1  0  0  0
  9 12  1  0  0  0
 10 11  2  0  0  0
 10 24  1  0  0  0
 12 13  1  0  0  0
 12 25  1  0  0  0
 12 26  1  0  0  0
 13 14  1  0  0  0
 14 15  1  0  0  0
 14 19  2  0  0  0
 15 16  2  0  0  0
 15 27  1  0  0  0
 16 17  1  0  0  0
 16 28  1  0  0  0
 17 18  2  0  0  0
 17 20  1  0  0  0
 18 19  1  0  0  0
 18 29  1  0  0  0
 19 30  1  0  0  0
 21 31  1  0  0  0
 21 32  1  0  0  0
M  END
>  <ACTIVITY>
4.84466

>  <set_rl>
1

>  <Min_dist>
999.9

>  <Avg_dist>
999.9

>  <PC_uM>
42.1

>  <TG_uM>
16.8

>  <RL_uM>
14.3

$$$$
9-12K
  Cerius2 12110214553D 1   1.00000                          
 
 33 35  0  0  0  0  0  0  0  0999 V2000
   -5.1491    1.2444   -0.1600 N   0  0  0  0  0  0
   -5.5959    0.0107   -0.3749 C   0  0  0  0  0  0
   -4.8321   -1.0612   -0.3080 N   0  0  0  0  0  0
   -3.5296   -0.9649   -0.0121 C   0  0  0  0  0  0
   -2.9817    0.3193    0.2299 C   0  0  0  0  0  0
   -3.8787    1.4732    0.1414 C   0  0  0  0  0  0
   -3.4181    2.7525    0.3632 N   0  0  0  0  0  0
   -1.6925    0.4482    0.5264 N   0  0  0  0  0  0
   -0.9320   -0.6238    0.5930 C   0  0  0  0  0  0
   -1.4661   -1.8899    0.3558 C   0  0  0  0  0  0
   -2.7400   -2.0392    0.0607 N   0  0  0  0  0  0
    0.5303   -0.4816    0.9285 C   0  0  0  0  0  0
    1.3000   -0.3092   -0.3060 N   0  0  0  0  0  0
    2.6878   -0.1562   -0.2486 C   0  0  0  0  0  0
    3.4188    0.0073   -1.4182 C   0  0  0  0  0  0
    4.7904    0.1583   -1.3584 C   0  0  0  0  0  0
    5.4363    0.1466   -0.1347 C   0  0  0  0  0  0
    4.7106   -0.0166    1.0322 C   0  0  0  0  0  0
    3.3382   -0.1618    0.9787 C   0  0  0  0  0  0
    7.1604    0.3366   -0.0633 Cl  0  0  0  0  0  0
   -6.9322   -0.1565   -0.6845 N   0  0  0  0  0  0
   -4.0270    3.5050    0.3002 H   0  0  0  0  0  0
   -2.4849    2.9009    0.5823 H   0  0  0  0  0  0
   -0.8268   -2.7583    0.4149 H   0  0  0  0  0  0
    0.6730    0.3879    1.5701 H   0  0  0  0  0  0
    0.8726   -1.3766    1.4480 H   0  0  0  0  0  0
    0.8463   -0.3012   -1.1634 H   0  0  0  0  0  0
    2.9152    0.0162   -2.3736 H   0  0  0  0  0  0
    5.3593    0.2851   -2.2676 H   0  0  0  0  0  0
    5.2174   -0.0261    1.9858 H   0  0  0  0  0  0
    2.7722   -0.2888    1.8898 H   0  0  0  0  0  0
   -7.5174    0.6151   -0.7401 H   0  0  0  0  0  0
   -7.2851   -1.0455   -0.8462 H   0  0  0  0  0  0
  1  2  1  0  0  0
  1  6  2  0  0  0
  2  3  2  0  0  0
  2 21  1  0  0  0
  3  4  1  0  0  0
  4  5  2  0  0  0
  4 11  1  0  0  0
  5  6  1  0  0  0
  5  8  1  0  0  0
  6  7  1  0  0  0
  7 22  1  0  0  0
  7 23  1  0  0  0
  8  9  2  0  0  0
  9 10  1  0  0  0
  9 12  1  0  0  0
 10 11  2  0  0  0
 10 24  1  0  0  0
 12 13  1  0  0  0
 12 25  1  0  0  0
 12 26  1  0  0  0
 13 14  1  0  0  0
 13 27  1  0  0  0
 14 15  1  0  0  0
 14 19  2  0  0  0
 15 16  2  0  0  0
 15 28  1  0  0  0
 16 17  1  0  0  0
 16 29  1  0  0  0
 17 18  2  0  0  0
 17 20  1  0  0  0
 18 19  1  0  0  0
 18 30  1  0  0  0
 19 31  1  0  0  0
 21 32  1  0  0  0
 21 33  1  0  0  0
M  END
>  <ACTIVITY>
6.52288

>  <set_rl>
1

>  <Min_dist>
999.9

>  <Avg_dist>
999.9

>  <PC_uM>
1.5

>  <TG_uM>
0.59

>  <RL_uM>
0.3

$$$$
9-12N
  Cerius2 12110214553D 1   1.00000                          
 
 41 43  0  0  0  0  0  0  0  0999 V2000
   -5.2716   -0.0241   -1.2063 N   0  0  0  0  0  0
   -5.7082   -0.1948    0.0379 C   0  0  0  0  0  0
   -4.9318   -0.1077    1.0993 N   0  0  0  0  0  0
   -3.6261    0.1647    0.9804 C   0  0  0  0  0  0
   -3.0886    0.3594   -0.3161 C   0  0  0  0  0  0
   -3.9993    0.2503   -1.4574 C   0  0  0  0  0  0
   -3.5493    0.4262   -2.7476 N   0  0  0  0  0  0
   -1.7964    0.6316   -0.4674 N   0  0  0  0  0  0
   -1.0234    0.7185    0.5942 C   0  0  0  0  0  0
   -1.5472    0.5279    1.8723 C   0  0  0  0  0  0
   -2.8239    0.2575    2.0437 N   0  0  0  0  0  0
    0.4423    1.0266    0.4267 C   0  0  0  0  0  0
    1.1910   -0.2245    0.2837 N   0  0  0  0  0  0
    2.5799   -0.1934    0.1143 C   0  0  0  0  0  0
    3.2488    1.0212    0.0817 C   0  0  0  0  0  0
    4.6248    1.0489   -0.0857 C   0  0  0  0  0  0
    5.3319   -0.1367   -0.2209 C   0  0  0  0  0  0
    4.6672   -1.3487   -0.1892 C   0  0  0  0  0  0
    3.2937   -1.3824   -0.0160 C   0  0  0  0  0  0
    2.6404   -2.5758    0.0154 O   0  0  0  0  0  0
    3.6298   -3.5929   -0.1543 C   0  0  0  0  0  0
    5.2815    2.2391   -0.1178 O   0  0  0  0  0  0
    6.6673    1.9414   -0.2996 C   0  0  0  0  0  0
   -7.0472   -0.4782    0.2283 N   0  0  0  0  0  0
   -4.1673    0.3502   -3.4914 H   0  0  0  0  0  0
   -2.6146    0.6262   -2.9122 H   0  0  0  0  0  0
   -0.8977    0.6031    2.7319 H   0  0  0  0  0  0
    0.5854    1.6394   -0.4633 H   0  0  0  0  0  0
    0.8022    1.5674    1.3019 H   0  0  0  0  0  0
    0.7241   -1.0745    0.3063 H   0  0  0  0  0  0
    2.6983    1.9445    0.1863 H   0  0  0  0  0  0
    6.4037   -0.1131   -0.3516 H   0  0  0  0  0  0
    5.2203   -2.2702   -0.2951 H   0  0  0  0  0  0
    3.1512   -4.5720   -0.1358 H   0  0  0  0  0  0
    4.1343   -3.4531   -1.1104 H   0  0  0  0  0  0
    4.3586   -3.5293    0.6538 H   0  0  0  0  0  0
    7.2372    2.8700   -0.3317 H   0  0  0  0  0  0
    7.0189    1.3278    0.5297 H   0  0  0  0  0  0
    6.8027    1.3995   -1.2356 H   0  0  0  0  0  0
   -7.6416   -0.5478   -0.5352 H   0  0  0  0  0  0
   -7.3928   -0.6075    1.1253 H   0  0  0  0  0  0
  1  2  1  0  0  0
  1  6  2  0  0  0
  2  3  2  0  0  0
  2 24  1  0  0  0
  3  4  1  0  0  0
  4  5  2  0  0  0
  4 11  1  0  0  0
  5  6  1  0  0  0
  5  8  1  0  0  0
  6  7  1  0  0  0
  7 25  1  0  0  0
  7 26  1  0  0  0
  8  9  2  0  0  0
  9 10  1  0  0  0
  9 12  1  0  0  0
 10 11  2  0  0  0
 10 27  1  0  0  0
 12 13  1  0  0  0
 12 28  1  0  0  0
 12 29  1  0  0  0
 13 14  1  0  0  0
 13 30  1  0  0  0
 14 15  1  0  0  0
 14 19  2  0  0  0
 15 16  2  0  0  0
 15 31  1  0  0  0
 16 17  1  0  0  0
 16 22  1  0  0  0
 17 18  2  0  0  0
 17 32  1  0  0  0
 18 19  1  0  0  0
 18 33  1  0  0  0
 19 20  1  0  0  0
 20 21  1  0  0  0
 21 34  1  0  0  0
 21 35  1  0  0  0
 21 36  1  0  0  0
 22 23  1  0  0  0
 23 37  1  0  0  0
 23 38  1  0  0  0
 23 39  1  0  0  0
 24 40  1  0  0  0
 24 41  1  0  0  0
M  END
>  <ACTIVITY>
4.64016

>  <set_rl>
1

>  <Min_dist>
999.9

>  <Avg_dist>
999.9

>  <PC_uM>
6.2

>  <TG_uM>
6.9

>  <RL_uM>
22.9

$$$$
9-12P
  Cerius2 12110214553D 1   1.00000                          
 
 41 43  0  0  0  0  0  0  0  0999 V2000
   -5.5226   -0.4389   -1.1747 N   0  0  0  0  0  0
   -5.9691   -0.3854    0.0765 C   0  0  0  0  0  0
   -5.2062   -0.0853    1.1085 N   0  0  0  0  0  0
   -3.9053    0.1896    0.9500 C   0  0  0  0  0  0
   -3.3578    0.1521   -0.3564 C   0  0  0  0  0  0
   -4.2536   -0.1874   -1.4637 C   0  0  0  0  0  0
   -3.7934   -0.2439   -2.7610 N   0  0  0  0  0  0
   -2.0701    0.4205   -0.5468 N   0  0  0  0  0  0
   -1.3106    0.7204    0.4853 C   0  0  0  0  0  0
   -1.8442    0.7586    1.7731 C   0  0  0  0  0  0
   -3.1167    0.4961    1.9830 N   0  0  0  0  0  0
    0.1501    1.0248    0.2736 C   0  0  0  0  0  0
    0.9262   -0.2139    0.3707 N   0  0  0  0  0  0
    2.3130   -0.1836    0.2083 C   0  0  0  0  0  0
    3.0490   -1.3575    0.3003 C   0  0  0  0  0  0
    4.4255   -1.3266    0.1385 C   0  0  0  0  0  0
    5.0675   -0.1236   -0.1151 C   0  0  0  0  0  0
    4.3332    1.0495   -0.2067 C   0  0  0  0  0  0
    2.9560    1.0195   -0.0508 C   0  0  0  0  0  0
    4.9633    2.2277   -0.4543 O   0  0  0  0  0  0
    6.3572    1.9345   -0.5692 C   0  0  0  0  0  0
    5.1460   -2.4752    0.2289 O   0  0  0  0  0  0
    6.5147   -2.1218    0.0195 C   0  0  0  0  0  0
   -7.3039   -0.6585    0.3071 N   0  0  0  0  0  0
   -4.4015   -0.4706   -3.4819 H   0  0  0  0  0  0
   -2.8612   -0.0571   -2.9535 H   0  0  0  0  0  0
   -1.2058    1.0067    2.6081 H   0  0  0  0  0  0
    0.2901    1.4648   -0.7138 H   0  0  0  0  0  0
    0.4891    1.7267    1.0355 H   0  0  0  0  0  0
    0.4769   -1.0551    0.5477 H   0  0  0  0  0  0
    2.5493   -2.2942    0.4981 H   0  0  0  0  0  0
    6.1399   -0.1002   -0.2410 H   0  0  0  0  0  0
    2.3843    1.9330   -0.1221 H   0  0  0  0  0  0
    6.9067    2.8544   -0.7691 H   0  0  0  0  0  0
    6.7136    1.4933    0.3617 H   0  0  0  0  0  0
    6.5145    1.2322   -1.3877 H   0  0  0  0  0  0
    7.1347   -3.0160    0.0832 H   0  0  0  0  0  0
    6.6269   -1.6713   -0.9667 H   0  0  0  0  0  0
    6.8265   -1.4084    0.7824 H   0  0  0  0  0  0
   -7.8883   -0.8820   -0.4341 H   0  0  0  0  0  0
   -7.6565   -0.6268    1.2102 H   0  0  0  0  0  0
  1  2  1  0  0  0
  1  6  2  0  0  0
  2  3  2  0  0  0
  2 24  1  0  0  0
  3  4  1  0  0  0
  4  5  2  0  0  0
  4 11  1  0  0  0
  5  6  1  0  0  0
  5  8  1  0  0  0
  6  7  1  0  0  0
  7 25  1  0  0  0
  7 26  1  0  0  0
  8  9  2  0  0  0
  9 10  1  0  0  0
  9 12  1  0  0  0
 10 11  2  0  0  0
 10 27  1  0  0  0
 12 13  1  0  0  0
 12 28  1  0  0  0
 12 29  1  0  0  0
 13 14  1  0  0  0
 13 30  1  0  0  0
 14 15  1  0  0  0
 14 19  2  0  0  0
 15 16  2  0  0  0
 15 31  1  0  0  0
 16 17  1  0  0  0
 16 22  1  0  0  0
 17 18  2  0  0  0
 17 32  1  0  0  0
 18 19  1  0  0  0
 18 20  1  0  0  0
 19 33  1  0  0  0
 20 21  1  0  0  0
 21 34  1  0  0  0
 21 35  1  0  0  0
 21 36  1  0  0  0
 22 23  1  0  0  0
 23 37  1  0  0  0
 23 38  1  0  0  0
 23 39  1  0  0  0
 24 40  1  0  0  0
 24 41  1  0  0  0
M  END
>  <ACTIVITY>
6.05552

>  <set_rl>
1

>  <Min_dist>
999.9

>  <Avg_dist>
999.9

>  <PC_uM>
0.96

>  <TG_uM>
0.11

>  <RL_uM>
0.88

$$$$
9-12R
  Cerius2 12110214553D 1   1.00000                          
 
 40 42  0  0  0  0  0  0  0  0999 V2000
   -5.8136    0.2473   -1.2026 N   0  0  0  0  0  0
   -6.2667    0.0981    0.0385 C   0  0  0  0  0  0
   -5.4868    0.0874    1.1009 N   0  0  0  0  0  0
   -4.1602    0.2298    0.9864 C   0  0  0  0  0  0
   -3.6042    0.3936   -0.3066 C   0  0  0  0  0  0
   -4.5198    0.3975   -1.4492 C   0  0  0  0  0  0
   -4.0528    0.5514   -2.7362 N   0  0  0  0  0  0
   -2.2911    0.5379   -0.4535 N   0  0  0  0  0  0
   -1.5146    0.5272    0.6090 C   0  0  0  0  0  0
   -2.0566    0.3663    1.8837 C   0  0  0  0  0  0
   -3.3541    0.2220    2.0508 N   0  0  0  0  0  0
   -0.0252    0.6900    0.4464 C   0  0  0  0  0  0
    0.5946   -0.6269    0.2797 N   0  0  0  0  0  0
    1.9800   -0.7319    0.1102 C   0  0  0  0  0  0
    2.7679    0.4098    0.0997 C   0  0  0  0  0  0
    4.1358    0.3035   -0.0680 C   0  0  0  0  0  0
    4.7218   -0.9387   -0.2254 C   0  0  0  0  0  0
    3.9428   -2.0812   -0.2160 C   0  0  0  0  0  0
    2.5720   -1.9837   -0.0428 C   0  0  0  0  0  0
    1.8045   -3.1065   -0.0333 O   0  0  0  0  0  0
    2.6889   -4.2129   -0.2226 C   0  0  0  0  0  0
    4.9904    1.5447   -0.0797 C   0  0  0  0  0  0
    6.3304    1.1866   -0.2620 F   0  0  0  0  0  0
    4.5846    2.3805   -1.1256 F   0  0  0  0  0  0
    4.8494    2.2194    1.1378 F   0  0  0  0  0  0
   -7.6275   -0.0532    0.2244 N   0  0  0  0  0  0
   -4.6744    0.5515   -3.4809 H   0  0  0  0  0  0
   -3.1025    0.6598   -2.8976 H   0  0  0  0  0  0
   -1.4038    0.3601    2.7441 H   0  0  0  0  0  0
    0.1796    1.3018   -0.4321 H   0  0  0  0  0  0
    0.3859    1.1757    1.3314 H   0  0  0  0  0  0
    0.0449   -1.4261    0.2868 H   0  0  0  0  0  0
    2.3126    1.3815    0.2221 H   0  0  0  0  0  0
    5.7910   -1.0171   -0.3565 H   0  0  0  0  0  0
    4.4038   -3.0500   -0.3393 H   0  0  0  0  0  0
    2.1160   -5.1402   -0.2221 H   0  0  0  0  0  0
    3.2060   -4.1058   -1.1761 H   0  0  0  0  0  0
    3.4193   -4.2367    0.5862 H   0  0  0  0  0  0
   -8.2249   -0.0488   -0.5399 H   0  0  0  0  0  0
   -7.9855   -0.1639    1.1191 H   0  0  0  0  0  0
  1  2  1  0  0  0
  1  6  2  0  0  0
  2  3  2  0  0  0
  2 26  1  0  0  0
  3  4  1  0  0  0
  4  5  2  0  0  0
  4 11  1  0  0  0
  5  6  1  0  0  0
  5  8  1  0  0  0
  6  7  1  0  0  0
  7 27  1  0  0  0
  7 28  1  0  0  0
  8  9  2  0  0  0
  9 10  1  0  0  0
  9 12  1  0  0  0
 10 11  2  0  0  0
 10 29  1  0  0  0
 12 13  1  0  0  0
 12 30  1  0  0  0
 12 31  1  0  0  0
 13 14  1  0  0  0
 13 32  1  0  0  0
 14 15  1  0  0  0
 14 19  2  0  0  0
 15 16  2  0  0  0
 15 33  1  0  0  0
 16 17  1  0  0  0
 16 22  1  0  0  0
 17 18  2  0  0  0
 17 34  1  0  0  0
 18 19  1  0  0  0
 18 35  1  0  0  0
 19 20  1  0  0  0
 20 21  1  0  0  0
 21 36  1  0  0  0
 21 37  1  0  0  0
 21 38  1  0  0  0
 22 23  1  0  0  0
 22 24  1  0  0  0
 22 25  1  0  0  0
 26 39  1  0  0  0
 26 40  1  0  0  0
M  END
>  <ACTIVITY>
4.67778

>  <set_rl>
1

>  <Min_dist>
999.9

>  <Avg_dist>
999.9

>  <PC_uM>
21

>  <TG_uM>
10.6

>  <RL_uM>
21

$$$$
9-12F
  Cerius2 12110214553D 1   1.00000                          
 
 36 38  0  0  0  0  0  0  0  0999 V2000
   -5.2225    1.2511    0.1193 N   0  0  0  0  0  0
   -5.6708    0.0200    0.3457 C   0  0  0  0  0  0
   -4.9029   -1.0507    0.3144 N   0  0  0  0  0  0
   -3.5945   -0.9556    0.0459 C   0  0  0  0  0  0
   -3.0446    0.3257   -0.2061 C   0  0  0  0  0  0
   -3.9462    1.4784   -0.1577 C   0  0  0  0  0  0
   -3.4843    2.7549   -0.3923 N   0  0  0  0  0  0
   -1.7493    0.4534   -0.4753 N   0  0  0  0  0  0
   -0.9845   -0.6172   -0.5055 C   0  0  0  0  0  0
   -1.5205   -1.8806   -0.2582 C   0  0  0  0  0  0
   -2.8005   -2.0286    0.0102 N   0  0  0  0  0  0
    0.4845   -0.4766   -0.8108 C   0  0  0  0  0  0
    1.4026   -0.2325    0.7346 S   0  0  0  0  0  0
    3.0411   -0.1021    0.0998 C   0  0  0  0  0  0
    3.2674   -0.1993   -1.2685 C   0  0  0  0  0  0
    4.5516   -0.0966   -1.7656 C   0  0  0  0  0  0
    5.6150    0.1025   -0.9051 C   0  0  0  0  0  0
    5.3954    0.2003    0.4618 C   0  0  0  0  0  0
    4.1076    0.1036    0.9649 C   0  0  0  0  0  0
    6.4422    0.3956    1.3062 O   0  0  0  0  0  0
    7.6190    0.4571    0.4979 C   0  0  0  0  0  0
   -7.0130   -0.1457    0.6293 N   0  0  0  0  0  0
   -4.0964    3.5065   -0.3559 H   0  0  0  0  0  0
   -2.5470    2.9021   -0.5938 H   0  0  0  0  0  0
   -0.8777   -2.7480   -0.2873 H   0  0  0  0  0  0
    0.8407   -1.3798   -1.3062 H   0  0  0  0  0  0
    0.6392    0.3816   -1.4647 H   0  0  0  0  0  0
    2.4385   -0.3556   -1.9430 H   0  0  0  0  0  0
    4.7257   -0.1723   -2.8288 H   0  0  0  0  0  0
    6.6182    0.1817   -1.2970 H   0  0  0  0  0  0
    3.9349    0.1798    2.0282 H   0  0  0  0  0  0
    8.4895    0.6136    1.1349 H   0  0  0  0  0  0
    7.7330   -0.4784   -0.0497 H   0  0  0  0  0  0
    7.5321    1.2831   -0.2080 H   0  0  0  0  0  0
   -7.6012    0.6251    0.6591 H   0  0  0  0  0  0
   -7.3671   -1.0327    0.7985 H   0  0  0  0  0  0
  1  2  1  0  0  0
  1  6  2  0  0  0
  2  3  2  0  0  0
  2 22  1  0  0  0
  3  4  1  0  0  0
  4  5  2  0  0  0
  4 11  1  0  0  0
  5  6  1  0  0  0
  5  8  1  0  0  0
  6  7  1  0  0  0
  7 23  1  0  0  0
  7 24  1  0  0  0
  8  9  2  0  0  0
  9 10  1  0  0  0
  9 12  1  0  0  0
 10 11  2  0  0  0
 10 25  1  0  0  0
 12 13  1  0  0  0
 12 26  1  0  0  0
 12 27  1  0  0  0
 13 14  1  0  0  0
 14 15  1  0  0  0
 14 19  2  0  0  0
 15 16  2  0  0  0
 15 28  1  0  0  0
 16 17  1  0  0  0
 16 29  1  0  0  0
 17 18  2  0  0  0
 17 30  1  0  0  0
 18 19  1  0  0  0
 18 20  1  0  0  0
 19 31  1  0  0  0
 20 21  1  0  0  0
 21 32  1  0  0  0
 21 33  1  0  0  0
 21 34  1  0  0  0
 22 35  1  0  0  0
 22 36  1  0  0  0
M  END
>  <ACTIVITY>
5.11351

>  <set_rl>
1

>  <Min_dist>
999.9

>  <Avg_dist>
999.9

>  <PC_uM>
9.9

>  <TG_uM>
1.6

>  <RL_uM>
7.7

$$$$
1-235791
  Cerius2 12110214553D 1   1.00000                          
 
 38 40  0  0  0  0  0  0  0  0999 V2000
    3.1811   -0.3209    0.2353 C   0  0  0  0  0  0
    4.0734   -1.4794    0.1603 C   0  0  0  0  0  0
    5.3462   -1.2586   -0.1372 N   0  0  0  0  0  0
    5.7994   -0.0287   -0.3603 C   0  0  0  0  0  0
    5.0400    1.0470   -0.3057 N   0  0  0  0  0  0
    3.7358    0.9587   -0.0149 C   0  0  0  0  0  0
    2.9507    2.0371    0.0450 N   0  0  0  0  0  0
    1.6747    1.8960    0.3351 C   0  0  0  0  0  0
    1.1339    0.6343    0.5805 C   0  0  0  0  0  0
    1.8911   -0.4411    0.5319 N   0  0  0  0  0  0
   -0.3305    0.5015    0.9105 C   0  0  0  0  0  0
   -1.0954    0.3217   -0.3259 N   0  0  0  0  0  0
   -2.4757    0.1763   -0.2737 C   0  0  0  0  0  0
   -3.2011    0.0054   -1.4507 C   0  0  0  0  0  0
   -4.5581   -0.1384   -1.4039 C   0  0  0  0  0  0
   -5.2210   -0.1140   -0.1698 C   0  0  0  0  0  0
   -4.4875    0.0581    1.0115 C   0  0  0  0  0  0
   -3.1301    0.1959    0.9560 C   0  0  0  0  0  0
   -6.6794   -0.2677   -0.1146 C   0  0  0  0  0  0
   -7.3128   -0.4161   -1.1385 O   0  0  0  0  0  0
   -7.3901   -0.2410    1.2140 C   0  0  0  0  0  0
    7.1378    0.1300   -0.6652 N   0  0  0  0  0  0
    3.6064   -2.7548    0.3914 N   0  0  0  0  0  0
    1.0391    2.7678    0.3842 H   0  0  0  0  0  0
   -0.4800   -0.3618    1.5590 H   0  0  0  0  0  0
   -0.6711    1.4025    1.4207 H   0  0  0  0  0  0
   -0.6379    0.3043   -1.1811 H   0  0  0  0  0  0
   -2.6894   -0.0129   -2.4017 H   0  0  0  0  0  0
   -5.1198   -0.2705   -2.3169 H   0  0  0  0  0  0
   -4.9945    0.0779    1.9649 H   0  0  0  0  0  0
   -2.5639    0.3282    1.8661 H   0  0  0  0  0  0
   -8.4609   -0.3694    1.0558 H   0  0  0  0  0  0
   -7.0162   -1.0494    1.8423 H   0  0  0  0  0  0
   -7.2074    0.7149    1.7047 H   0  0  0  0  0  0
    7.7198   -0.6445   -0.7118 H   0  0  0  0  0  0
    7.4953    1.0161   -0.8326 H   0  0  0  0  0  0
    4.2123   -3.5103    0.3373 H   0  0  0  0  0  0
    2.6718   -2.8972    0.6082 H   0  0  0  0  0  0
  1  2  1  0  0  0
  1  6  2  0  0  0
  1 10  1  0  0  0
  2  3  2  0  0  0
  2 23  1  0  0  0
  3  4  1  0  0  0
  4  5  2  0  0  0
  4 22  1  0  0  0
  5  6  1  0  0  0
  6  7  1  0  0  0
  7  8  2  0  0  0
  8  9  1  0  0  0
  8 24  1  0  0  0
  9 10  2  0  0  0
  9 11  1  0  0  0
 11 12  1  0  0  0
 11 25  1  0  0  0
 11 26  1  0  0  0
 12 13  1  0  0  0
 12 27  1  0  0  0
 13 14  1  0  0  0
 13 18  2  0  0  0
 14 15  2  0  0  0
 14 28  1  0  0  0
 15 16  1  0  0  0
 15 29  1  0  0  0
 16 17  2  0  0  0
 16 19  1  0  0  0
 17 18  1  0  0  0
 17 30  1  0  0  0
 18 31  1  0  0  0
 19 20  2  0  0  0
 19 21  1  0  0  0
 21 32  1  0  0  0
 21 33  1  0  0  0
 21 34  1  0  0  0
 22 35  1  0  0  0
 22 36  1  0  0  0
 23 37  1  0  0  0
 23 38  1  0  0  0
M  END
>  <ACTIVITY>
7.12494

>  <set_rl>
1

>  <Min_dist>
999.9

>  <Avg_dist>
999.9

>  <PC_uM>
0.72

>  <TG_uM>
N/A

>  <RL_uM>
0.075

$$$$
9-12I
  Cerius2 12110214553D 1   1.00000                          
 
 32 34  0  0  0  0  0  0  0  0999 V2000
   -5.1397   -0.5786   -1.0586 N   0  0  0  0  0  0
   -5.5862   -0.0739    0.0876 C   0  0  0  0  0  0
   -4.7954    0.3191    1.0660 N   0  0  0  0  0  0
   -3.4638    0.2296    0.9571 C   0  0  0  0  0  0
   -2.9143   -0.2990   -0.2372 C   0  0  0  0  0  0
   -3.8420   -0.7192   -1.2893 C   0  0  0  0  0  0
   -3.3820   -1.2428   -2.4776 N   0  0  0  0  0  0
   -1.5964   -0.4005   -0.3761 N   0  0  0  0  0  0
   -0.8089   -0.0069    0.6021 C   0  0  0  0  0  0
   -1.3444    0.5141    1.7796 C   0  0  0  0  0  0
   -2.6465    0.6229    1.9371 N   0  0  0  0  0  0
    0.6859   -0.1208    0.4486 C   0  0  0  0  0  0
    1.3363    1.4050   -0.2860 S   0  0  0  0  0  0
    3.0517    1.0073   -0.3490 C   0  0  0  0  0  0
    3.9612    1.9253   -0.8610 C   0  0  0  0  0  0
    5.3048    1.6109   -0.9091 C   0  0  0  0  0  0
    5.7467    0.3837   -0.4492 C   0  0  0  0  0  0
    4.8444   -0.5333    0.0613 C   0  0  0  0  0  0
    3.4988   -0.2224    0.1181 C   0  0  0  0  0  0
    5.4041   -2.0723    0.6374 Cl  0  0  0  0  0  0
   -6.9518    0.0453    0.2621 N   0  0  0  0  0  0
   -4.0115   -1.5158   -3.1633 H   0  0  0  0  0  0
   -2.4286   -1.3385   -2.6287 H   0  0  0  0  0  0
   -0.6827    0.8320    2.5718 H   0  0  0  0  0  0
    1.1409   -0.2757    1.4269 H   0  0  0  0  0  0
    0.9213   -0.9651   -0.1994 H   0  0  0  0  0  0
    3.6172    2.8836   -1.2211 H   0  0  0  0  0  0
    6.0116    2.3240   -1.3069 H   0  0  0  0  0  0
    6.7981    0.1403   -0.4888 H   0  0  0  0  0  0
    2.7949   -0.9379    0.5168 H   0  0  0  0  0  0
   -7.5570   -0.2359   -0.4418 H   0  0  0  0  0  0
   -7.3051    0.4102    1.0885 H   0  0  0  0  0  0
  1  2  1  0  0  0
  1  6  2  0  0  0
  2  3  2  0  0  0
  2 21  1  0  0  0
  3  4  1  0  0  0
  4  5  2  0  0  0
  4 11  1  0  0  0
  5  6  1  0  0  0
  5  8  1  0  0  0
  6  7  1  0  0  0
  7 22  1  0  0  0
  7 23  1  0  0  0
  8  9  2  0  0  0
  9 10  1  0  0  0
  9 12  1  0  0  0
 10 11  2  0  0  0
 10 24  1  0  0  0
 12 13  1  0  0  0
 12 25  1  0  0  0
 12 26  1  0  0  0
 13 14  1  0  0  0
 14 15  1  0  0  0
 14 19  2  0  0  0
 15 16  2  0  0  0
 15 27  1  0  0  0
 16 17  1  0  0  0
 16 28  1  0  0  0
 17 18  2  0  0  0
 17 29  1  0  0  0
 18 19  1  0  0  0
 18 20  1  0  0  0
 19 30  1  0  0  0
 21 31  1  0  0  0
 21 32  1  0  0  0
M  END
>  <ACTIVITY>
4.57512

>  <set_rl>
1

>  <Min_dist>
999.9

>  <Avg_dist>
999.9

>  <PC_uM>
42.2

>  <TG_uM>
5.7

>  <RL_uM>
26.6

$$$$
9-12M
  Cerius2 12110214553D 1   1.00000                          
 
 40 42  0  0  0  0  0  0  0  0999 V2000
   -4.8763    1.0188    0.2442 N   0  0  0  0  0  0
   -5.2304   -0.1771   -0.2165 C   0  0  0  0  0  0
   -4.3725   -1.1508   -0.4467 N   0  0  0  0  0  0
   -3.0625   -0.9854   -0.2236 C   0  0  0  0  0  0
   -2.6102    0.2642    0.2681 C   0  0  0  0  0  0
   -3.6092    1.3081    0.5049 C   0  0  0  0  0  0
   -3.2448    2.5482    0.9817 N   0  0  0  0  0  0
   -1.3161    0.4596    0.5001 N   0  0  0  0  0  0
   -0.4616   -0.5145    0.2698 C   0  0  0  0  0  0
   -0.9014   -1.7461   -0.2141 C   0  0  0  0  0  0
   -2.1784   -1.9600   -0.4503 N   0  0  0  0  0  0
    1.0065   -0.2965    0.5311 C   0  0  0  0  0  0
    1.6478    0.2255   -0.6831 N   0  0  0  0  0  0
    3.0017    0.4056   -0.3772 C   0  0  0  0  0  0
    3.7783   -0.6805    0.0218 C   0  0  0  0  0  0
    5.1173   -0.4966    0.3227 C   0  0  0  0  0  0
    5.6812    0.7629    0.2275 C   0  0  0  0  0  0
    4.9116    1.8408   -0.1676 C   0  0  0  0  0  0
    3.5753    1.6644   -0.4758 C   0  0  0  0  0  0
    2.7393    2.8420   -0.9064 C   0  0  0  0  0  0
    3.2223   -1.9182    0.1158 O   0  0  0  0  0  0
    4.2584   -2.8052    0.5422 C   0  0  0  0  0  0
   -6.5689   -0.4117   -0.4667 N   0  0  0  0  0  0
   -3.9206    3.2275    1.1326 H   0  0  0  0  0  0
   -2.3125    2.7420    1.1666 H   0  0  0  0  0  0
   -0.1857   -2.5339   -0.3972 H   0  0  0  0  0  0
    1.1285    0.4201    1.3433 H   0  0  0  0  0  0
    1.4705   -1.2429    0.8089 H   0  0  0  0  0  0
    1.6018   -0.5086   -1.3738 H   0  0  0  0  0  0
    5.7214   -1.3366    0.6321 H   0  0  0  0  0  0
    6.7257    0.9045    0.4630 H   0  0  0  0  0  0
    5.3560    2.8224   -0.2398 H   0  0  0  0  0  0
    2.7877    2.9450   -1.9904 H   0  0  0  0  0  0
    1.7046    2.6836   -0.6023 H   0  0  0  0  0  0
    3.1208    3.7492   -0.4378 H   0  0  0  0  0  0
    3.8580   -3.8150    0.6322 H   0  0  0  0  0  0
    5.0663   -2.7985   -0.1895 H   0  0  0  0  0  0
    4.6412   -2.4786    1.5091 H   0  0  0  0  0  0
   -7.2222    0.2871   -0.3059 H   0  0  0  0  0  0
   -6.8554   -1.2752   -0.8032 H   0  0  0  0  0  0
  1  2  1  0  0  0
  1  6  2  0  0  0
  2  3  2  0  0  0
  2 23  1  0  0  0
  3  4  1  0  0  0
  4  5  2  0  0  0
  4 11  1  0  0  0
  5  6  1  0  0  0
  5  8  1  0  0  0
  6  7  1  0  0  0
  7 24  1  0  0  0
  7 25  1  0  0  0
  8  9  2  0  0  0
  9 10  1  0  0  0
  9 12  1  0  0  0
 10 11  2  0  0  0
 10 26  1  0  0  0
 12 13  1  0  0  0
 12 27  1  0  0  0
 12 28  1  0  0  0
 13 14  1  0  0  0
 13 29  1  0  0  0
 14 15  1  0  0  0
 14 19  2  0  0  0
 15 16  2  0  0  0
 15 21  1  0  0  0
 16 17  1  0  0  0
 16 30  1  0  0  0
 17 18  2  0  0  0
 17 31  1  0  0  0
 18 19  1  0  0  0
 18 32  1  0  0  0
 19 20  1  0  0  0
 20 33  1  0  0  0
 20 34  1  0  0  0
 20 35  1  0  0  0
 21 22  1  0  0  0
 22 36  1  0  0  0
 22 37  1  0  0  0
 22 38  1  0  0  0
 23 39  1  0  0  0
 23 40  1  0  0  0
M  END
>  <ACTIVITY>
5.24413

>  <set_rl>
1

>  <Min_dist>
999.9

>  <Avg_dist>
999.9

>  <PC_uM>
15.8

>  <TG_uM>
1.85

>  <RL_uM>
5.7

$$$$
9-12Q
  Cerius2 12110214553D 1   1.00000                          
 
 45 47  0  0  0  0  0  0  0  0999 V2000
   -5.8389   -0.3419   -1.2761 N   0  0  0  0  0  0
   -6.3121   -0.4088   -0.0354 C   0  0  0  0  0  0
   -5.5734   -0.2031    1.0366 N   0  0  0  0  0  0
   -4.2714    0.0923    0.9329 C   0  0  0  0  0  0
   -3.6962    0.1808   -0.3590 C   0  0  0  0  0  0
   -4.5659   -0.0577   -1.5126 C   0  0  0  0  0  0
   -4.0780    0.0105   -2.7992 N   0  0  0  0  0  0
   -2.4067    0.4726   -0.4954 N   0  0  0  0  0  0
   -1.6714    0.6780    0.5766 C   0  0  0  0  0  0
   -2.2324    0.5921    1.8504 C   0  0  0  0  0  0
   -3.5071    0.3043    2.0070 N   0  0  0  0  0  0
   -0.2088    1.0086    0.4261 C   0  0  0  0  0  0
    0.5740   -0.2297    0.4232 N   0  0  0  0  0  0
    1.9661   -0.1769    0.2944 C   0  0  0  0  0  0
    2.7076   -1.3506    0.2916 C   0  0  0  0  0  0
    4.0870   -1.2990    0.1640 C   0  0  0  0  0  0
    4.7275   -0.0722    0.0388 C   0  0  0  0  0  0
    3.9846    1.1022    0.0416 C   0  0  0  0  0  0
    2.6048    1.0488    0.1636 C   0  0  0  0  0  0
    4.6106    2.3033   -0.0809 O   0  0  0  0  0  0
    3.5925    3.3053   -0.0438 C   0  0  0  0  0  0
    6.0827   -0.0208   -0.0862 O   0  0  0  0  0  0
    6.3711   -0.0801   -1.4846 C   0  0  0  0  0  0
    4.8132   -2.4488    0.1618 O   0  0  0  0  0  0
    3.8838   -3.5247    0.3053 C   0  0  0  0  0  0
   -7.6495   -0.7093    0.1395 N   0  0  0  0  0  0
   -4.6691   -0.1505   -3.5512 H   0  0  0  0  0  0
   -3.1434    0.2195   -2.9530 H   0  0  0  0  0  0
   -1.6135    0.7638    2.7187 H   0  0  0  0  0  0
   -0.0512    1.5403   -0.5122 H   0  0  0  0  0  0
    0.1090    1.6374    1.2579 H   0  0  0  0  0  0
    0.1271   -1.0862    0.5106 H   0  0  0  0  0  0
    2.2097   -2.3039    0.3893 H   0  0  0  0  0  0
    2.0273    1.9614    0.1654 H   0  0  0  0  0  0
    4.0488    4.2906   -0.1391 H   0  0  0  0  0  0
    2.8960    3.1463   -0.8670 H   0  0  0  0  0  0
    3.0561    3.2434    0.9031 H   0  0  0  0  0  0
    7.4499   -0.0417   -1.6350 H   0  0  0  0  0  0
    5.9795   -1.0098   -1.8972 H   0  0  0  0  0  0
    5.9037    0.7662   -1.9881 H   0  0  0  0  0  0
    4.4225   -4.4722    0.3089 H   0  0  0  0  0  0
    3.3400   -3.4124    1.2433 H   0  0  0  0  0  0
    3.1798   -3.5101   -0.5268 H   0  0  0  0  0  0
   -8.2164   -0.8651   -0.6320 H   0  0  0  0  0  0
   -8.0213   -0.7646    1.0337 H   0  0  0  0  0  0
  1  2  1  0  0  0
  1  6  2  0  0  0
  2  3  2  0  0  0
  2 26  1  0  0  0
  3  4  1  0  0  0
  4  5  2  0  0  0
  4 11  1  0  0  0
  5  6  1  0  0  0
  5  8  1  0  0  0
  6  7  1  0  0  0
  7 27  1  0  0  0
  7 28  1  0  0  0
  8  9  2  0  0  0
  9 10  1  0  0  0
  9 12  1  0  0  0
 10 11  2  0  0  0
 10 29  1  0  0  0
 12 13  1  0  0  0
 12 30  1  0  0  0
 12 31  1  0  0  0
 13 14  1  0  0  0
 13 32  1  0  0  0
 14 15  1  0  0  0
 14 19  2  0  0  0
 15 16  2  0  0  0
 15 33  1  0  0  0
 16 17  1  0  0  0
 16 24  1  0  0  0
 17 18  2  0  0  0
 17 22  1  0  0  0
 18 19  1  0  0  0
 18 20  1  0  0  0
 19 34  1  0  0  0
 20 21  1  0  0  0
 21 35  1  0  0  0
 21 36  1  0  0  0
 21 37  1  0  0  0
 22 23  1  0  0  0
 23 38  1  0  0  0
 23 39  1  0  0  0
 23 40  1  0  0  0
 24 25  1  0  0  0
 25 41  1  0  0  0
 25 42  1  0  0  0
 25 43  1  0  0  0
 26 44  1  0  0  0
 26 45  1  0  0  0
M  END
>  <ACTIVITY>
5.72125

>  <set_rl>
1

>  <Min_dist>
999.9

>  <Avg_dist>
999.9

>  <PC_uM>
7

>  <TG_uM>
1

>  <RL_uM>
1.9

$$$$
11-GR92754
  Cerius2 12110214553D 1   1.00000                          
 
 42 43  0  0  0  0  0  0  0  0999 V2000
   -3.7821    0.4756   -0.2367 N   0  0  0  0  0  0
   -3.6982   -0.7196    0.3397 C   0  0  0  0  0  0
   -2.5553   -1.3101    0.6263 N   0  0  0  0  0  0
   -1.3846   -0.7238    0.3455 C   0  0  0  0  0  0
   -1.3950    0.5525   -0.2699 C   0  0  0  0  0  0
   -2.6947    1.1591   -0.5645 C   0  0  0  0  0  0
   -2.7843    2.3972   -1.1622 N   0  0  0  0  0  0
   -0.2496    1.1609   -0.5609 N   0  0  0  0  0  0
    0.8903    0.5694   -0.2733 C   0  0  0  0  0  0
    0.9062   -0.6866    0.3323 C   0  0  0  0  0  0
   -0.2168   -1.3059    0.6286 N   0  0  0  0  0  0
    2.2248   -1.3427    0.6514 C   0  0  0  0  0  0
    2.6994   -2.1490   -0.5592 C   0  0  0  0  0  0
    4.1001   -2.7012   -0.2868 C   0  0  0  0  0  0
    1.7337   -3.3090   -0.8097 C   0  0  0  0  0  0
    2.1910    1.2558   -0.6021 C   0  0  0  0  0  0
    2.6630    2.0616    0.6098 C   0  0  0  0  0  0
    4.0506    2.6412    0.3278 C   0  0  0  0  0  0
    1.6790    3.2019    0.8787 C   0  0  0  0  0  0
   -4.8717   -1.3774    0.6555 N   0  0  0  0  0  0
   -3.6541    2.7833   -1.3498 H   0  0  0  0  0  0
   -1.9776    2.8827   -1.3953 H   0  0  0  0  0  0
    2.9631   -0.5772    0.8902 H   0  0  0  0  0  0
    2.1021   -2.0083    1.5059 H   0  0  0  0  0  0
    2.7276   -1.5037   -1.4371 H   0  0  0  0  0  0
    4.4382   -3.2756   -1.1492 H   0  0  0  0  0  0
    4.7880   -1.8748   -0.1083 H   0  0  0  0  0  0
    4.0718   -3.3465    0.5912 H   0  0  0  0  0  0
    1.7232   -3.9671    0.0592 H   0  0  0  0  0  0
    0.7312   -2.9168   -0.9805 H   0  0  0  0  0  0
    2.0588   -3.8696   -1.6861 H   0  0  0  0  0  0
    2.9423    0.5081   -0.8563 H   0  0  0  0  0  0
    2.0442    1.9259   -1.4492 H   0  0  0  0  0  0
    2.7117    1.4104    1.4825 H   0  0  0  0  0  0
    4.3869    3.2153    1.1912 H   0  0  0  0  0  0
    4.7516    1.8288    0.1363 H   0  0  0  0  0  0
    4.0018    3.2924   -0.5449 H   0  0  0  0  0  0
    1.6302    3.8531    0.0060 H   0  0  0  0  0  0
    0.6904    2.7890    1.0796 H   0  0  0  0  0  0
    2.0152    3.7760    1.7421 H   0  0  0  0  0  0
   -5.7271   -0.9660    0.4561 H   0  0  0  0  0  0
   -4.8400   -2.2507    1.0766 H   0  0  0  0  0  0
  1  2  1  0  0  0
  1  6  2  0  0  0
  2  3  2  0  0  0
  2 20  1  0  0  0
  3  4  1  0  0  0
  4  5  2  0  0  0
  4 11  1  0  0  0
  5  6  1  0  0  0
  5  8  1  0  0  0
  6  7  1  0  0  0
  7 21  1  0  0  0
  7 22  1  0  0  0
  8  9  2  0  0  0
  9 10  1  0  0  0
  9 16  1  0  0  0
 10 11  2  0  0  0
 10 12  1  0  0  0
 12 13  1  0  0  0
 12 23  1  0  0  0
 12 24  1  0  0  0
 13 14  1  0  0  0
 13 15  1  0  0  0
 13 25  1  0  0  0
 14 26  1  0  0  0
 14 27  1  0  0  0
 14 28  1  0  0  0
 15 29  1  0  0  0
 15 30  1  0  0  0
 15 31  1  0  0  0
 16 17  1  0  0  0
 16 32  1  0  0  0
 16 33  1  0  0  0
 17 18  1  0  0  0
 17 19  1  0  0  0
 17 34  1  0  0  0
 18 35  1  0  0  0
 18 36  1  0  0  0
 18 37  1  0  0  0
 19 38  1  0  0  0
 19 39  1  0  0  0
 19 40  1  0  0  0
 20 41  1  0  0  0
 20 42  1  0  0  0
M  END
>  <ACTIVITY>
6.49485

>  <set_rl>
1

>  <Min_dist>
999.9

>  <Avg_dist>
999.9

>  <PC_uM>
0.082

>  <TG_uM>
0.028

>  <RL_uM>
0.32

$$$$
12-4C
  Cerius2 12110214553D 1   1.00000                          
 
 44 48  0  0  0  0  0  0  0  0999 V2000
   -4.6643    0.7106   -0.4976 N   0  0  0  0  0  0
   -4.8809   -0.5671   -0.7950 C   0  0  0  0  0  0
   -4.0135   -1.5282   -0.5484 N   0  0  0  0  0  0
   -2.8351   -1.2645    0.0305 C   0  0  0  0  0  0
   -2.5338    0.0762    0.3764 C   0  0  0  0  0  0
   -3.5360    1.1012    0.0781 C   0  0  0  0  0  0
   -3.3138    2.4258    0.3848 N   0  0  0  0  0  0
   -1.3727    0.3705    0.9526 N   0  0  0  0  0  0
   -0.5085   -0.5911    1.1983 C   0  0  0  0  0  0
   -0.8000   -1.9122    0.8599 C   0  0  0  0  0  0
   -1.9439   -2.2246    0.2887 N   0  0  0  0  0  0
    0.8092   -0.2614    1.8510 C   0  0  0  0  0  0
    1.8043    0.0382    0.8184 N   0  0  0  0  0  0
    1.9686    1.3482    0.3637 C   0  0  0  0  0  0
    2.6067    1.5954   -0.8428 C   0  0  0  0  0  0
    2.7670    2.9014   -1.2740 C   0  0  0  0  0  0
    2.2911    3.9508   -0.5116 C   0  0  0  0  0  0
    1.6508    3.7041    0.6889 C   0  0  0  0  0  0
    1.4889    2.4050    1.1281 C   0  0  0  0  0  0
    3.1226    0.4731   -1.6977 C   0  0  0  0  0  0
    3.2455   -0.8085   -0.9236 C   0  0  0  0  0  0
    2.5949   -0.9845    0.2904 C   0  0  0  0  0  0
    2.7215   -2.1833    0.9820 C   0  0  0  0  0  0
    3.4983   -3.2006    0.4637 C   0  0  0  0  0  0
    4.1489   -3.0241   -0.7436 C   0  0  0  0  0  0
    4.0272   -1.8321   -1.4316 C   0  0  0  0  0  0
   -6.0793   -0.9053   -1.3941 N   0  0  0  0  0  0
   -3.9893    3.0910    0.1798 H   0  0  0  0  0  0
   -2.4818    2.6932    0.8058 H   0  0  0  0  0  0
   -0.0786   -2.6882    1.0691 H   0  0  0  0  0  0
    0.6863    0.6059    2.4997 H   0  0  0  0  0  0
    1.1447   -1.1131    2.4427 H   0  0  0  0  0  0
    3.2667    3.1007   -2.2104 H   0  0  0  0  0  0
    2.4200    4.9669   -0.8541 H   0  0  0  0  0  0
    1.2782    4.5261    1.2821 H   0  0  0  0  0  0
    0.9896    2.2103    2.0657 H   0  0  0  0  0  0
    2.4387    0.3194   -2.5324 H   0  0  0  0  0  0
    4.1024    0.7466   -2.0893 H   0  0  0  0  0  0
    2.2127   -2.3192    1.9248 H   0  0  0  0  0  0
    3.5978   -4.1325    1.0006 H   0  0  0  0  0  0
    4.7579   -3.8189   -1.1482 H   0  0  0  0  0  0
    4.5380   -1.7011   -2.3742 H   0  0  0  0  0  0
   -6.7361   -0.2181   -1.5868 H   0  0  0  0  0  0
   -6.2637   -1.8300   -1.6219 H   0  0  0  0  0  0
  1  2  1  0  0  0
  1  6  2  0  0  0
  2  3  2  0  0  0
  2 27  1  0  0  0
  3  4  1  0  0  0
  4  5  2  0  0  0
  4 11  1  0  0  0
  5  6  1  0  0  0
  5  8  1  0  0  0
  6  7  1  0  0  0
  7 28  1  0  0  0
  7 29  1  0  0  0
  8  9  2  0  0  0
  9 10  1  0  0  0
  9 12  1  0  0  0
 10 11  2  0  0  0
 10 30  1  0  0  0
 12 13  1  0  0  0
 12 31  1  0  0  0
 12 32  1  0  0  0
 13 14  1  0  0  0
 13 22  1  0  0  0
 14 15  1  0  0  0
 14 19  2  0  0  0
 15 16  2  0  0  0
 15 20  1  0  0  0
 16 17  1  0  0  0
 16 33  1  0  0  0
 17 18  2  0  0  0
 17 34  1  0  0  0
 18 19  1  0  0  0
 18 35  1  0  0  0
 19 36  1  0  0  0
 20 21  1  0  0  0
 20 37  1  0  0  0
 20 38  1  0  0  0
 21 22  1  0  0  0
 21 26  2  0  0  0
 22 23  2  0  0  0
 23 24  1  0  0  0
 23 39  1  0  0  0
 24 25  2  0  0  0
 24 40  1  0  0  0
 25 26  1  0  0  0
 25 41  1  0  0  0
 26 42  1  0  0  0
 27 43  1  0  0  0
 27 44  1  0  0  0
M  END
>  <ACTIVITY>
7.56864

>  <set_rl>
1

>  <Min_dist>
999.9

>  <Avg_dist>
999.9

>  <PC_uM>
0.042

>  <TG_uM>
0.029

>  <RL_uM>
0.027

$$$$
12-4A
  Cerius2 12110214553D 1   1.00000                          
 
 45 49  0  0  0  0  0  0  0  0999 V2000
   -5.2190   -0.3716   -0.4302 C   0  0  0  0  0  0
   -4.4323   -1.3791   -0.7522 N   0  0  0  0  0  0
   -3.1389   -1.3842   -0.4066 C   0  0  0  0  0  0
   -2.6251   -0.2793    0.3170 C   0  0  0  0  0  0
   -3.5459    0.8102    0.6462 C   0  0  0  0  0  0
   -4.8047    0.6951    0.2463 N   0  0  0  0  0  0
   -3.1192    1.9167    1.3472 N   0  0  0  0  0  0
   -1.3453   -0.2548    0.6751 N   0  0  0  0  0  0
   -0.5623   -1.2622    0.3528 C   0  0  0  0  0  0
   -1.0626   -2.3517   -0.3596 C   0  0  0  0  0  0
   -2.3267   -2.3957   -0.7232 N   0  0  0  0  0  0
    0.8893   -1.2381    0.7570 C   0  0  0  0  0  0
    1.6682   -0.5156   -0.2576 N   0  0  0  0  0  0
    3.0046   -0.7726    0.0085 C   0  0  0  0  0  0
    3.3436   -1.5688    1.2086 C   0  0  0  0  0  0
    4.5961   -1.8401    1.4949 C   0  0  0  0  0  0
    5.6728   -1.3507    0.6167 C   0  0  0  0  0  0
    5.3733   -0.6407   -0.4478 C   0  0  0  0  0  0
    3.9641   -0.3324   -0.7666 C   0  0  0  0  0  0
    3.6702    0.4761   -1.9561 C   0  0  0  0  0  0
    2.7545    1.3888   -2.0089 C   0  0  0  0  0  0
    1.8782    1.7480   -0.8874 C   0  0  0  0  0  0
    1.5449    3.1713   -0.6737 C   0  0  0  0  0  0
    0.7666    3.5282    0.3231 C   0  0  0  0  0  0
    0.2249    2.5021    1.2306 C   0  0  0  0  0  0
    0.5201    1.2368    1.0389 C   0  0  0  0  0  0
    1.3938    0.8327   -0.0851 C   0  0  0  0  0  0
   -6.5431   -0.4244   -0.8217 N   0  0  0  0  0  0
   -3.7234    2.6615    1.4925 H   0  0  0  0  0  0
   -2.2145    1.9510    1.6955 H   0  0  0  0  0  0
   -0.4049   -3.1691   -0.6158 H   0  0  0  0  0  0
    0.9903   -0.7351    1.7188 H   0  0  0  0  0  0
    1.2602   -2.2596    0.8405 H   0  0  0  0  0  0
    2.5558   -1.9289    1.8537 H   0  0  0  0  0  0
    4.8366   -2.4209    2.3731 H   0  0  0  0  0  0
    6.7041   -1.5741    0.8469 H   0  0  0  0  0  0
    6.1613   -0.2804   -1.0926 H   0  0  0  0  0  0
    4.2564    0.2971   -2.8453 H   0  0  0  0  0  0
    2.6269    1.9218   -2.9395 H   0  0  0  0  0  0
    1.9433    3.9222   -1.3398 H   0  0  0  0  0  0
    0.5254    4.5697    0.4766 H   0  0  0  0  0  0
   -0.4137    2.7898    2.0527 H   0  0  0  0  0  0
    0.1222    0.4861    1.7056 H   0  0  0  0  0  0
   -7.1443    0.3033   -0.5982 H   0  0  0  0  0  0
   -6.8715   -1.1891   -1.3199 H   0  0  0  0  0  0
  1  2  1  0  0  0
  1  6  2  0  0  0
  1 28  1  0  0  0
  2  3  2  0  0  0
  3  4  1  0  0  0
  3 11  1  0  0  0
  4  5  2  0  0  0
  4  8  1  0  0  0
  5  6  1  0  0  0
  5  7  1  0  0  0
  7 29  1  0  0  0
  7 30  1  0  0  0
  8  9  2  0  0  0
  9 10  1  0  0  0
  9 12  1  0  0  0
 10 11  2  0  0  0
 10 31  1  0  0  0
 12 13  1  0  0  0
 12 32  1  0  0  0
 12 33  1  0  0  0
 13 14  1  0  0  0
 13 27  1  0  0  0
 14 15  1  0  0  0
 14 19  2  0  0  0
 15 16  2  0  0  0
 15 34  1  0  0  0
 16 17  1  0  0  0
 16 35  1  0  0  0
 17 18  2  0  0  0
 17 36  1  0  0  0
 18 19  1  0  0  0
 18 37  1  0  0  0
 19 20  1  0  0  0
 20 21  2  0  0  0
 20 38  1  0  0  0
 21 22  1  0  0  0
 21 39  1  0  0  0
 22 23  1  0  0  0
 22 27  2  0  0  0
 23 24  2  0  0  0
 23 40  1  0  0  0
 24 25  1  0  0  0
 24 41  1  0  0  0
 25 26  2  0  0  0
 25 42  1  0  0  0
 26 27  1  0  0  0
 26 43  1  0  0  0
 28 44  1  0  0  0
 28 45  1  0  0  0
M  END
>  <ACTIVITY>
5.35655

>  <set_rl>
1

>  <Min_dist>
999.9

>  <Avg_dist>
999.9

>  <PC_uM>
0.21

>  <TG_uM>
0.043

>  <RL_uM>
4.4

$$$$
1-232965
  Cerius2 12110214553D 1   1.00000                          
 
 32 34  0  0  0  0  0  0  0  0999 V2000
   -4.5133    1.1757    0.0996 N   0  0  0  0  0  0
   -4.9400   -0.0803    0.1907 C   0  0  0  0  0  0
   -4.1439   -1.1269    0.1021 N   0  0  0  0  0  0
   -2.8268   -0.9796   -0.0896 C   0  0  0  0  0  0
   -2.2988    0.3310   -0.1965 C   0  0  0  0  0  0
   -3.2314    1.4547   -0.0902 C   0  0  0  0  0  0
   -2.7919    2.7570   -0.1848 N   0  0  0  0  0  0
   -0.9956    0.5105   -0.3865 N   0  0  0  0  0  0
   -0.2027   -0.5363   -0.4742 C   0  0  0  0  0  0
   -0.7172   -1.8282   -0.3697 C   0  0  0  0  0  0
   -2.0045   -2.0275   -0.1814 N   0  0  0  0  0  0
    1.2753   -0.3369   -0.6901 C   0  0  0  0  0  0
    2.1100   -0.2155    0.9159 S   0  0  0  0  0  0
    3.7737    0.0075    0.3800 C   0  0  0  0  0  0
    4.7930    0.1505    1.3137 C   0  0  0  0  0  0
    6.0956    0.3251    0.8900 C   0  0  0  0  0  0
    6.3863    0.3582   -0.4617 C   0  0  0  0  0  0
    5.3744    0.2167   -1.3938 C   0  0  0  0  0  0
    4.0704    0.0351   -0.9775 C   0  0  0  0  0  0
   -6.2898   -0.2999    0.3892 N   0  0  0  0  0  0
   -3.4244    3.4888   -0.1120 H   0  0  0  0  0  0
   -1.8500    2.9421   -0.3241 H   0  0  0  0  0  0
   -0.0514   -2.6753   -0.4441 H   0  0  0  0  0  0
    1.6787   -1.1831   -1.2462 H   0  0  0  0  0  0
    1.4394    0.5807   -1.2551 H   0  0  0  0  0  0
    4.5667    0.1254    2.3694 H   0  0  0  0  0  0
    6.8883    0.4363    1.6150 H   0  0  0  0  0  0
    7.4060    0.4953   -0.7902 H   0  0  0  0  0  0
    5.6050    0.2435   -2.4485 H   0  0  0  0  0  0
    3.2807   -0.0753   -1.7058 H   0  0  0  0  0  0
   -6.8985    0.4522    0.4585 H   0  0  0  0  0  0
   -6.6285   -1.2061    0.4594 H   0  0  0  0  0  0
  1  2  1  0  0  0
  1  6  2  0  0  0
  2  3  2  0  0  0
  2 20  1  0  0  0
  3  4  1  0  0  0
  4  5  2  0  0  0
  4 11  1  0  0  0
  5  6  1  0  0  0
  5  8  1  0  0  0
  6  7  1  0  0  0
  7 21  1  0  0  0
  7 22  1  0  0  0
  8  9  2  0  0  0
  9 10  1  0  0  0
  9 12  1  0  0  0
 10 11  2  0  0  0
 10 23  1  0  0  0
 12 13  1  0  0  0
 12 24  1  0  0  0
 12 25  1  0  0  0
 13 14  1  0  0  0
 14 15  1  0  0  0
 14 19  2  0  0  0
 15 16  2  0  0  0
 15 26  1  0  0  0
 16 17  1  0  0  0
 16 27  1  0  0  0
 17 18  2  0  0  0
 17 28  1  0  0  0
 18 19  1  0  0  0
 18 29  1  0  0  0
 19 30  1  0  0  0
 20 31  1  0  0  0
 20 32  1  0  0  0
M  END
>  <ACTIVITY>
3.60906

>  <set_rl>
1

>  <Min_dist>
999.9

>  <Avg_dist>
999.9

>  <PC_uM>
9.5

>  <TG_uM>
0.77

>  <RL_uM>
246

$$$$
1-235777
  Cerius2 12110214553D 1   1.00000                          
 
 39 42  0  0  0  0  0  0  0  0999 V2000
   -5.0410   -0.6785   -1.0977 N   0  0  0  0  0  0
   -5.4449   -0.6714    0.1691 C   0  0  0  0  0  0
   -4.6948   -0.2537    1.1691 N   0  0  0  0  0  0
   -3.4520    0.1986    0.9593 C   0  0  0  0  0  0
   -2.9524    0.2208   -0.3665 C   0  0  0  0  0  0
   -3.8312   -0.2556   -1.4364 C   0  0  0  0  0  0
   -3.4149   -0.2643   -2.7497 N   0  0  0  0  0  0
   -1.7229    0.6644   -0.6075 N   0  0  0  0  0  0
   -0.9761    1.0813    0.3927 C   0  0  0  0  0  0
   -1.4628    1.0616    1.6994 C   0  0  0  0  0  0
   -2.6774    0.6262    1.9593 N   0  0  0  0  0  0
    0.4186    1.5845    0.1235 C   0  0  0  0  0  0
    1.3640    0.4681    0.2012 N   0  0  0  0  0  0
    2.7227    0.6897   -0.0131 C   0  0  0  0  0  0
    3.1844    1.9571   -0.2988 C   0  0  0  0  0  0
    4.5393    2.1888   -0.5145 C   0  0  0  0  0  0
    5.4452    1.1740   -0.4504 C   0  0  0  0  0  0
    5.0161   -0.1325   -0.1619 C   0  0  0  0  0  0
    3.6399   -0.3802    0.0659 C   0  0  0  0  0  0
    3.2129   -1.6857    0.3549 C   0  0  0  0  0  0
    4.1242   -2.6957    0.4125 C   0  0  0  0  0  0
    5.4781   -2.4532    0.1891 C   0  0  0  0  0  0
    5.9286   -1.1993   -0.0889 C   0  0  0  0  0  0
   -6.7188   -1.1257    0.4521 N   0  0  0  0  0  0
   -4.0109   -0.5835   -3.4452 H   0  0  0  0  0  0
   -2.5259    0.0487   -2.9787 H   0  0  0  0  0  0
   -0.8357    1.4077    2.5076 H   0  0  0  0  0  0
    0.4595    2.0266   -0.8720 H   0  0  0  0  0  0
    0.6831    2.3370    0.8664 H   0  0  0  0  0  0
    1.0441   -0.4253    0.4019 H   0  0  0  0  0  0
    2.4864    2.7793   -0.3561 H   0  0  0  0  0  0
    4.8781    3.1898   -0.7368 H   0  0  0  0  0  0
    6.4927    1.3733   -0.6215 H   0  0  0  0  0  0
    2.1667   -1.8880    0.5309 H   0  0  0  0  0  0
    3.7930   -3.6992    0.6351 H   0  0  0  0  0  0
    6.1808   -3.2717    0.2410 H   0  0  0  0  0  0
    6.9808   -1.0262   -0.2602 H   0  0  0  0  0  0
   -7.2925   -1.4387   -0.2647 H   0  0  0  0  0  0
   -7.0394   -1.1316    1.3676 H   0  0  0  0  0  0
  1  2  1  0  0  0
  1  6  2  0  0  0
  2  3  2  0  0  0
  2 24  1  0  0  0
  3  4  1  0  0  0
  4  5  2  0  0  0
  4 11  1  0  0  0
  5  6  1  0  0  0
  5  8  1  0  0  0
  6  7  1  0  0  0
  7 25  1  0  0  0
  7 26  1  0  0  0
  8  9  2  0  0  0
  9 10  1  0  0  0
  9 12  1  0  0  0
 10 11  2  0  0  0
 10 27  1  0  0  0
 12 13  1  0  0  0
 12 28  1  0  0  0
 12 29  1  0  0  0
 13 14  1  0  0  0
 13 30  1  0  0  0
 14 15  1  0  0  0
 14 19  2  0  0  0
 15 16  2  0  0  0
 15 31  1  0  0  0
 16 17  1  0  0  0
 16 32  1  0  0  0
 17 18  2  0  0  0
 17 33  1  0  0  0
 18 19  1  0  0  0
 18 23  1  0  0  0
 19 20  1  0  0  0
 20 21  2  0  0  0
 20 34  1  0  0  0
 21 22  1  0  0  0
 21 35  1  0  0  0
 22 23  2  0  0  0
 22 36  1  0  0  0
 23 37  1  0  0  0
 24 38  1  0  0  0
 24 39  1  0  0  0
M  END
>  <ACTIVITY>
5.89963

>  <set_rl>
1

>  <Min_dist>
999.9

>  <Avg_dist>
999.9

>  <PC_uM>
0.13

>  <TG_uM>
0.076

>  <RL_uM>
1.26

$$$$
12-4D
  Cerius2 12110214553D 1   1.00000                          
 
 42 46  0  0  0  0  0  0  0  0999 V2000
   -4.7003    0.7614   -0.5146 N   0  0  0  0  0  0
   -4.9294   -0.5113   -0.8237 C   0  0  0  0  0  0
   -4.0775   -1.4852   -0.5731 N   0  0  0  0  0  0
   -2.9033   -1.2406    0.0224 C   0  0  0  0  0  0
   -2.5892    0.0937    0.3814 C   0  0  0  0  0  0
   -3.5744    1.1335    0.0779 C   0  0  0  0  0  0
   -3.3393    2.4530    0.3968 N   0  0  0  0  0  0
   -1.4319    0.3690    0.9742 N   0  0  0  0  0  0
   -0.5831   -0.6053    1.2238 C   0  0  0  0  0  0
   -0.8872   -1.9201    0.8725 C   0  0  0  0  0  0
   -2.0276   -2.2138    0.2848 N   0  0  0  0  0  0
    0.7304   -0.2970    1.8952 C   0  0  0  0  0  0
    1.7421   -0.0030    0.8773 N   0  0  0  0  0  0
    1.9688    1.3004    0.3975 C   0  0  0  0  0  0
    2.6691    1.4646   -0.7936 C   0  0  0  0  0  0
    2.9099    2.7581   -1.2491 C   0  0  0  0  0  0
    2.4479    3.8487   -0.5384 C   0  0  0  0  0  0
    1.7408    3.6728    0.6355 C   0  0  0  0  0  0
    1.5017    2.3926    1.1053 C   0  0  0  0  0  0
    3.1046    0.4315   -1.5399 O   0  0  0  0  0  0
    3.2196   -0.7363   -0.8790 C   0  0  0  0  0  0
    2.5574   -1.0041    0.3169 C   0  0  0  0  0  0
    2.6908   -2.2281    0.9463 C   0  0  0  0  0  0
    3.5024   -3.2037    0.3928 C   0  0  0  0  0  0
    4.1741   -2.9452   -0.7866 C   0  0  0  0  0  0
    4.0417   -1.7233   -1.4167 C   0  0  0  0  0  0
   -6.1244   -0.8300   -1.4401 N   0  0  0  0  0  0
   -4.0036    3.1282    0.1880 H   0  0  0  0  0  0
   -2.5093    2.7067    0.8300 H   0  0  0  0  0  0
   -0.1784   -2.7067    1.0852 H   0  0  0  0  0  0
    0.6104    0.5673    2.5485 H   0  0  0  0  0  0
    1.0476   -1.1570    2.4850 H   0  0  0  0  0  0
    3.4622    2.9098   -2.1646 H   0  0  0  0  0  0
    2.6412    4.8467   -0.9030 H   0  0  0  0  0  0
    1.3770    4.5292    1.1838 H   0  0  0  0  0  0
    0.9512    2.2473    2.0230 H   0  0  0  0  0  0
    2.1630   -2.4225    1.8683 H   0  0  0  0  0  0
    3.6101   -4.1614    0.8804 H   0  0  0  0  0  0
    4.8116   -3.7031   -1.2174 H   0  0  0  0  0  0
    4.5727   -1.5350   -2.3381 H   0  0  0  0  0  0
   -6.7700   -0.1330   -1.6361 H   0  0  0  0  0  0
   -6.3177   -1.7506   -1.6767 H   0  0  0  0  0  0
  1  2  1  0  0  0
  1  6  2  0  0  0
  2  3  2  0  0  0
  2 27  1  0  0  0
  3  4  1  0  0  0
  4  5  2  0  0  0
  4 11  1  0  0  0
  5  6  1  0  0  0
  5  8  1  0  0  0
  6  7  1  0  0  0
  7 28  1  0  0  0
  7 29  1  0  0  0
  8  9  2  0  0  0
  9 10  1  0  0  0
  9 12  1  0  0  0
 10 11  2  0  0  0
 10 30  1  0  0  0
 12 13  1  0  0  0
 12 31  1  0  0  0
 12 32  1  0  0  0
 13 14  1  0  0  0
 13 22  1  0  0  0
 14 15  1  0  0  0
 14 19  2  0  0  0
 15 16  2  0  0  0
 15 20  1  0  0  0
 16 17  1  0  0  0
 16 33  1  0  0  0
 17 18  2  0  0  0
 17 34  1  0  0  0
 18 19  1  0  0  0
 18 35  1  0  0  0
 19 36  1  0  0  0
 20 21  1  0  0  0
 21 22  1  0  0  0
 21 26  2  0  0  0
 22 23  2  0  0  0
 23 24  1  0  0  0
 23 37  1  0  0  0
 24 25  2  0  0  0
 24 38  1  0  0  0
 25 26  1  0  0  0
 25 39  1  0  0  0
 26 40  1  0  0  0
 27 41  1  0  0  0
 27 42  1  0  0  0
M  END
>  <ACTIVITY>
4.88606

>  <set_rl>
1

>  <Min_dist>
999.9

>  <Avg_dist>
999.9

>  <PC_uM>
3.4

>  <TG_uM>
2.2

>  <RL_uM>
13

$$$$
12-4B
  Cerius2 12110214553D 1   1.00000                          
 
 47 51  0  0  0  0  0  0  0  0999 V2000
    4.5764   -0.8690   -0.4609 N   0  0  0  0  0  0
    4.9005    0.4188   -0.5279 C   0  0  0  0  0  0
    4.1017    1.3909   -0.1355 N   0  0  0  0  0  0
    2.8879    1.1288    0.3654 C   0  0  0  0  0  0
    2.4729   -0.2222    0.4676 C   0  0  0  0  0  0
    3.4027   -1.2592    0.0160 C   0  0  0  0  0  0
    3.0692   -2.5941    0.0839 N   0  0  0  0  0  0
    1.2740   -0.5151    0.9610 N   0  0  0  0  0  0
    0.4784    0.4574    1.3525 C   0  0  0  0  0  0
    0.8819    1.7887    1.2542 C   0  0  0  0  0  0
    2.0649    2.1000    0.7685 N   0  0  0  0  0  0
   -0.8818    0.1293    1.9120 C   0  0  0  0  0  0
   -1.8370   -0.0288    0.8125 N   0  0  0  0  0  0
   -2.4518    1.1094    0.3006 C   0  0  0  0  0  0
   -2.1630    1.4620   -0.9921 C   0  0  0  0  0  0
   -2.7258    2.6039   -1.5381 C   0  0  0  0  0  0
   -3.5907    3.3698   -0.7766 C   0  0  0  0  0  0
   -3.8944    3.0021    0.5213 C   0  0  0  0  0  0
   -3.3242    1.8671    1.0698 C   0  0  0  0  0  0
   -1.2618    0.5973   -1.8214 C   0  0  0  0  0  0
   -1.9008   -0.7218   -2.1794 C   0  0  0  0  0  0
   -2.1517   -1.6336   -1.0044 C   0  0  0  0  0  0
   -2.0810   -1.3076    0.3273 C   0  0  0  0  0  0
   -2.2939   -2.2914    1.3006 C   0  0  0  0  0  0
   -2.6080   -3.5828    0.9431 C   0  0  0  0  0  0
   -2.7113   -3.9080   -0.3971 C   0  0  0  0  0  0
   -2.4790   -2.9469   -1.3544 C   0  0  0  0  0  0
    6.1408    0.7557   -1.0354 N   0  0  0  0  0  0
    3.6981   -3.2672   -0.2199 H   0  0  0  0  0  0
    2.2055   -2.8609    0.4356 H   0  0  0  0  0  0
    0.2156    2.5736    1.5804 H   0  0  0  0  0  0
   -0.8264   -0.7985    2.4813 H   0  0  0  0  0  0
   -1.2105    0.9375    2.5654 H   0  0  0  0  0  0
   -2.4913    2.8942   -2.5516 H   0  0  0  0  0  0
   -4.0318    4.2605   -1.1989 H   0  0  0  0  0  0
   -4.5760    3.6011    1.1070 H   0  0  0  0  0  0
   -3.5557    1.5738    2.0831 H   0  0  0  0  0  0
   -1.0098    1.1282   -2.7394 H   0  0  0  0  0  0
   -0.3451    0.4057   -1.2636 H   0  0  0  0  0  0
   -2.8528   -0.5224   -2.6715 H   0  0  0  0  0  0
   -1.2523   -1.2394   -2.8862 H   0  0  0  0  0  0
   -2.2101   -2.0335    2.3460 H   0  0  0  0  0  0
   -2.7718   -4.3344    1.7011 H   0  0  0  0  0  0
   -2.9703   -4.9144   -0.6912 H   0  0  0  0  0  0
   -2.5582   -3.2115   -2.3985 H   0  0  0  0  0  0
    6.7489    0.0604   -1.3314 H   0  0  0  0  0  0
    6.4032    1.6876   -1.0958 H   0  0  0  0  0  0
  1  2  1  0  0  0
  1  6  2  0  0  0
  2  3  2  0  0  0
  2 28  1  0  0  0
  3  4  1  0  0  0
  4  5  2  0  0  0
  4 11  1  0  0  0
  5  6  1  0  0  0
  5  8  1  0  0  0
  6  7  1  0  0  0
  7 29  1  0  0  0
  7 30  1  0  0  0
  8  9  2  0  0  0
  9 10  1  0  0  0
  9 12  1  0  0  0
 10 11  2  0  0  0
 10 31  1  0  0  0
 12 13  1  0  0  0
 12 32  1  0  0  0
 12 33  1  0  0  0
 13 14  1  0  0  0
 13 23  1  0  0  0
 14 15  1  0  0  0
 14 19  2  0  0  0
 15 16  2  0  0  0
 15 20  1  0  0  0
 16 17  1  0  0  0
 16 34  1  0  0  0
 17 18  2  0  0  0
 17 35  1  0  0  0
 18 19  1  0  0  0
 18 36  1  0  0  0
 19 37  1  0  0  0
 20 21  1  0  0  0
 20 38  1  0  0  0
 20 39  1  0  0  0
 21 22  1  0  0  0
 21 40  1  0  0  0
 21 41  1  0  0  0
 22 23  1  0  0  0
 22 27  2  0  0  0
 23 24  2  0  0  0
 24 25  1  0  0  0
 24 42  1  0  0  0
 25 26  2  0  0  0
 25 43  1  0  0  0
 26 27  1  0  0  0
 26 44  1  0  0  0
 27 45  1  0  0  0
 28 46  1  0  0  0
 28 47  1  0  0  0
M  END
>  <ACTIVITY>
5.29243

>  <set_rl>
1

>  <Min_dist>
999.9

>  <Avg_dist>
999.9

>  <PC_uM>
1.4

>  <TG_uM>
0.91

>  <RL_uM>
5.1

$$$$
1-122870
  Cerius2 12110214553D 1   1.00000                          
 
 55 57  0  0  0  0  0  0  0  0999 V2000
   -8.0686   -0.8776   -0.4678 N   0  0  0  0  0  0
   -8.5497    0.2844   -0.0342 C   0  0  0  0  0  0
   -7.7770    1.3143    0.2532 N   0  0  0  0  0  0
   -6.4457    1.2239    0.1150 C   0  0  0  0  0  0
   -5.8891    0.0056   -0.3438 C   0  0  0  0  0  0
   -6.7685   -1.0669   -0.6371 C   0  0  0  0  0  0
   -6.2830   -2.2762   -1.0865 N   0  0  0  0  0  0
   -4.5031   -0.1094   -0.4948 C   0  0  0  0  0  0
   -3.7039    0.9555   -0.1976 C   0  0  0  0  0  0
   -4.2489    2.1541    0.2535 C   0  0  0  0  0  0
   -5.5955    2.2982    0.4107 C   0  0  0  0  0  0
   -2.2107    0.8323   -0.3596 C   0  0  0  0  0  0
   -1.6680    0.0110    0.7254 N   0  0  0  0  0  0
   -0.3037   -0.2512    0.7833 C   0  0  0  0  0  0
    0.2105   -1.0318    1.8150 C   0  0  0  0  0  0
    1.5603   -1.2930    1.8750 C   0  0  0  0  0  0
    2.4153   -0.7737    0.8985 C   0  0  0  0  0  0
    1.8959    0.0098   -0.1362 C   0  0  0  0  0  0
    0.5445    0.2628   -0.1938 C   0  0  0  0  0  0
    3.8628   -1.0514    0.9602 C   0  0  0  0  0  0
    4.3134   -1.7328    1.8609 O   0  0  0  0  0  0
    4.6859   -0.5500    0.0181 N   0  0  0  0  0  0
    6.1234   -0.8259    0.0793 C   0  0  0  0  0  0
    6.4259   -2.0876   -0.6873 C   0  0  0  0  0  0
    5.7344   -2.4020   -1.6415 O   0  0  0  0  0  0
    7.3622   -2.7944   -0.3534 O   0  5  0  0  0  0
    6.8938    0.3430   -0.5381 C   0  0  0  0  0  0
    6.5867    1.6240    0.2401 C   0  0  0  0  0  0
    7.3454    2.7753   -0.3679 C   0  0  0  0  0  0
    7.2348    3.9449    0.1282 O   0  0  0  0  0  0
    8.0982    2.5800   -1.3787 O   0  5  0  0  0  0
   -3.8972   -1.4004   -0.9817 C   0  0  0  0  0  0
   -9.9174    0.4186    0.1213 N   0  0  0  0  0  0
   -5.4908   -2.6618   -0.6808 H   0  0  0  0  0  0
   -6.7336   -2.7416   -1.8085 H   0  0  0  0  0  0
   -3.5952    2.9828    0.4821 H   0  0  0  0  0  0
   -6.0045    3.2341    0.7616 H   0  0  0  0  0  0
   -1.9866    0.3629   -1.3175 H   0  0  0  0  0  0
   -1.7586    1.8235   -0.3260 H   0  0  0  0  0  0
   -2.2604   -0.3498    1.4035 H   0  0  0  0  0  0
   -0.4505   -1.4324    2.5692 H   0  0  0  0  0  0
    1.9586   -1.8984    2.6758 H   0  0  0  0  0  0
    2.5540    0.4127   -0.8918 H   0  0  0  0  0  0
    0.1425    0.8677   -0.9931 H   0  0  0  0  0  0
    4.3265   -0.0065   -0.7005 H   0  0  0  0  0  0
    6.4254   -0.9513    1.1191 H   0  0  0  0  0  0
    7.9633    0.1378   -0.4926 H   0  0  0  0  0  0
    6.5918    0.4684   -1.5779 H   0  0  0  0  0  0
    5.5171    1.8292    0.1946 H   0  0  0  0  0  0
    6.8886    1.4986    1.2800 H   0  0  0  0  0  0
   -3.7937   -2.0915   -0.1451 H   0  0  0  0  0  0
   -4.5439   -1.8421   -1.7399 H   0  0  0  0  0  0
   -2.9158   -1.2016   -1.4122 H   0  0  0  0  0  0
  -10.5043   -0.3258   -0.0845 H   0  0  0  0  0  0
  -10.2898    1.2571    0.4361 H   0  0  0  0  0  0
  1  2  1  0  0  0
  1  6  2  0  0  0
  2  3  2  0  0  0
  2 33  1  0  0  0
  3  4  1  0  0  0
  4  5  2  0  0  0
  4 11  1  0  0  0
  5  6  1  0  0  0
  5  8  1  0  0  0
  6  7  1  0  0  0
  7 34  1  0  0  0
  7 35  1  0  0  0
  8  9  2  0  0  0
  8 32  1  0  0  0
  9 10  1  0  0  0
  9 12  1  0  0  0
 10 11  2  0  0  0
 10 36  1  0  0  0
 11 37  1  0  0  0
 12 13  1  0  0  0
 12 38  1  0  0  0
 12 39  1  0  0  0
 13 14  1  0  0  0
 13 40  1  0  0  0
 14 15  1  0  0  0
 14 19  2  0  0  0
 15 16  2  0  0  0
 15 41  1  0  0  0
 16 17  1  0  0  0
 16 42  1  0  0  0
 17 18  2  0  0  0
 17 20  1  0  0  0
 18 19  1  0  0  0
 18 43  1  0  0  0
 19 44  1  0  0  0
 20 21  2  0  0  0
 20 22  1  0  0  0
 22 23  1  0  0  0
 22 45  1  0  0  0
 23 24  1  0  0  0
 23 27  1  0  0  0
 23 46  1  0  0  0
 24 25  2  0  0  0
 24 26  1  0  0  0
 27 28  1  0  0  0
 27 47  1  0  0  0
 27 48  1  0  0  0
 28 29  1  0  0  0
 28 49  1  0  0  0
 28 50  1  0  0  0
 29 30  2  0  0  0
 29 31  1  0  0  0
 32 51  1  0  0  0
 32 52  1  0  0  0
 32 53  1  0  0  0
 33 54  1  0  0  0
 33 55  1  0  0  0
M  CHG  2  26  -1  31  -1
M  END
>  <ACTIVITY>
9.80688

>  <set_rl>
1

>  <Min_dist>
999.9

>  <Avg_dist>
999.9

>  <PC_uM>
0.00042

>  <TG_uM>
0.00133

>  <RL_uM>
0.000156

$$$$
14-28
  Cerius2 12110214553D 1   1.00000                          
 
 43 45  0  0  0  0  0  0  0  0999 V2000
   -5.1662   -0.5994   -0.7703 N   0  0  0  0  0  0
   -5.6561   -0.1095    0.3652 C   0  0  0  0  0  0
   -4.9106    0.5259    1.2489 N   0  0  0  0  0  0
   -3.5994    0.7043    1.0281 C   0  0  0  0  0  0
   -3.0345    0.1988   -0.1678 C   0  0  0  0  0  0
   -3.8840   -0.4747   -1.0802 C   0  0  0  0  0  0
   -3.3891   -0.9871   -2.2602 N   0  0  0  0  0  0
   -1.6680    0.3741   -0.4169 C   0  0  0  0  0  0
   -0.8966    1.0315    0.4984 C   0  0  0  0  0  0
   -1.4509    1.5286    1.6737 C   0  0  0  0  0  0
   -2.7784    1.3747    1.9448 C   0  0  0  0  0  0
    0.5746    1.2207    0.2321 C   0  0  0  0  0  0
    1.2840   -0.0334    0.4969 N   0  0  0  0  0  0
    2.6721   -0.1006    0.3315 C   0  0  0  0  0  0
    3.3774    1.0195   -0.0829 C   0  0  0  0  0  0
    4.7525    0.9501   -0.2454 C   0  0  0  0  0  0
    5.4224   -0.2382    0.0058 C   0  0  0  0  0  0
    4.7213   -1.3562    0.4186 C   0  0  0  0  0  0
    3.3486   -1.2908    0.5884 C   0  0  0  0  0  0
    2.6596   -2.3916    0.9952 O   0  0  0  0  0  0
    3.6164   -3.4399    1.1611 C   0  0  0  0  0  0
    5.4449    2.0476   -0.6517 O   0  0  0  0  0  0
    6.8198    1.6650   -0.7243 C   0  0  0  0  0  0
   -0.9594   -0.2401   -1.8778 Cl  0  0  0  0  0  0
   -7.0037   -0.2726    0.6303 N   0  0  0  0  0  0
   -2.5410   -1.4578   -2.2667 H   0  0  0  0  0  0
   -3.8890   -0.8770   -3.0842 H   0  0  0  0  0  0
   -0.8201    2.0450    2.3821 H   0  0  0  0  0  0
   -3.1945    1.7659    2.8614 H   0  0  0  0  0  0
    0.7213    1.5084   -0.8089 H   0  0  0  0  0  0
    0.9641    2.0030    0.8836 H   0  0  0  0  0  0
    0.7916   -0.8173    0.7867 H   0  0  0  0  0  0
    2.8559    1.9447   -0.2792 H   0  0  0  0  0  0
    6.4936   -0.2904   -0.1217 H   0  0  0  0  0  0
    5.2455   -2.2802    0.6131 H   0  0  0  0  0  0
    3.1085   -4.3471    1.4881 H   0  0  0  0  0  0
    4.1189   -3.6267    0.2120 H   0  0  0  0  0  0
    4.3519   -3.1454    1.9097 H   0  0  0  0  0  0
    7.4174    2.5172   -1.0478 H   0  0  0  0  0  0
    7.1579    1.3362    0.2583 H   0  0  0  0  0  0
    6.9328    0.8498   -1.4390 H   0  0  0  0  0  0
   -7.5705   -0.7363   -0.0058 H   0  0  0  0  0  0
   -7.3821    0.0768    1.4523 H   0  0  0  0  0  0
  1  2  1  0  0  0
  1  6  2  0  0  0
  2  3  2  0  0  0
  2 25  1  0  0  0
  3  4  1  0  0  0
  4  5  2  0  0  0
  4 11  1  0  0  0
  5  6  1  0  0  0
  5  8  1  0  0  0
  6  7  1  0  0  0
  7 26  1  0  0  0
  7 27  1  0  0  0
  8  9  2  0  0  0
  8 24  1  0  0  0
  9 10  1  0  0  0
  9 12  1  0  0  0
 10 11  2  0  0  0
 10 28  1  0  0  0
 11 29  1  0  0  0
 12 13  1  0  0  0
 12 30  1  0  0  0
 12 31  1  0  0  0
 13 14  1  0  0  0
 13 32  1  0  0  0
 14 15  1  0  0  0
 14 19  2  0  0  0
 15 16  2  0  0  0
 15 33  1  0  0  0
 16 17  1  0  0  0
 16 22  1  0  0  0
 17 18  2  0  0  0
 17 34  1  0  0  0
 18 19  1  0  0  0
 18 35  1  0  0  0
 19 20  1  0  0  0
 20 21  1  0  0  0
 21 36  1  0  0  0
 21 37  1  0  0  0
 21 38  1  0  0  0
 22 23  1  0  0  0
 23 39  1  0  0  0
 23 40  1  0  0  0
 23 41  1  0  0  0
 25 42  1  0  0  0
 25 43  1  0  0  0
M  END
>  <ACTIVITY>
7.35655

>  <set_rl>
1

>  <Min_dist>
999.9

>  <Avg_dist>
999.9

>  <PC_uM>
0.051

>  <TG_uM>
0.03

>  <RL_uM>
0.044

$$$$
14-29
  Cerius2 12110214553D 1   1.00000                          
 
 47 49  0  0  0  0  0  0  0  0999 V2000
   -5.6957   -0.8322   -0.7711 N   0  0  0  0  0  0
   -6.2239   -0.3311    0.3423 C   0  0  0  0  0  0
   -5.5178    0.3524    1.2224 N   0  0  0  0  0  0
   -4.2096    0.5712    1.0208 C   0  0  0  0  0  0
   -3.6049    0.0556   -0.1510 C   0  0  0  0  0  0
   -4.4130   -0.6704   -1.0608 C   0  0  0  0  0  0
   -3.8783   -1.1948   -2.2179 N   0  0  0  0  0  0
   -2.2408    0.2725   -0.3798 C   0  0  0  0  0  0
   -1.5103    0.9798    0.5319 C   0  0  0  0  0  0
   -2.1037    1.4867    1.6836 C   0  0  0  0  0  0
   -3.4301    1.2931    1.9344 C   0  0  0  0  0  0
   -0.0418    1.2138    0.2874 C   0  0  0  0  0  0
    0.7056   -0.0074    0.5976 N   0  0  0  0  0  0
    2.0977   -0.0296    0.4599 C   0  0  0  0  0  0
    2.8057   -1.1870    0.7540 C   0  0  0  0  0  0
    4.1850   -1.2097    0.6178 C   0  0  0  0  0  0
    4.8591   -0.0735    0.1869 C   0  0  0  0  0  0
    4.1498    1.0847   -0.1072 C   0  0  0  0  0  0
    2.7700    1.1042    0.0240 C   0  0  0  0  0  0
    4.8087    2.1971   -0.5289 O   0  0  0  0  0  0
    3.8197    3.2054   -0.7464 C   0  0  0  0  0  0
    6.2143   -0.0949    0.0534 O   0  0  0  0  0  0
    6.4909   -0.5137   -1.2845 C   0  0  0  0  0  0
    4.8783   -2.3435    0.9063 O   0  0  0  0  0  0
    3.9198   -3.3207    1.3167 C   0  0  0  0  0  0
   -1.4837   -0.3532   -1.8112 Cl  0  0  0  0  0  0
   -7.5698   -0.5348    0.5871 N   0  0  0  0  0  0
   -3.0143   -1.6353   -2.1968 H   0  0  0  0  0  0
   -4.3660   -1.1235   -3.0534 H   0  0  0  0  0  0
   -1.5048    2.0429    2.3895 H   0  0  0  0  0  0
   -3.8768    1.6926    2.8329 H   0  0  0  0  0  0
    0.1147    1.4799   -0.7580 H   0  0  0  0  0  0
    0.3079    2.0257    0.9252 H   0  0  0  0  0  0
    0.2353   -0.8006    0.8983 H   0  0  0  0  0  0
    2.2817   -2.0699    1.0892 H   0  0  0  0  0  0
    2.2185    2.0042   -0.2049 H   0  0  0  0  0  0
    4.3030    4.1209   -1.0873 H   0  0  0  0  0  0
    3.1131    2.8641   -1.5029 H   0  0  0  0  0  0
    3.2885    3.4003    0.1853 H   0  0  0  0  0  0
    7.5693   -0.5462   -1.4395 H   0  0  0  0  0  0
    6.0702   -1.5057   -1.4491 H   0  0  0  0  0  0
    6.0441    0.1912   -1.9856 H   0  0  0  0  0  0
    4.4315   -4.2519    1.5596 H   0  0  0  0  0  0
    3.3861   -2.9593    2.1957 H   0  0  0  0  0  0
    3.2106   -3.4961    0.5077 H   0  0  0  0  0  0
   -8.1079   -1.0342   -0.0469 H   0  0  0  0  0  0
   -7.9756   -0.1782    1.3927 H   0  0  0  0  0  0
  1  2  1  0  0  0
  1  6  2  0  0  0
  2  3  2  0  0  0
  2 27  1  0  0  0
  3  4  1  0  0  0
  4  5  2  0  0  0
  4 11  1  0  0  0
  5  6  1  0  0  0
  5  8  1  0  0  0
  6  7  1  0  0  0
  7 28  1  0  0  0
  7 29  1  0  0  0
  8  9  2  0  0  0
  8 26  1  0  0  0
  9 10  1  0  0  0
  9 12  1  0  0  0
 10 11  2  0  0  0
 10 30  1  0  0  0
 11 31  1  0  0  0
 12 13  1  0  0  0
 12 32  1  0  0  0
 12 33  1  0  0  0
 13 14  1  0  0  0
 13 34  1  0  0  0
 14 15  1  0  0  0
 14 19  2  0  0  0
 15 16  2  0  0  0
 15 35  1  0  0  0
 16 17  1  0  0  0
 16 24  1  0  0  0
 17 18  2  0  0  0
 17 22  1  0  0  0
 18 19  1  0  0  0
 18 20  1  0  0  0
 19 36  1  0  0  0
 20 21  1  0  0  0
 21 37  1  0  0  0
 21 38  1  0  0  0
 21 39  1  0  0  0
 22 23  1  0  0  0
 23 40  1  0  0  0
 23 41  1  0  0  0
 23 42  1  0  0  0
 24 25  1  0  0  0
 25 43  1  0  0  0
 25 44  1  0  0  0
 25 45  1  0  0  0
 27 46  1  0  0  0
 27 47  1  0  0  0
M  END
>  <ACTIVITY>
8.22915

>  <set_rl>
1

>  <Min_dist>
999.9

>  <Avg_dist>
999.9

>  <PC_uM>
0.033

>  <TG_uM>
0.0052

>  <RL_uM>
0.0059

$$$$
9-16B
  Cerius2 12110214553D 1   1.00000                          
 
 35 37  0  0  0  0  0  0  0  0999 V2000
   -5.2016    1.2345    0.1605 N   0  0  0  0  0  0
   -5.6661    0.0061    0.3725 C   0  0  0  0  0  0
   -4.9028   -1.0675    0.3032 N   0  0  0  0  0  0
   -3.5987   -0.9558    0.0091 C   0  0  0  0  0  0
   -3.0605    0.3328   -0.2245 C   0  0  0  0  0  0
   -3.9287    1.4500   -0.1363 C   0  0  0  0  0  0
   -3.4603    2.7279   -0.3541 N   0  0  0  0  0  0
   -1.7030    0.4710   -0.5327 C   0  0  0  0  0  0
   -0.9134   -0.6391   -0.6044 C   0  0  0  0  0  0
   -1.4404   -1.9068   -0.3751 C   0  0  0  0  0  0
   -2.7590   -2.0750   -0.0723 C   0  0  0  0  0  0
    0.5490   -0.4910   -0.9368 C   0  0  0  0  0  0
    1.3161   -0.3213    0.2998 N   0  0  0  0  0  0
    2.7035   -0.1637    0.2452 C   0  0  0  0  0  0
    3.4320   -0.0027    1.4168 C   0  0  0  0  0  0
    4.8032    0.1528    1.3599 C   0  0  0  0  0  0
    5.4512    0.1484    0.1372 C   0  0  0  0  0  0
    4.7278   -0.0114   -1.0316 C   0  0  0  0  0  0
    3.3572   -0.1735   -0.9802 C   0  0  0  0  0  0
    7.1748    0.3441    0.0695 Cl  0  0  0  0  0  0
   -7.0055   -0.1519    0.6790 N   0  0  0  0  0  0
   -4.0651    3.4836   -0.2906 H   0  0  0  0  0  0
   -2.5258    2.8716   -0.5710 H   0  0  0  0  0  0
   -1.2831    1.4496   -0.7128 H   0  0  0  0  0  0
   -0.7948   -2.7703   -0.4378 H   0  0  0  0  0  0
   -3.1542   -3.0646    0.1031 H   0  0  0  0  0  0
    0.8949   -1.3827   -1.4595 H   0  0  0  0  0  0
    0.6900    0.3817   -1.5745 H   0  0  0  0  0  0
    0.8609   -0.3183    1.1563 H   0  0  0  0  0  0
    2.9268    0.0011    2.3713 H   0  0  0  0  0  0
    5.3701    0.2784    2.2705 H   0  0  0  0  0  0
    5.2360   -0.0137   -1.9845 H   0  0  0  0  0  0
    2.7932   -0.2985   -1.8927 H   0  0  0  0  0  0
   -7.5849    0.6239    0.7355 H   0  0  0  0  0  0
   -7.3654   -1.0387    0.8375 H   0  0  0  0  0  0
  1  2  1  0  0  0
  1  6  2  0  0  0
  2  3  2  0  0  0
  2 21  1  0  0  0
  3  4  1  0  0  0
  4  5  2  0  0  0
  4 11  1  0  0  0
  5  6  1  0  0  0
  5  8  1  0  0  0
  6  7  1  0  0  0
  7 22  1  0  0  0
  7 23  1  0  0  0
  8  9  2  0  0  0
  8 24  1  0  0  0
  9 10  1  0  0  0
  9 12  1  0  0  0
 10 11  2  0  0  0
 10 25  1  0  0  0
 11 26  1  0  0  0
 12 13  1  0  0  0
 12 27  1  0  0  0
 12 28  1  0  0  0
 13 14  1  0  0  0
 13 29  1  0  0  0
 14 15  1  0  0  0
 14 19  2  0  0  0
 15 16  2  0  0  0
 15 30  1  0  0  0
 16 17  1  0  0  0
 16 31  1  0  0  0
 17 18  2  0  0  0
 17 20  1  0  0  0
 18 19  1  0  0  0
 18 32  1  0  0  0
 19 33  1  0  0  0
 21 34  1  0  0  0
 21 35  1  0  0  0
M  END
>  <ACTIVITY>
7.13668

>  <set_rl>
1

>  <Min_dist>
999.9

>  <Avg_dist>
999.9

>  <PC_uM>
0.6

>  <TG_uM>
0.075

>  <RL_uM>
0.073

$$$$
16-11
  Cerius2 12110214553D 1   1.00000                          
 
 47 49  0  0  0  0  0  0  0  0999 V2000
   -6.3115   -0.0054   -1.2632 N   0  0  0  0  0  0
   -6.7684    0.2803   -0.0470 C   0  0  0  0  0  0
   -6.0186    0.1962    1.0352 N   0  0  0  0  0  0
   -4.7371   -0.1900    0.9452 C   0  0  0  0  0  0
   -4.2078   -0.5043   -0.3298 C   0  0  0  0  0  0
   -5.0605   -0.3957   -1.4571 C   0  0  0  0  0  0
   -4.5998   -0.6891   -2.7226 N   0  0  0  0  0  0
   -2.8737   -0.9091   -0.4454 C   0  0  0  0  0  0
   -2.0982   -0.9961    0.6735 C   0  0  0  0  0  0
   -2.6166   -0.6876    1.9279 C   0  0  0  0  0  0
   -3.9124   -0.2898    2.0739 C   0  0  0  0  0  0
   -0.6611   -1.4325    0.5499 C   0  0  0  0  0  0
    0.1901   -0.2579    0.3450 N   0  0  0  0  0  0
    1.5736   -0.4127    0.2015 C   0  0  0  0  0  0
    2.1392   -1.6797    0.2535 C   0  0  0  0  0  0
    3.5093   -1.8339    0.1115 C   0  0  0  0  0  0
    4.3173   -0.7200   -0.0834 C   0  0  0  0  0  0
    3.7511    0.5477   -0.1358 C   0  0  0  0  0  0
    2.3795    0.7003    0.0016 C   0  0  0  0  0  0
    1.6083    2.4254   -0.0696 Br  0  0  0  0  0  0
    4.5412    1.6383   -0.3259 O   0  0  0  0  0  0
    5.0065    2.0412    0.9637 C   0  0  0  0  0  0
    5.6636   -0.8710   -0.2224 O   0  0  0  0  0  0
    5.9185   -1.0377   -1.6186 C   0  0  0  0  0  0
    4.0629   -3.0750    0.1633 O   0  0  0  0  0  0
    2.9911   -3.9971    0.3710 C   0  0  0  0  0  0
   -8.0846    0.6829    0.0886 N   0  0  0  0  0  0
   -5.1939   -0.6106   -3.4854 H   0  0  0  0  0  0
   -3.6814   -0.9741   -2.8505 H   0  0  0  0  0  0
   -2.4608   -1.1513   -1.4135 H   0  0  0  0  0  0
   -1.9825   -0.7643    2.7988 H   0  0  0  0  0  0
   -4.3011   -0.0536    3.0535 H   0  0  0  0  0  0
   -0.3577   -1.9465    1.4620 H   0  0  0  0  0  0
   -0.5584   -2.1082   -0.2992 H   0  0  0  0  0  0
   -0.2053    0.6271    0.3087 H   0  0  0  0  0  0
    1.5114   -2.5453    0.4049 H   0  0  0  0  0  0
    5.5892    2.9576    0.8698 H   0  0  0  0  0  0
    4.1534    2.2187    1.6186 H   0  0  0  0  0  0
    5.6317    1.2548    1.3865 H   0  0  0  0  0  0
    6.9933   -1.1079   -1.7859 H   0  0  0  0  0  0
    5.4358   -1.9498   -1.9697 H   0  0  0  0  0  0
    5.5208   -0.1826   -2.1652 H   0  0  0  0  0  0
    3.3884   -5.0110    0.4196 H   0  0  0  0  0  0
    2.4842   -3.7602    1.3064 H   0  0  0  0  0  0
    2.2834   -3.9234   -0.4547 H   0  0  0  0  0  0
   -8.6537    0.7519   -0.6938 H   0  0  0  0  0  0
   -8.4386    0.8961    0.9662 H   0  0  0  0  0  0
  1  2  1  0  0  0
  1  6  2  0  0  0
  2  3  2  0  0  0
  2 27  1  0  0  0
  3  4  1  0  0  0
  4  5  2  0  0  0
  4 11  1  0  0  0
  5  6  1  0  0  0
  5  8  1  0  0  0
  6  7  1  0  0  0
  7 28  1  0  0  0
  7 29  1  0  0  0
  8  9  2  0  0  0
  8 30  1  0  0  0
  9 10  1  0  0  0
  9 12  1  0  0  0
 10 11  2  0  0  0
 10 31  1  0  0  0
 11 32  1  0  0  0
 12 13  1  0  0  0
 12 33  1  0  0  0
 12 34  1  0  0  0
 13 14  1  0  0  0
 13 35  1  0  0  0
 14 15  1  0  0  0
 14 19  2  0  0  0
 15 16  2  0  0  0
 15 36  1  0  0  0
 16 17  1  0  0  0
 16 25  1  0  0  0
 17 18  2  0  0  0
 17 23  1  0  0  0
 18 19  1  0  0  0
 18 21  1  0  0  0
 19 20  1  0  0  0
 21 22  1  0  0  0
 22 37  1  0  0  0
 22 38  1  0  0  0
 22 39  1  0  0  0
 23 24  1  0  0  0
 24 40  1  0  0  0
 24 41  1  0  0  0
 24 42  1  0  0  0
 25 26  1  0  0  0
 26 43  1  0  0  0
 26 44  1  0  0  0
 26 45  1  0  0  0
 27 46  1  0  0  0
 27 47  1  0  0  0
M  END
>  <ACTIVITY>
6.48149

>  <set_rl>
1

>  <Min_dist>
999.9

>  <Avg_dist>
999.9

>  <PC_uM>
0.55

>  <TG_uM>
0.039

>  <RL_uM>
0.33

$$$$
13-14
  Cerius2 12110214553D 1   1.00000                          
 
 47 49  0  0  0  0  0  0  0  0999 V2000
   -5.9742    0.0033   -0.7968 N   0  0  0  0  0  0
   -6.3263   -0.0004    0.4862 C   0  0  0  0  0  0
   -5.4460   -0.0038    1.4679 N   0  0  0  0  0  0
   -4.1300   -0.0037    1.2012 C   0  0  0  0  0  0
   -3.7097    0.0001   -0.1508 C   0  0  0  0  0  0
   -4.7013    0.0037   -1.1634 C   0  0  0  0  0  0
   -4.3498    0.0074   -2.4969 N   0  0  0  0  0  0
   -2.3430    0.0012   -0.4532 C   0  0  0  0  0  0
   -1.4220   -0.0014    0.5762 C   0  0  0  0  0  0
   -1.8447   -0.0052    1.9077 C   0  0  0  0  0  0
   -3.1706   -0.0069    2.2223 C   0  0  0  0  0  0
   -0.0534   -0.0008    0.2828 N   0  0  0  0  0  0
    0.9289   -0.0035    1.3697 C   0  0  0  0  0  0
    2.3198   -0.0022    0.7898 C   0  0  0  0  0  0
    2.9561    1.1966    0.5275 C   0  0  0  0  0  0
    4.2358    1.2022   -0.0065 C   0  0  0  0  0  0
    4.8788    0.0003   -0.2776 C   0  0  0  0  0  0
    4.2358   -1.2028   -0.0120 C   0  0  0  0  0  0
    2.9581   -1.1997    0.5268 C   0  0  0  0  0  0
    4.8607   -2.3816   -0.2760 O   0  0  0  0  0  0
    3.9557   -3.4218    0.0994 C   0  0  0  0  0  0
    6.1346    0.0016   -0.8021 O   0  0  0  0  0  0
    7.0430   -0.0007    0.3010 C   0  0  0  0  0  0
    4.8606    2.3822   -0.2650 O   0  0  0  0  0  0
    3.9554    3.4207    0.1147 C   0  0  0  0  0  0
   -1.8108    0.0052   -2.1056 Cl  0  0  0  0  0  0
   -7.6734   -0.0001    0.8039 N   0  0  0  0  0  0
   -3.6292    0.5780   -2.8069 H   0  0  0  0  0  0
   -4.8231   -0.5605   -3.1249 H   0  0  0  0  0  0
   -1.1099   -0.0075    2.6993 H   0  0  0  0  0  0
   -3.4812   -0.0099    3.2567 H   0  0  0  0  0  0
    0.2447    0.0015   -0.6403 H   0  0  0  0  0  0
    0.7913    0.8849    1.9860 H   0  0  0  0  0  0
    0.7912   -0.8950    1.9816 H   0  0  0  0  0  0
    2.4557    2.1302    0.7385 H   0  0  0  0  0  0
    2.4579   -2.1343    0.7338 H   0  0  0  0  0  0
    4.4153   -4.3909   -0.0950 H   0  0  0  0  0  0
    3.7238   -3.3361    1.1610 H   0  0  0  0  0  0
    3.0378   -3.3320   -0.4814 H   0  0  0  0  0  0
    8.0673    0.0002   -0.0717 H   0  0  0  0  0  0
    6.8772    0.8880    0.9100 H   0  0  0  0  0  0
    6.8774   -0.8920    0.9062 H   0  0  0  0  0  0
    4.4150    4.3906   -0.0752 H   0  0  0  0  0  0
    3.0377    3.3333   -0.4668 H   0  0  0  0  0  0
    3.7231    3.3302    1.1758 H   0  0  0  0  0  0
   -8.3382    0.0028    0.0976 H   0  0  0  0  0  0
   -7.9527   -0.0027    1.7328 H   0  0  0  0  0  0
  1  2  1  0  0  0
  1  6  2  0  0  0
  2  3  2  0  0  0
  2 27  1  0  0  0
  3  4  1  0  0  0
  4  5  2  0  0  0
  4 11  1  0  0  0
  5  6  1  0  0  0
  5  8  1  0  0  0
  6  7  1  0  0  0
  7 28  1  0  0  0
  7 29  1  0  0  0
  8  9  2  0  0  0
  8 26  1  0  0  0
  9 10  1  0  0  0
  9 12  1  0  0  0
 10 11  2  0  0  0
 10 30  1  0  0  0
 11 31  1  0  0  0
 12 13  1  0  0  0
 12 32  1  0  0  0
 13 14  1  0  0  0
 13 33  1  0  0  0
 13 34  1  0  0  0
 14 15  1  0  0  0
 14 19  2  0  0  0
 15 16  2  0  0  0
 15 35  1  0  0  0
 16 17  1  0  0  0
 16 24  1  0  0  0
 17 18  2  0  0  0
 17 22  1  0  0  0
 18 19  1  0  0  0
 18 20  1  0  0  0
 19 36  1  0  0  0
 20 21  1  0  0  0
 21 37  1  0  0  0
 21 38  1  0  0  0
 21 39  1  0  0  0
 22 23  1  0  0  0
 23 40  1  0  0  0
 23 41  1  0  0  0
 23 42  1  0  0  0
 24 25  1  0  0  0
 25 43  1  0  0  0
 25 44  1  0  0  0
 25 45  1  0  0  0
 27 46  1  0  0  0
 27 47  1  0  0  0
M  END
>  <ACTIVITY>
8.22185

>  <set_rl>
1

>  <Min_dist>
999.9

>  <Avg_dist>
999.9

>  <PC_uM>
0.033

>  <TG_uM>
0.007

>  <RL_uM>
0.006

$$$$
15-3
  Cerius2 12110214553D 1   1.00000                          
 
 43 45  0  0  0  0  0  0  0  0999 V2000
   -5.4920    0.0092   -1.1262 N   0  0  0  0  0  0
   -5.8587    0.2367    0.1323 C   0  0  0  0  0  0
   -4.9899    0.3883    1.1125 N   0  0  0  0  0  0
   -3.6714    0.3168    0.8697 C   0  0  0  0  0  0
   -3.2356    0.0762   -0.4555 C   0  0  0  0  0  0
   -4.2155   -0.0786   -1.4682 C   0  0  0  0  0  0
   -3.8487   -0.3152   -2.7764 N   0  0  0  0  0  0
   -1.8666   -0.0019   -0.7327 C   0  0  0  0  0  0
   -0.9580    0.1574    0.2937 C   0  0  0  0  0  0
   -1.3953    0.3948    1.6000 C   0  0  0  0  0  0
   -2.7237    0.4743    1.8903 C   0  0  0  0  0  0
    0.4124    0.0802    0.0247 N   0  0  0  0  0  0
    1.3824    0.2483    1.1095 C   0  0  0  0  0  0
    2.7788    0.1019    0.5620 C   0  0  0  0  0  0
    3.5548    1.2231    0.3399 C   0  0  0  0  0  0
    4.8399    1.0883   -0.1635 C   0  0  0  0  0  0
    5.3462   -0.1724   -0.4441 C   0  0  0  0  0  0
    4.5704   -1.2932   -0.2221 C   0  0  0  0  0  0
    3.2868   -1.1587    0.2864 C   0  0  0  0  0  0
    2.5231   -2.2623    0.5054 O   0  0  0  0  0  0
    3.3093   -3.3917    0.1200 C   0  0  0  0  0  0
    5.6036    2.1919   -0.3825 O   0  0  0  0  0  0
    6.8558    1.7325   -0.8952 C   0  0  0  0  0  0
   -7.2090    0.3180    0.4249 N   0  0  0  0  0  0
   -4.5293   -0.4193   -3.4597 H   0  0  0  0  0  0
   -2.9102   -0.3776   -3.0133 H   0  0  0  0  0  0
   -1.5240   -0.1855   -1.7404 H   0  0  0  0  0  0
   -0.6695    0.5165    2.3905 H   0  0  0  0  0  0
   -3.0461    0.6578    2.9046 H   0  0  0  0  0  0
    0.7204   -0.0847   -0.8802 H   0  0  0  0  0  0
    1.2669    1.2387    1.5500 H   0  0  0  0  0  0
    1.2098   -0.5109    1.8723 H   0  0  0  0  0  0
    3.1605    2.2046    0.5581 H   0  0  0  0  0  0
    6.3469   -0.2773   -0.8365 H   0  0  0  0  0  0
    4.9645   -2.2747   -0.4410 H   0  0  0  0  0  0
    2.7356   -4.3049    0.2786 H   0  0  0  0  0  0
    3.5742   -3.3074   -0.9339 H   0  0  0  0  0  0
    4.2177   -3.4243    0.7215 H   0  0  0  0  0  0
    7.5052    2.5867   -1.0871 H   0  0  0  0  0  0
    7.3276    1.0741   -0.1658 H   0  0  0  0  0  0
    6.6899    1.1864   -1.8238 H   0  0  0  0  0  0
   -7.8656    0.2098   -0.2809 H   0  0  0  0  0  0
   -7.4988    0.4832    1.3358 H   0  0  0  0  0  0
  1  2  1  0  0  0
  1  6  2  0  0  0
  2  3  2  0  0  0
  2 24  1  0  0  0
  3  4  1  0  0  0
  4  5  2  0  0  0
  4 11  1  0  0  0
  5  6  1  0  0  0
  5  8  1  0  0  0
  6  7  1  0  0  0
  7 25  1  0  0  0
  7 26  1  0  0  0
  8  9  2  0  0  0
  8 27  1  0  0  0
  9 10  1  0  0  0
  9 12  1  0  0  0
 10 11  2  0  0  0
 10 28  1  0  0  0
 11 29  1  0  0  0
 12 13  1  0  0  0
 12 30  1  0  0  0
 13 14  1  0  0  0
 13 31  1  0  0  0
 13 32  1  0  0  0
 14 15  1  0  0  0
 14 19  2  0  0  0
 15 16  2  0  0  0
 15 33  1  0  0  0
 16 17  1  0  0  0
 16 22  1  0  0  0
 17 18  2  0  0  0
 17 34  1  0  0  0
 18 19  1  0  0  0
 18 35  1  0  0  0
 19 20  1  0  0  0
 20 21  1  0  0  0
 21 36  1  0  0  0
 21 37  1  0  0  0
 21 38  1  0  0  0
 22 23  1  0  0  0
 23 39  1  0  0  0
 23 40  1  0  0  0
 23 41  1  0  0  0
 24 42  1  0  0  0
 24 43  1  0  0  0
M  END
>  <ACTIVITY>
5.95861

>  <set_rl>
1

>  <Min_dist>
999.9

>  <Avg_dist>
999.9

>  <PC_uM>
4.6

>  <TG_uM>
0.16

>  <RL_uM>
1.1

$$$$
15-11
  Cerius2 12110214553D 1   1.00000                          
 
 46 48  0  0  0  0  0  0  0  0999 V2000
   -5.2019   -0.4595   -0.1867 N   0  0  0  0  0  0
   -5.0916   -0.3789    1.1368 C   0  0  0  0  0  0
   -3.9762   -0.0160    1.7391 N   0  0  0  0  0  0
   -2.8847    0.2927    1.0208 C   0  0  0  0  0  0
   -2.9565    0.2206   -0.3911 C   0  0  0  0  0  0
   -4.1822   -0.1756   -0.9829 C   0  0  0  0  0  0
   -4.3097   -0.2637   -2.3534 N   0  0  0  0  0  0
   -1.8321    0.5380   -1.1606 C   0  0  0  0  0  0
   -0.6654    0.9181   -0.5293 C   0  0  0  0  0  0
   -0.6014    0.9871    0.8654 C   0  0  0  0  0  0
   -1.6851    0.6821    1.6322 C   0  0  0  0  0  0
    0.4633    1.2366   -1.2916 N   0  0  0  0  0  0
    1.6651    1.7599   -0.6375 C   0  0  0  0  0  0
    2.5635    0.6148   -0.2468 C   0  0  0  0  0  0
    2.1863   -0.6849   -0.5246 C   0  0  0  0  0  0
    3.0132   -1.7387   -0.1655 C   0  0  0  0  0  0
    4.2190   -1.4877    0.4727 C   0  0  0  0  0  0
    4.5961   -0.1884    0.7504 C   0  0  0  0  0  0
    3.7714    0.8660    0.3865 C   0  0  0  0  0  0
    4.1428    2.1453    0.6595 O   0  0  0  0  0  0
    5.4105    2.0762    1.3154 C   0  0  0  0  0  0
    2.6418   -3.0180   -0.4385 O   0  0  0  0  0  0
    3.6866   -3.8638    0.0462 C   0  0  0  0  0  0
    0.4435    1.0468   -2.7441 C   0  0  0  0  0  0
   -6.1942   -0.6884    1.9139 N   0  0  0  0  0  0
   -5.1541   -0.5361   -2.7454 H   0  0  0  0  0  0
   -3.5549   -0.0533   -2.9251 H   0  0  0  0  0  0
   -1.8767    0.4858   -2.2384 H   0  0  0  0  0  0
    0.3205    1.2863    1.3418 H   0  0  0  0  0  0
   -1.6200    0.7398    2.7087 H   0  0  0  0  0  0
    2.1950    2.4192   -1.3250 H   0  0  0  0  0  0
    1.3797    2.3183    0.2540 H   0  0  0  0  0  0
    1.2473   -0.8803   -1.0211 H   0  0  0  0  0  0
    4.8629   -2.3084    0.7527 H   0  0  0  0  0  0
    5.5347    0.0069    1.2476 H   0  0  0  0  0  0
    5.7508    3.0836    1.5553 H   0  0  0  0  0  0
    5.3133    1.4972    2.2338 H   0  0  0  0  0  0
    6.1343    1.5952    0.6575 H   0  0  0  0  0  0
    3.4322   -4.9051   -0.1513 H   0  0  0  0  0  0
    4.6194   -3.6154   -0.4599 H   0  0  0  0  0  0
    3.8051   -3.7161    1.1196 H   0  0  0  0  0  0
   -0.5541    0.7385   -3.0567 H   0  0  0  0  0  0
    0.7053    1.9834   -3.2365 H   0  0  0  0  0  0
    1.1647    0.2774   -3.0198 H   0  0  0  0  0  0
   -7.0250   -0.9573    1.4917 H   0  0  0  0  0  0
   -6.1361   -0.6363    2.8808 H   0  0  0  0  0  0
  1  2  1  0  0  0
  1  6  2  0  0  0
  2  3  2  0  0  0
  2 25  1  0  0  0
  3  4  1  0  0  0
  4  5  2  0  0  0
  4 11  1  0  0  0
  5  6  1  0  0  0
  5  8  1  0  0  0
  6  7  1  0  0  0
  7 26  1  0  0  0
  7 27  1  0  0  0
  8  9  2  0  0  0
  8 28  1  0  0  0
  9 10  1  0  0  0
  9 12  1  0  0  0
 10 11  2  0  0  0
 10 29  1  0  0  0
 11 30  1  0  0  0
 12 13  1  0  0  0
 12 24  1  0  0  0
 13 14  1  0  0  0
 13 31  1  0  0  0
 13 32  1  0  0  0
 14 15  1  0  0  0
 14 19  2  0  0  0
 15 16  2  0  0  0
 15 33  1  0  0  0
 16 17  1  0  0  0
 16 22  1  0  0  0
 17 18  2  0  0  0
 17 34  1  0  0  0
 18 19  1  0  0  0
 18 35  1  0  0  0
 19 20  1  0  0  0
 20 21  1  0  0  0
 21 36  1  0  0  0
 21 37  1  0  0  0
 21 38  1  0  0  0
 22 23  1  0  0  0
 23 39  1  0  0  0
 23 40  1  0  0  0
 23 41  1  0  0  0
 24 42  1  0  0  0
 24 43  1  0  0  0
 24 44  1  0  0  0
 25 45  1  0  0  0
 25 46  1  0  0  0
M  END
>  <ACTIVITY>
7.58503

>  <set_rl>
1

>  <Min_dist>
999.9

>  <Avg_dist>
999.9

>  <PC_uM>
0.087

>  <TG_uM>
0.03

>  <RL_uM>
0.026

$$$$
15-5
  Cerius2 12110214553D 1   1.00000                          
 
 43 45  0  0  0  0  0  0  0  0999 V2000
   -5.5346    1.0216    0.5865 N   0  0  0  0  0  0
   -5.9295   -0.1208    0.0305 C   0  0  0  0  0  0
   -5.0830   -1.0412   -0.3874 N   0  0  0  0  0  0
   -3.7592   -0.8540   -0.2639 C   0  0  0  0  0  0
   -3.2937    0.3476    0.3222 C   0  0  0  0  0  0
   -4.2506    1.3007    0.7529 C   0  0  0  0  0  0
   -3.8545    2.4889    1.3302 N   0  0  0  0  0  0
   -1.9187    0.5647    0.4618 C   0  0  0  0  0  0
   -1.0335   -0.3994    0.0245 C   0  0  0  0  0  0
   -1.5001   -1.5836   -0.5533 C   0  0  0  0  0  0
   -2.8347   -1.8138   -0.6981 C   0  0  0  0  0  0
    0.3427   -0.1895    0.1602 N   0  0  0  0  0  0
    1.2881   -1.2088   -0.3018 C   0  0  0  0  0  0
    2.6975   -0.7330   -0.0602 C   0  0  0  0  0  0
    3.4215   -1.2320    1.0060 C   0  0  0  0  0  0
    4.7139   -0.7982    1.2298 C   0  0  0  0  0  0
    5.2884    0.1404    0.3840 C   0  0  0  0  0  0
    4.5643    0.6424   -0.6861 C   0  0  0  0  0  0
    3.2692    0.2015   -0.9117 C   0  0  0  0  0  0
    2.5570    0.6915   -1.9603 O   0  0  0  0  0  0
    3.4019    1.6281   -2.6318 C   0  0  0  0  0  0
    6.5595    0.5671    0.6049 O   0  0  0  0  0  0
    7.0315   -0.1234    1.7636 C   0  0  0  0  0  0
   -7.2862   -0.3530   -0.1148 N   0  0  0  0  0  0
   -4.5196    3.1325    1.6206 H   0  0  0  0  0  0
   -2.9107    2.6810    1.4460 H   0  0  0  0  0  0
   -1.5535    1.4783    0.9073 H   0  0  0  0  0  0
   -0.7922   -2.3266   -0.8900 H   0  0  0  0  0  0
   -3.1798   -2.7336   -1.1468 H   0  0  0  0  0  0
    0.6711    0.6308    0.5603 H   0  0  0  0  0  0
    1.1189   -2.1361    0.2454 H   0  0  0  0  0  0
    1.1415   -1.3839   -1.3676 H   0  0  0  0  0  0
    2.9760   -1.9621    1.6655 H   0  0  0  0  0  0
    5.2775   -1.1894    2.0639 H   0  0  0  0  0  0
    5.0095    1.3731   -1.3452 H   0  0  0  0  0  0
    2.8707    2.0499   -3.4850 H   0  0  0  0  0  0
    3.6772    2.4274   -1.9438 H   0  0  0  0  0  0
    4.3023    1.1212   -2.9789 H   0  0  0  0  0  0
    8.0531    0.1880    1.9812 H   0  0  0  0  0  0
    6.3909    0.1127    2.6133 H   0  0  0  0  0  0
    7.0104   -1.1977    1.5801 H   0  0  0  0  0  0
   -7.9268    0.3104    0.1860 H   0  0  0  0  0  0
   -7.5964   -1.1791   -0.5175 H   0  0  0  0  0  0
  1  2  1  0  0  0
  1  6  2  0  0  0
  2  3  2  0  0  0
  2 24  1  0  0  0
  3  4  1  0  0  0
  4  5  2  0  0  0
  4 11  1  0  0  0
  5  6  1  0  0  0
  5  8  1  0  0  0
  6  7  1  0  0  0
  7 25  1  0  0  0
  7 26  1  0  0  0
  8  9  2  0  0  0
  8 27  1  0  0  0
  9 10  1  0  0  0
  9 12  1  0  0  0
 10 11  2  0  0  0
 10 28  1  0  0  0
 11 29  1  0  0  0
 12 13  1  0  0  0
 12 30  1  0  0  0
 13 14  1  0  0  0
 13 31  1  0  0  0
 13 32  1  0  0  0
 14 15  1  0  0  0
 14 19  2  0  0  0
 15 16  2  0  0  0
 15 33  1  0  0  0
 16 17  1  0  0  0
 16 34  1  0  0  0
 17 18  2  0  0  0
 17 22  1  0  0  0
 18 19  1  0  0  0
 18 35  1  0  0  0
 19 20  1  0  0  0
 20 21  1  0  0  0
 21 36  1  0  0  0
 21 37  1  0  0  0
 21 38  1  0  0  0
 22 23  1  0  0  0
 23 39  1  0  0  0
 23 40  1  0  0  0
 23 41  1  0  0  0
 24 42  1  0  0  0
 24 43  1  0  0  0
M  END
>  <ACTIVITY>
5.92082

>  <set_rl>
1

>  <Min_dist>
999.9

>  <Avg_dist>
999.9

>  <PC_uM>
4.4

>  <TG_uM>
0.17

>  <RL_uM>
1.2

$$$$
15-6
  Cerius2 12110214553D 1   1.00000                          
 
 47 49  0  0  0  0  0  0  0  0999 V2000
   -6.1244    0.0015   -1.1348 N   0  0  0  0  0  0
   -6.5044   -0.0003    0.1402 C   0  0  0  0  0  0
   -5.6458   -0.0019    1.1408 N   0  0  0  0  0  0
   -4.3244   -0.0017    0.9031 C   0  0  0  0  0  0
   -3.8745    0.0003   -0.4391 C   0  0  0  0  0  0
   -4.8439    0.0019   -1.4735 C   0  0  0  0  0  0
   -4.4633    0.0033   -2.7991 N   0  0  0  0  0  0
   -2.5023    0.0010   -0.7115 C   0  0  0  0  0  0
   -1.6044   -0.0002    0.3364 C   0  0  0  0  0  0
   -2.0555   -0.0021    1.6595 C   0  0  0  0  0  0
   -3.3873   -0.0029    1.9454 C   0  0  0  0  0  0
   -0.2308    0.0001    0.0724 N   0  0  0  0  0  0
    0.7280   -0.0012    1.1800 C   0  0  0  0  0  0
    2.1310   -0.0006    0.6299 C   0  0  0  0  0  0
    2.7727    1.1978    0.3796 C   0  0  0  0  0  0
    4.0635    1.2027   -0.1270 C   0  0  0  0  0  0
    4.7122    0.0004   -0.3827 C   0  0  0  0  0  0
    4.0636   -1.2023   -0.1292 C   0  0  0  0  0  0
    2.7747   -1.1985    0.3823 C   0  0  0  0  0  0
    4.6939   -2.3814   -0.3781 O   0  0  0  0  0  0
    3.7812   -3.4212   -0.0207 C   0  0  0  0  0  0
    5.9789    0.0009   -0.8803 O   0  0  0  0  0  0
    6.8635    0.0002    0.2419 C   0  0  0  0  0  0
    4.6937    2.3823   -0.3738 O   0  0  0  0  0  0
    3.7807    3.4213   -0.0149 C   0  0  0  0  0  0
   -7.8581   -0.0001    0.4284 N   0  0  0  0  0  0
   -5.1369    0.0044   -3.4971 H   0  0  0  0  0  0
   -3.5220    0.0033   -3.0334 H   0  0  0  0  0  0
   -2.1490    0.0021   -1.7321 H   0  0  0  0  0  0
   -1.3379   -0.0034    2.4666 H   0  0  0  0  0  0
   -3.7204   -0.0047    2.9727 H   0  0  0  0  0  0
    0.0869    0.0011   -0.8441 H   0  0  0  0  0  0
    0.5773    0.8881    1.7920 H   0  0  0  0  0  0
    0.5773   -0.8918    1.7901 H   0  0  0  0  0  0
    2.2680    2.1317    0.5786 H   0  0  0  0  0  0
    2.2702   -2.1328    0.5799 H   0  0  0  0  0  0
    4.2448   -4.3905   -0.2039 H   0  0  0  0  0  0
    3.5267   -3.3340    1.0356 H   0  0  0  0  0  0
    2.8758   -3.3322   -0.6211 H   0  0  0  0  0  0
    7.8955    0.0006   -0.1089 H   0  0  0  0  0  0
    6.6848    0.8897    0.8460 H   0  0  0  0  0  0
    6.6850   -0.8902    0.8447 H   0  0  0  0  0  0
    4.2442    4.3910   -0.1963 H   0  0  0  0  0  0
    2.8755    3.3332   -0.6157 H   0  0  0  0  0  0
    3.5258    3.3323    1.0412 H   0  0  0  0  0  0
   -8.5074    0.0013   -0.2923 H   0  0  0  0  0  0
   -8.1576   -0.0015    1.3510 H   0  0  0  0  0  0
  1  2  1  0  0  0
  1  6  2  0  0  0
  2  3  2  0  0  0
  2 26  1  0  0  0
  3  4  1  0  0  0
  4  5  2  0  0  0
  4 11  1  0  0  0
  5  6  1  0  0  0
  5  8  1  0  0  0
  6  7  1  0  0  0
  7 27  1  0  0  0
  7 28  1  0  0  0
  8  9  2  0  0  0
  8 29  1  0  0  0
  9 10  1  0  0  0
  9 12  1  0  0  0
 10 11  2  0  0  0
 10 30  1  0  0  0
 11 31  1  0  0  0
 12 13  1  0  0  0
 12 32  1  0  0  0
 13 14  1  0  0  0
 13 33  1  0  0  0
 13 34  1  0  0  0
 14 15  1  0  0  0
 14 19  2  0  0  0
 15 16  2  0  0  0
 15 35  1  0  0  0
 16 17  1  0  0  0
 16 24  1  0  0  0
 17 18  2  0  0  0
 17 22  1  0  0  0
 18 19  1  0  0  0
 18 20  1  0  0  0
 19 36  1  0  0  0
 20 21  1  0  0  0
 21 37  1  0  0  0
 21 38  1  0  0  0
 21 39  1  0  0  0
 22 23  1  0  0  0
 23 40  1  0  0  0
 23 41  1  0  0  0
 23 42  1  0  0  0
 24 25  1  0  0  0
 25 43  1  0  0  0
 25 44  1  0  0  0
 25 45  1  0  0  0
 26 46  1  0  0  0
 26 47  1  0  0  0
M  END
>  <ACTIVITY>
6.04576

>  <set_rl>
1

>  <Min_dist>
999.9

>  <Avg_dist>
999.9

>  <PC_uM>
6.8

>  <TG_uM>
0.084

>  <RL_uM>
0.9

$$$$
15-7
  Cerius2 12110214553D 1   1.00000                          
 
 47 49  0  0  0  0  0  0  0  0999 V2000
   -5.9290   -0.1950   -1.1400 N   0  0  0  0  0  0
   -6.3185   -0.0836    0.1273 C   0  0  0  0  0  0
   -5.4729    0.1179    1.1187 N   0  0  0  0  0  0
   -4.1558    0.2203    0.8790 C   0  0  0  0  0  0
   -3.6962    0.1079   -0.4551 C   0  0  0  0  0  0
   -4.6518   -0.1084   -1.4798 C   0  0  0  0  0  0
   -4.2612   -0.2261   -2.7972 N   0  0  0  0  0  0
   -2.3283    0.2118   -0.7293 C   0  0  0  0  0  0
   -1.4442    0.4231    0.3089 C   0  0  0  0  0  0
   -1.9048    0.5331    1.6241 C   0  0  0  0  0  0
   -3.2326    0.4348    1.9116 C   0  0  0  0  0  0
   -0.0750    0.5276    0.0430 N   0  0  0  0  0  0
    0.8693    0.7519    1.1403 C   0  0  0  0  0  0
    2.2790    0.6835    0.6119 C   0  0  0  0  0  0
    2.9695    1.8486    0.3345 C   0  0  0  0  0  0
    4.2625    1.7913   -0.1503 C   0  0  0  0  0  0
    4.8724    0.5636   -0.3608 C   0  0  0  0  0  0
    4.1817   -0.6098   -0.0832 C   0  0  0  0  0  0
    2.8836   -0.5477    0.4100 C   0  0  0  0  0  0
    2.2037   -1.6932    0.6836 O   0  0  0  0  0  0
    1.5807   -2.1049   -0.5348 C   0  0  0  0  0  0
    4.7766   -1.8165   -0.2884 O   0  0  0  0  0  0
    5.4817   -2.1388    0.9120 C   0  0  0  0  0  0
    6.1444    0.5082   -0.8387 O   0  0  0  0  0  0
    6.5759    1.8581   -1.0220 C   0  0  0  0  0  0
   -7.6682   -0.1829    0.4170 N   0  0  0  0  0  0
   -4.9253   -0.3740   -3.4886 H   0  0  0  0  0  0
   -3.3224   -0.1610   -3.0324 H   0  0  0  0  0  0
   -1.9677    0.1271   -1.7438 H   0  0  0  0  0  0
   -1.1979    0.6981    2.4237 H   0  0  0  0  0  0
   -3.5732    0.5216    2.9328 H   0  0  0  0  0  0
    0.2493    0.4516   -0.8681 H   0  0  0  0  0  0
    0.6922    1.7349    1.5768 H   0  0  0  0  0  0
    0.7294   -0.0146    1.9025 H   0  0  0  0  0  0
    2.4972    2.8062    0.4967 H   0  0  0  0  0  0
    4.7986    2.7037   -0.3658 H   0  0  0  0  0  0
    0.9339   -2.9605   -0.3411 H   0  0  0  0  0  0
    0.9864   -1.2833   -0.9346 H   0  0  0  0  0  0
    2.3467   -2.3847   -1.2580 H   0  0  0  0  0  0
    6.0323   -3.0690    0.7713 H   0  0  0  0  0  0
    6.1794   -1.3360    1.1503 H   0  0  0  0  0  0
    4.7711   -2.2574    1.7300 H   0  0  0  0  0  0
    7.5960    1.8645   -1.4060 H   0  0  0  0  0  0
    5.9170    2.3569   -1.7327 H   0  0  0  0  0  0
    6.5439    2.3826   -0.0670 H   0  0  0  0  0  0
   -8.3080   -0.3307   -0.2969 H   0  0  0  0  0  0
   -7.9744   -0.1046    1.3341 H   0  0  0  0  0  0
  1  2  1  0  0  0
  1  6  2  0  0  0
  2  3  2  0  0  0
  2 26  1  0  0  0
  3  4  1  0  0  0
  4  5  2  0  0  0
  4 11  1  0  0  0
  5  6  1  0  0  0
  5  8  1  0  0  0
  6  7  1  0  0  0
  7 27  1  0  0  0
  7 28  1  0  0  0
  8  9  2  0  0  0
  8 29  1  0  0  0
  9 10  1  0  0  0
  9 12  1  0  0  0
 10 11  2  0  0  0
 10 30  1  0  0  0
 11 31  1  0  0  0
 12 13  1  0  0  0
 12 32  1  0  0  0
 13 14  1  0  0  0
 13 33  1  0  0  0
 13 34  1  0  0  0
 14 15  1  0  0  0
 14 19  2  0  0  0
 15 16  2  0  0  0
 15 35  1  0  0  0
 16 17  1  0  0  0
 16 36  1  0  0  0
 17 18  2  0  0  0
 17 24  1  0  0  0
 18 19  1  0  0  0
 18 22  1  0  0  0
 19 20  1  0  0  0
 20 21  1  0  0  0
 21 37  1  0  0  0
 21 38  1  0  0  0
 21 39  1  0  0  0
 22 23  1  0  0  0
 23 40  1  0  0  0
 23 41  1  0  0  0
 23 42  1  0  0  0
 24 25  1  0  0  0
 25 43  1  0  0  0
 25 44  1  0  0  0
 25 45  1  0  0  0
 26 46  1  0  0  0
 26 47  1  0  0  0
M  END
>  <ACTIVITY>
5.88606

>  <set_rl>
1

>  <Min_dist>
999.9

>  <Avg_dist>
999.9

>  <PC_uM>
4.9

>  <TG_uM>
0.19

>  <RL_uM>
1.3

$$$$
15-10
  Cerius2 12110214553D 1   1.00000                          
 
 41 44  0  0  0  0  0  0  0  0999 V2000
   -5.2304    0.8912   -0.7377 N   0  0  0  0  0  0
   -5.6125    0.1065    0.2664 C   0  0  0  0  0  0
   -4.7658   -0.6300    0.9587 N   0  0  0  0  0  0
   -3.4552   -0.6141    0.6679 C   0  0  0  0  0  0
   -3.0035    0.2068   -0.3933 C   0  0  0  0  0  0
   -3.9599    0.9767   -1.1021 C   0  0  0  0  0  0
   -3.5771    1.7937   -2.1451 N   0  0  0  0  0  0
   -1.6423    0.2402   -0.7143 C   0  0  0  0  0  0
   -0.7568   -0.5306    0.0110 C   0  0  0  0  0  0
   -1.2096   -1.3390    1.0577 C   0  0  0  0  0  0
   -2.5308   -1.3853    1.3858 C   0  0  0  0  0  0
    0.6056   -0.5031   -0.3041 N   0  0  0  0  0  0
    1.5512   -1.3188    0.4618 C   0  0  0  0  0  0
    2.9469   -1.0930   -0.0600 C   0  0  0  0  0  0
    3.6476    0.0767    0.2802 C   0  0  0  0  0  0
    4.9593    0.2710   -0.2198 C   0  0  0  0  0  0
    5.5339   -0.7096   -1.0466 C   0  0  0  0  0  0
    4.8251   -1.8296   -1.3553 C   0  0  0  0  0  0
    3.5373   -2.0234   -0.8587 C   0  0  0  0  0  0
    5.6602    1.4407    0.1203 C   0  0  0  0  0  0
    5.0718    2.3688    0.9231 C   0  0  0  0  0  0
    3.7819    2.1776    1.4152 C   0  0  0  0  0  0
    3.0729    1.0578    1.1063 C   0  0  0  0  0  0
   -6.9554    0.0616    0.5987 N   0  0  0  0  0  0
   -4.2417    2.3152   -2.6218 H   0  0  0  0  0  0
   -2.6432    1.8468   -2.4020 H   0  0  0  0  0  0
   -1.2879    0.8629   -1.5224 H   0  0  0  0  0  0
   -0.5018   -1.9356    1.6140 H   0  0  0  0  0  0
   -2.8654   -2.0150    2.1969 H   0  0  0  0  0  0
    0.9243    0.0561   -1.0298 H   0  0  0  0  0  0
    1.5064   -1.0358    1.5135 H   0  0  0  0  0  0
    1.2902   -2.3719    0.3574 H   0  0  0  0  0  0
    6.5325   -0.5748   -1.4352 H   0  0  0  0  0  0
    5.2688   -2.5814   -1.9912 H   0  0  0  0  0  0
    2.9964   -2.9212   -1.1190 H   0  0  0  0  0  0
    6.6607    1.6020   -0.2531 H   0  0  0  0  0  0
    5.6125    3.2669    1.1829 H   0  0  0  0  0  0
    3.3383    2.9295    2.0511 H   0  0  0  0  0  0
    2.0743    0.9231    1.4950 H   0  0  0  0  0  0
   -7.5957    0.5955    0.1029 H   0  0  0  0  0  0
   -7.2561   -0.5037    1.3273 H   0  0  0  0  0  0
  1  2  1  0  0  0
  1  6  2  0  0  0
  2  3  2  0  0  0
  2 24  1  0  0  0
  3  4  1  0  0  0
  4  5  2  0  0  0
  4 11  1  0  0  0
  5  6  1  0  0  0
  5  8  1  0  0  0
  6  7  1  0  0  0
  7 25  1  0  0  0
  7 26  1  0  0  0
  8  9  2  0  0  0
  8 27  1  0  0  0
  9 10  1  0  0  0
  9 12  1  0  0  0
 10 11  2  0  0  0
 10 28  1  0  0  0
 11 29  1  0  0  0
 12 13  1  0  0  0
 12 30  1  0  0  0
 13 14  1  0  0  0
 13 31  1  0  0  0
 13 32  1  0  0  0
 14 15  1  0  0  0
 14 19  2  0  0  0
 15 16  2  0  0  0
 15 23  1  0  0  0
 16 17  1  0  0  0
 16 20  1  0  0  0
 17 18  2  0  0  0
 17 33  1  0  0  0
 18 19  1  0  0  0
 18 34  1  0  0  0
 19 35  1  0  0  0
 20 21  2  0  0  0
 20 36  1  0  0  0
 21 22  1  0  0  0
 21 37  1  0  0  0
 22 23  2  0  0  0
 22 38  1  0  0  0
 23 39  1  0  0  0
 24 40  1  0  0  0
 24 41  1  0  0  0
M  END
>  <ACTIVITY>
6.72125

>  <set_rl>
1

>  <Min_dist>
999.9

>  <Avg_dist>
999.9

>  <PC_uM>
0.72

>  <TG_uM>
0.099

>  <RL_uM>
0.19

$$$$
15-14
  Cerius2 12110214553D 1   1.00000                          
 
 50 52  0  0  0  0  0  0  0  0999 V2000
   -5.7572   -0.6255   -0.2351 N   0  0  0  0  0  0
   -5.5892   -0.8407    1.0670 C   0  0  0  0  0  0
   -4.4579   -0.5819    1.6930 N   0  0  0  0  0  0
   -3.4090   -0.0794    1.0222 C   0  0  0  0  0  0
   -3.5429    0.1656   -0.3656 C   0  0  0  0  0  0
   -4.7830   -0.1322   -0.9846 C   0  0  0  0  0  0
   -4.9701    0.0857   -2.3335 N   0  0  0  0  0  0
   -2.4637    0.6893   -1.0854 C   0  0  0  0  0  0
   -1.2804    0.9604   -0.4293 C   0  0  0  0  0  0
   -1.1550    0.7161    0.9413 C   0  0  0  0  0  0
   -2.1940    0.2065    1.6598 C   0  0  0  0  0  0
   -0.1967    1.4837   -1.1421 N   0  0  0  0  0  0
    1.0185    1.8914   -0.4327 C   0  0  0  0  0  0
    1.9651    0.7221   -0.3449 C   0  0  0  0  0  0
    1.6109   -0.4957   -0.8952 C   0  0  0  0  0  0
    2.4755   -1.5711   -0.8174 C   0  0  0  0  0  0
    3.7024   -1.4326   -0.1859 C   0  0  0  0  0  0
    4.0623   -0.2103    0.3686 C   0  0  0  0  0  0
    3.1924    0.8705    0.2828 C   0  0  0  0  0  0
    3.5401    2.0690    0.8234 O   0  0  0  0  0  0
    3.1665    2.0242    2.2020 C   0  0  0  0  0  0
    5.2654   -0.0702    0.9891 O   0  0  0  0  0  0
    6.2273    0.2031   -0.0318 C   0  0  0  0  0  0
    4.5521   -2.4917   -0.1090 O   0  0  0  0  0  0
    3.9064   -3.5874   -0.7605 C   0  0  0  0  0  0
   -0.2768    1.6242   -2.5982 C   0  0  0  0  0  0
   -6.6465   -1.3577    1.7953 N   0  0  0  0  0  0
   -5.8236   -0.1224   -2.7446 H   0  0  0  0  0  0
   -4.2481    0.4472   -2.8711 H   0  0  0  0  0  0
   -2.5558    0.8794   -2.1446 H   0  0  0  0  0  0
   -0.2209    0.9341    1.4376 H   0  0  0  0  0  0
   -2.0817    0.0228    2.7181 H   0  0  0  0  0  0
    1.4982    2.7074   -0.9731 H   0  0  0  0  0  0
    0.7582    2.2244    0.5720 H   0  0  0  0  0  0
    0.6558   -0.6070   -1.3870 H   0  0  0  0  0  0
    2.1951   -2.5208   -1.2486 H   0  0  0  0  0  0
    3.3792    2.9866    2.6675 H   0  0  0  0  0  0
    2.1010    1.8090    2.2828 H   0  0  0  0  0  0
    3.7343    1.2428    2.7071 H   0  0  0  0  0  0
    7.2195    0.2744    0.4136 H   0  0  0  0  0  0
    6.2159   -0.6019   -0.7666 H   0  0  0  0  0  0
    5.9801    1.1452   -0.5211 H   0  0  0  0  0  0
    4.5531   -4.4641   -0.7240 H   0  0  0  0  0  0
    2.9664   -3.8080   -0.2547 H   0  0  0  0  0  0
    3.7071   -3.3259   -1.7997 H   0  0  0  0  0  0
   -1.2241    1.2163   -2.9510 H   0  0  0  0  0  0
   -0.2133    2.6790   -2.8655 H   0  0  0  0  0  0
    0.5473    1.0817   -3.0614 H   0  0  0  0  0  0
   -7.4880   -1.5552    1.3552 H   0  0  0  0  0  0
   -6.5460   -1.5225    2.7459 H   0  0  0  0  0  0
  1  2  1  0  0  0
  1  6  2  0  0  0
  2  3  2  0  0  0
  2 27  1  0  0  0
  3  4  1  0  0  0
  4  5  2  0  0  0
  4 11  1  0  0  0
  5  6  1  0  0  0
  5  8  1  0  0  0
  6  7  1  0  0  0
  7 28  1  0  0  0
  7 29  1  0  0  0
  8  9  2  0  0  0
  8 30  1  0  0  0
  9 10  1  0  0  0
  9 12  1  0  0  0
 10 11  2  0  0  0
 10 31  1  0  0  0
 11 32  1  0  0  0
 12 13  1  0  0  0
 12 26  1  0  0  0
 13 14  1  0  0  0
 13 33  1  0  0  0
 13 34  1  0  0  0
 14 15  1  0  0  0
 14 19  2  0  0  0
 15 16  2  0  0  0
 15 35  1  0  0  0
 16 17  1  0  0  0
 16 36  1  0  0  0
 17 18  2  0  0  0
 17 24  1  0  0  0
 18 19  1  0  0  0
 18 22  1  0  0  0
 19 20  1  0  0  0
 20 21  1  0  0  0
 21 37  1  0  0  0
 21 38  1  0  0  0
 21 39  1  0  0  0
 22 23  1  0  0  0
 23 40  1  0  0  0
 23 41  1  0  0  0
 23 42  1  0  0  0
 24 25  1  0  0  0
 25 43  1  0  0  0
 25 44  1  0  0  0
 25 45  1  0  0  0
 26 46  1  0  0  0
 26 47  1  0  0  0
 26 48  1  0  0  0
 27 49  1  0  0  0
 27 50  1  0  0  0
M  END
>  <ACTIVITY>
7.72125

>  <set_rl>
1

>  <Min_dist>
999.9

>  <Avg_dist>
999.9

>  <PC_uM>
0.052

>  <TG_uM>
0.017

>  <RL_uM>
0.019

$$$$
10-4A
  Cerius2 12110214553D 1   1.00000                          
 
 44 46  0  0  0  0  0  0  0  0999 V2000
   -5.5934    0.6838   -1.1805 N   0  0  0  0  0  0
   -5.9998    0.8783    0.0712 C   0  0  0  0  0  0
   -5.2857    0.5128    1.1185 N   0  0  0  0  0  0
   -4.0950   -0.0827    0.9543 C   0  0  0  0  0  0
   -3.6221   -0.3101   -0.3608 C   0  0  0  0  0  0
   -4.4326    0.1040   -1.4476 C   0  0  0  0  0  0
   -4.0235   -0.0920   -2.7492 N   0  0  0  0  0  0
   -2.3828   -0.9297   -0.5538 C   0  0  0  0  0  0
   -1.6443   -1.3077    0.5291 C   0  0  0  0  0  0
   -2.1072   -1.0851    1.8227 C   0  0  0  0  0  0
   -3.3103   -0.4833    2.0443 C   0  0  0  0  0  0
   -0.3094   -1.9757    0.3219 C   0  0  0  0  0  0
    0.7330   -0.9665    0.2640 O   0  0  0  0  0  0
    2.0169   -1.3337    0.0834 C   0  0  0  0  0  0
    2.3023   -2.5092   -0.0309 O   0  0  0  0  0  0
    3.0751   -0.3092    0.0246 C   0  0  0  0  0  0
    4.4119   -0.6871   -0.1631 C   0  0  0  0  0  0
    5.4010    0.2828   -0.2177 C   0  0  0  0  0  0
    5.0716    1.6174   -0.0877 C   0  0  0  0  0  0
    3.7488    1.9990    0.0985 C   0  0  0  0  0  0
    2.7502    1.0441    0.1499 C   0  0  0  0  0  0
    3.4346    3.3160    0.2255 O   0  0  0  0  0  0
    4.6599    4.0444    0.1259 C   0  0  0  0  0  0
    4.7370   -1.9986   -0.2906 O   0  0  0  0  0  0
    6.1539   -2.0577   -0.4666 C   0  0  0  0  0  0
   -7.2220    1.4898    0.2835 N   0  0  0  0  0  0
   -4.5879    0.1962   -3.4836 H   0  0  0  0  0  0
   -3.1712   -0.5181   -2.9307 H   0  0  0  0  0  0
   -2.0136   -1.1078   -1.5529 H   0  0  0  0  0  0
   -1.5040   -1.3935    2.6638 H   0  0  0  0  0  0
   -3.6569   -0.3170    3.0535 H   0  0  0  0  0  0
   -0.1110   -2.6558    1.1503 H   0  0  0  0  0  0
   -0.3248   -2.5362   -0.6128 H   0  0  0  0  0  0
    6.4316   -0.0062   -0.3619 H   0  0  0  0  0  0
    5.8464    2.3685   -0.1307 H   0  0  0  0  0  0
    1.7225    1.3429    0.2944 H   0  0  0  0  0  0
    4.4574    5.1111    0.2224 H   0  0  0  0  0  0
    5.3355    3.7294    0.9212 H   0  0  0  0  0  0
    5.1215    3.8483   -0.8418 H   0  0  0  0  0  0
    6.4636   -3.0973   -0.5740 H   0  0  0  0  0  0
    6.4323   -1.5014   -1.3616 H   0  0  0  0  0  0
    6.6465   -1.6196    0.4014 H   0  0  0  0  0  0
   -7.7634    1.7670   -0.4722 H   0  0  0  0  0  0
   -7.5379    1.6415    1.1880 H   0  0  0  0  0  0
  1  2  1  0  0  0
  1  6  2  0  0  0
  2  3  2  0  0  0
  2 26  1  0  0  0
  3  4  1  0  0  0
  4  5  2  0  0  0
  4 11  1  0  0  0
  5  6  1  0  0  0
  5  8  1  0  0  0
  6  7  1  0  0  0
  7 27  1  0  0  0
  7 28  1  0  0  0
  8  9  2  0  0  0
  8 29  1  0  0  0
  9 10  1  0  0  0
  9 12  1  0  0  0
 10 11  2  0  0  0
 10 30  1  0  0  0
 11 31  1  0  0  0
 12 13  1  0  0  0
 12 32  1  0  0  0
 12 33  1  0  0  0
 13 14  1  0  0  0
 14 15  2  0  0  0
 14 16  1  0  0  0
 16 17  1  0  0  0
 16 21  2  0  0  0
 17 18  2  0  0  0
 17 24  1  0  0  0
 18 19  1  0  0  0
 18 34  1  0  0  0
 19 20  2  0  0  0
 19 35  1  0  0  0
 20 21  1  0  0  0
 20 22  1  0  0  0
 21 36  1  0  0  0
 22 23  1  0  0  0
 23 37  1  0  0  0
 23 38  1  0  0  0
 23 39  1  0  0  0
 24 25  1  0  0  0
 25 40  1  0  0  0
 25 41  1  0  0  0
 25 42  1  0  0  0
 26 43  1  0  0  0
 26 44  1  0  0  0
M  END
>  <ACTIVITY>
6.37675

>  <set_rl>
1

>  <Min_dist>
999.9

>  <Avg_dist>
999.9

>  <PC_uM>
2.4

>  <TG_uM>
0.22

>  <RL_uM>
0.42

$$$$
10-6A
  Cerius2 12110214553D 1   1.00000                          
 
 44 46  0  0  0  0  0  0  0  0999 V2000
   -5.6758    0.9593   -1.1450 N   0  0  0  0  0  0
   -6.0709    1.1106    0.1163 C   0  0  0  0  0  0
   -5.3898    0.6325    1.1399 N   0  0  0  0  0  0
   -4.2464   -0.0399    0.9402 C   0  0  0  0  0  0
   -3.7872   -0.2252   -0.3862 C   0  0  0  0  0  0
   -4.5607    0.3108   -1.4464 C   0  0  0  0  0  0
   -4.1629    0.1607   -2.7576 N   0  0  0  0  0  0
   -2.5971   -0.9236   -0.6161 C   0  0  0  0  0  0
   -1.8926   -1.4181    0.4423 C   0  0  0  0  0  0
   -2.3421   -1.2371    1.7471 C   0  0  0  0  0  0
   -3.4977   -0.5608    2.0044 C   0  0  0  0  0  0
   -0.6107   -2.1709    0.1954 C   0  0  0  0  0  0
    0.5044   -1.2409    0.1954 O   0  0  0  0  0  0
    1.7575   -1.6918   -0.0073 C   0  0  0  0  0  0
    1.9546   -2.8764   -0.1900 O   0  0  0  0  0  0
    2.8922   -0.7455   -0.0073 C   0  0  0  0  0  0
    4.1913   -1.2105   -0.2171 C   0  0  0  0  0  0
    5.2519   -0.3198   -0.2162 C   0  0  0  0  0  0
    5.0245    1.0327   -0.0072 C   0  0  0  0  0  0
    3.7348    1.4994    0.2018 C   0  0  0  0  0  0
    2.6675    0.6167    0.1968 C   0  0  0  0  0  0
    3.5178    2.8253    0.4064 O   0  0  0  0  0  0
    4.7937    3.4663    0.3495 C   0  0  0  0  0  0
    6.5175   -0.7715   -0.4200 O   0  0  0  0  0  0
    7.3772    0.3685   -0.3627 C   0  0  0  0  0  0
   -7.2448    1.7984    0.3648 N   0  0  0  0  0  0
   -4.7016    0.5325   -3.4734 H   0  0  0  0  0  0
   -3.3443   -0.3168   -2.9644 H   0  0  0  0  0  0
   -2.2387   -1.0705   -1.6242 H   0  0  0  0  0  0
   -1.7666   -1.6381    2.5682 H   0  0  0  0  0  0
   -3.8344   -0.4279    3.0219 H   0  0  0  0  0  0
   -0.4666   -2.9110    0.9826 H   0  0  0  0  0  0
   -0.6647   -2.6735   -0.7703 H   0  0  0  0  0  0
    4.3693   -2.2632   -0.3795 H   0  0  0  0  0  0
    5.8540    1.7244   -0.0068 H   0  0  0  0  0  0
    1.6638    0.9809    0.3592 H   0  0  0  0  0  0
    4.6697    4.5374    0.5091 H   0  0  0  0  0  0
    5.4413    3.0561    1.1245 H   0  0  0  0  0  0
    5.2434    3.2943   -0.6283 H   0  0  0  0  0  0
    8.4087    0.0541   -0.5215 H   0  0  0  0  0  0
    7.0905    1.0791   -1.1380 H   0  0  0  0  0  0
    7.2881    0.8420    0.6150 H   0  0  0  0  0  0
   -7.7612    2.1588   -0.3729 H   0  0  0  0  0  0
   -7.5515    1.9205    1.2769 H   0  0  0  0  0  0
  1  2  1  0  0  0
  1  6  2  0  0  0
  2  3  2  0  0  0
  2 26  1  0  0  0
  3  4  1  0  0  0
  4  5  2  0  0  0
  4 11  1  0  0  0
  5  6  1  0  0  0
  5  8  1  0  0  0
  6  7  1  0  0  0
  7 27  1  0  0  0
  7 28  1  0  0  0
  8  9  2  0  0  0
  8 29  1  0  0  0
  9 10  1  0  0  0
  9 12  1  0  0  0
 10 11  2  0  0  0
 10 30  1  0  0  0
 11 31  1  0  0  0
 12 13  1  0  0  0
 12 32  1  0  0  0
 12 33  1  0  0  0
 13 14  1  0  0  0
 14 15  2  0  0  0
 14 16  1  0  0  0
 16 17  1  0  0  0
 16 21  2  0  0  0
 17 18  2  0  0  0
 17 34  1  0  0  0
 18 19  1  0  0  0
 18 24  1  0  0  0
 19 20  2  0  0  0
 19 35  1  0  0  0
 20 21  1  0  0  0
 20 22  1  0  0  0
 21 36  1  0  0  0
 22 23  1  0  0  0
 23 37  1  0  0  0
 23 38  1  0  0  0
 23 39  1  0  0  0
 24 25  1  0  0  0
 25 40  1  0  0  0
 25 41  1  0  0  0
 25 42  1  0  0  0
 26 43  1  0  0  0
 26 44  1  0  0  0
M  END
>  <ACTIVITY>
6.45593

>  <set_rl>
1

>  <Min_dist>
999.9

>  <Avg_dist>
999.9

>  <PC_uM>
0.46

>  <TG_uM>
0.15

>  <RL_uM>
0.35

$$$$
13-10
  Cerius2 12110214553D 1   1.00000                          
 
 50 52  0  0  0  0  0  0  0  0999 V2000
   -5.3828   -0.9440   -0.1661 N   0  0  0  0  0  0
   -5.0552   -1.8750    0.7257 C   0  0  0  0  0  0
   -3.8801   -1.9078    1.3245 N   0  0  0  0  0  0
   -2.9509   -0.9805    1.0478 C   0  0  0  0  0  0
   -3.2561    0.0299    0.1039 C   0  0  0  0  0  0
   -4.5345    0.0149   -0.5071 C   0  0  0  0  0  0
   -4.8867    0.9737   -1.4327 N   0  0  0  0  0  0
   -2.3000    1.0067   -0.1992 C   0  0  0  0  0  0
   -1.0835    0.9720    0.4206 C   0  0  0  0  0  0
   -0.7829   -0.0204    1.3481 C   0  0  0  0  0  0
   -1.6931   -0.9850    1.6653 C   0  0  0  0  0  0
   -0.0531    2.0224    0.0951 C   0  0  0  0  0  0
    1.1595    1.7764    0.8796 N   0  0  0  0  0  0
    2.1716    0.9587    0.3652 C   0  0  0  0  0  0
    3.3205    0.7259    1.1088 C   0  0  0  0  0  0
    4.3237   -0.0842    0.5998 C   0  0  0  0  0  0
    4.1790   -0.6632   -0.6551 C   0  0  0  0  0  0
    3.0286   -0.4297   -1.3989 C   0  0  0  0  0  0
    2.0238    0.3760   -0.8862 C   0  0  0  0  0  0
    2.8862   -0.9959   -2.6271 O   0  0  0  0  0  0
    1.6179   -0.5735   -3.1321 C   0  0  0  0  0  0
    5.1643   -1.4588   -1.1560 O   0  0  0  0  0  0
    4.8718   -2.7929   -0.7356 C   0  0  0  0  0  0
    5.4493   -0.3118    1.3282 O   0  0  0  0  0  0
    5.3019    0.4100    2.5527 C   0  0  0  0  0  0
    1.3124    2.3867    2.2026 C   0  0  0  0  0  0
   -2.6578    2.2520   -1.3545 Cl  0  0  0  0  0  0
   -5.9856   -2.8493    1.0388 N   0  0  0  0  0  0
   -4.2520    1.2468   -2.1135 H   0  0  0  0  0  0
   -5.7691    1.3753   -1.4032 H   0  0  0  0  0  0
    0.1861   -0.0264    1.8249 H   0  0  0  0  0  0
   -1.4453   -1.7491    2.3873 H   0  0  0  0  0  0
    0.1865    1.9794   -0.9673 H   0  0  0  0  0  0
   -0.4496    3.0081    0.3386 H   0  0  0  0  0  0
    3.4330    1.1762    2.0840 H   0  0  0  0  0  0
    1.1296    0.5573   -1.4640 H   0  0  0  0  0  0
    1.4583   -1.0047   -4.1204 H   0  0  0  0  0  0
    0.8289   -0.9074   -2.4583 H   0  0  0  0  0  0
    1.5990    0.5141   -3.2030 H   0  0  0  0  0  0
    5.6376   -3.4695   -1.1148 H   0  0  0  0  0  0
    4.8563   -2.8354    0.3535 H   0  0  0  0  0  0
    3.8983   -3.0912   -1.1247 H   0  0  0  0  0  0
    6.1849    0.2571    3.1731 H   0  0  0  0  0  0
    5.1890    1.4724    2.3368 H   0  0  0  0  0  0
    4.4193    0.0510    3.0821 H   0  0  0  0  0  0
    0.4301    2.9844    2.4312 H   0  0  0  0  0  0
    1.4255    1.6041    2.9528 H   0  0  0  0  0  0
    2.1955    3.0256    2.2081 H   0  0  0  0  0  0
   -6.8560   -2.8441    0.6107 H   0  0  0  0  0  0
   -5.7678   -3.5378    1.6864 H   0  0  0  0  0  0
  1  2  1  0  0  0
  1  6  2  0  0  0
  2  3  2  0  0  0
  2 28  1  0  0  0
  3  4  1  0  0  0
  4  5  2  0  0  0
  4 11  1  0  0  0
  5  6  1  0  0  0
  5  8  1  0  0  0
  6  7  1  0  0  0
  7 29  1  0  0  0
  7 30  1  0  0  0
  8  9  2  0  0  0
  8 27  1  0  0  0
  9 10  1  0  0  0
  9 12  1  0  0  0
 10 11  2  0  0  0
 10 31  1  0  0  0
 11 32  1  0  0  0
 12 13  1  0  0  0
 12 33  1  0  0  0
 12 34  1  0  0  0
 13 14  1  0  0  0
 13 26  1  0  0  0
 14 15  1  0  0  0
 14 19  2  0  0  0
 15 16  2  0  0  0
 15 35  1  0  0  0
 16 17  1  0  0  0
 16 24  1  0  0  0
 17 18  2  0  0  0
 17 22  1  0  0  0
 18 19  1  0  0  0
 18 20  1  0  0  0
 19 36  1  0  0  0
 20 21  1  0  0  0
 21 37  1  0  0  0
 21 38  1  0  0  0
 21 39  1  0  0  0
 22 23  1  0  0  0
 23 40  1  0  0  0
 23 41  1  0  0  0
 23 42  1  0  0  0
 24 25  1  0  0  0
 25 43  1  0  0  0
 25 44  1  0  0  0
 25 45  1  0  0  0
 26 46  1  0  0  0
 26 47  1  0  0  0
 26 48  1  0  0  0
 28 49  1  0  0  0
 28 50  1  0  0  0
M  END
>  <ACTIVITY>
7.92082

>  <set_rl>
1

>  <Min_dist>
999.9

>  <Avg_dist>
999.9

>  <PC_uM>
0.012

>  <TG_uM>
0.0064

>  <RL_uM>
0.012

$$$$
10-11A
  Cerius2 12110214553D 1   1.00000                          
 
 35 37  0  0  0  0  0  0  0  0999 V2000
   -4.3017    1.1624    0.1534 N   0  0  0  0  0  0
   -4.7336   -0.0793    0.3568 C   0  0  0  0  0  0
   -3.9410   -1.1315    0.2861 N   0  0  0  0  0  0
   -2.6390   -0.9828   -0.0006 C   0  0  0  0  0  0
   -2.1349    0.3211   -0.2248 C   0  0  0  0  0  0
   -3.0335    1.4139   -0.1355 C   0  0  0  0  0  0
   -2.5990    2.7052   -0.3444 N   0  0  0  0  0  0
   -0.7801    0.4978   -0.5252 C   0  0  0  0  0  0
    0.0397   -0.5901   -0.5984 C   0  0  0  0  0  0
   -0.4537   -1.8728   -0.3783 C   0  0  0  0  0  0
   -1.7688   -2.0783   -0.0833 C   0  0  0  0  0  0
    1.4993   -0.4005   -0.9223 C   0  0  0  0  0  0
    2.2551   -0.2165    0.3191 N   0  0  0  0  0  0
    3.6374   -0.0212    0.2727 C   0  0  0  0  0  0
    4.3556    0.1535    1.4488 C   0  0  0  0  0  0
    5.7223    0.3459    1.3993 C   0  0  0  0  0  0
    6.3758    0.3649    0.1808 C   0  0  0  0  0  0
    5.6638    0.1914   -0.9920 C   0  0  0  0  0  0
    4.2977   -0.0068   -0.9494 C   0  0  0  0  0  0
   -6.0698   -0.2753    0.6555 N   0  0  0  0  0  0
   -3.2244    3.4438   -0.2802 H   0  0  0  0  0  0
   -1.6676    2.8753   -0.5556 H   0  0  0  0  0  0
   -0.3860    1.4884   -0.6982 H   0  0  0  0  0  0
    0.2154   -2.7181   -0.4420 H   0  0  0  0  0  0
   -2.1379   -3.0792    0.0851 H   0  0  0  0  0  0
    1.8720   -1.2798   -1.4477 H   0  0  0  0  0  0
    1.6198    0.4789   -1.5549 H   0  0  0  0  0  0
    1.7957   -0.2304    1.1732 H   0  0  0  0  0  0
    3.8458    0.1391    2.4008 H   0  0  0  0  0  0
    6.2812    0.4821    2.3133 H   0  0  0  0  0  0
    7.4445    0.5159    0.1449 H   0  0  0  0  0  0
    6.1773    0.2067   -1.9420 H   0  0  0  0  0  0
    3.7423   -0.1426   -1.8656 H   0  0  0  0  0  0
   -6.6704    0.4842    0.7129 H   0  0  0  0  0  0
   -6.4062   -1.1723    0.8075 H   0  0  0  0  0  0
  1  2  1  0  0  0
  1  6  2  0  0  0
  2  3  2  0  0  0
  2 20  1  0  0  0
  3  4  1  0  0  0
  4  5  2  0  0  0
  4 11  1  0  0  0
  5  6  1  0  0  0
  5  8  1  0  0  0
  6  7  1  0  0  0
  7 21  1  0  0  0
  7 22  1  0  0  0
  8  9  2  0  0  0
  8 23  1  0  0  0
  9 10  1  0  0  0
  9 12  1  0  0  0
 10 11  2  0  0  0
 10 24  1  0  0  0
 11 25  1  0  0  0
 12 13  1  0  0  0
 12 26  1  0  0  0
 12 27  1  0  0  0
 13 14  1  0  0  0
 13 28  1  0  0  0
 14 15  1  0  0  0
 14 19  2  0  0  0
 15 16  2  0  0  0
 15 29  1  0  0  0
 16 17  1  0  0  0
 16 30  1  0  0  0
 17 18  2  0  0  0
 17 31  1  0  0  0
 18 19  1  0  0  0
 18 32  1  0  0  0
 19 33  1  0  0  0
 20 34  1  0  0  0
 20 35  1  0  0  0
M  END
>  <ACTIVITY>
6.35655

>  <set_rl>
1

>  <Min_dist>
999.9

>  <Avg_dist>
999.9

>  <PC_uM>
0.98

>  <TG_uM>
0.1

>  <RL_uM>
0.44

$$$$
13-17
  Cerius2 12110214553D 1   1.00000                          
 
 50 52  0  0  0  0  0  0  0  0999 V2000
   -5.9310    0.7485    0.0760 N   0  0  0  0  0  0
   -6.2311   -0.4596    0.5457 C   0  0  0  0  0  0
   -5.3261   -1.4024    0.7205 N   0  0  0  0  0  0
   -4.0371   -1.1713    0.4234 C   0  0  0  0  0  0
   -3.6723    0.1010   -0.0795 C   0  0  0  0  0  0
   -4.6883    1.0748   -0.2464 C   0  0  0  0  0  0
   -4.3907    2.3307   -0.7323 N   0  0  0  0  0  0
   -2.3345    0.3654   -0.3953 C   0  0  0  0  0  0
   -1.3874   -0.6230   -0.2107 C   0  0  0  0  0  0
   -1.7553   -1.8758    0.2859 C   0  0  0  0  0  0
   -3.0524   -2.1526    0.5986 C   0  0  0  0  0  0
   -0.0474   -0.3672   -0.5245 N   0  0  0  0  0  0
    0.7185   -0.5480    0.7160 C   0  0  0  0  0  0
    2.1781   -0.2863    0.4478 C   0  0  0  0  0  0
    2.6872    0.9908    0.5916 C   0  0  0  0  0  0
    4.0296    1.2359    0.3453 C   0  0  0  0  0  0
    4.8636    0.1953   -0.0462 C   0  0  0  0  0  0
    4.3479   -1.0873   -0.1892 C   0  0  0  0  0  0
    3.0055   -1.3250    0.0640 C   0  0  0  0  0  0
    5.1598   -2.1088   -0.5725 O   0  0  0  0  0  0
    4.3476   -3.2832   -0.6285 C   0  0  0  0  0  0
    6.1816    0.4318   -0.2893 O   0  0  0  0  0  0
    6.8704    0.2417    0.9482 C   0  0  0  0  0  0
    4.5294    2.4928    0.4863 O   0  0  0  0  0  0
    3.4420    3.3266    0.8917 C   0  0  0  0  0  0
    0.3811   -1.4298   -1.4438 C   0  0  0  0  0  0
   -1.8704    1.9198   -1.0135 Cl  0  0  0  0  0  0
   -7.5487   -0.7382    0.8647 N   0  0  0  0  0  0
   -3.6018    2.7986   -0.4164 H   0  0  0  0  0  0
   -4.9702    2.7462   -1.3899 H   0  0  0  0  0  0
   -1.0009   -2.6363    0.4232 H   0  0  0  0  0  0
   -3.3208   -3.1261    0.9815 H   0  0  0  0  0  0
    0.3570    0.1500    1.4712 H   0  0  0  0  0  0
    0.5925   -1.5693    1.0752 H   0  0  0  0  0  0
    2.0385    1.7989    0.8959 H   0  0  0  0  0  0
    2.6040   -2.3215   -0.0465 H   0  0  0  0  0  0
    4.9583   -4.1331   -0.9332 H   0  0  0  0  0  0
    3.9205   -3.4768    0.3554 H   0  0  0  0  0  0
    3.5446   -3.1355   -1.3506 H   0  0  0  0  0  0
    7.9356    0.4212    0.8025 H   0  0  0  0  0  0
    6.4827    0.9392    1.6907 H   0  0  0  0  0  0
    6.7184   -0.7802    1.2955 H   0  0  0  0  0  0
    3.7960    4.3497    1.0181 H   0  0  0  0  0  0
    2.6626    3.3032    0.1301 H   0  0  0  0  0  0
    3.0378    2.9627    1.8364 H   0  0  0  0  0  0
    1.4243   -1.2735   -1.7187 H   0  0  0  0  0  0
    0.2755   -2.3981   -0.9545 H   0  0  0  0  0  0
   -0.2383   -1.4062   -2.3404 H   0  0  0  0  0  0
   -8.2309   -0.0592    0.7443 H   0  0  0  0  0  0
   -7.7900   -1.6125    1.2087 H   0  0  0  0  0  0
  1  2  1  0  0  0
  1  6  2  0  0  0
  2  3  2  0  0  0
  2 28  1  0  0  0
  3  4  1  0  0  0
  4  5  2  0  0  0
  4 11  1  0  0  0
  5  6  1  0  0  0
  5  8  1  0  0  0
  6  7  1  0  0  0
  7 29  1  0  0  0
  7 30  1  0  0  0
  8  9  2  0  0  0
  8 27  1  0  0  0
  9 10  1  0  0  0
  9 12  1  0  0  0
 10 11  2  0  0  0
 10 31  1  0  0  0
 11 32  1  0  0  0
 12 13  1  0  0  0
 12 26  1  0  0  0
 13 14  1  0  0  0
 13 33  1  0  0  0
 13 34  1  0  0  0
 14 15  1  0  0  0
 14 19  2  0  0  0
 15 16  2  0  0  0
 15 35  1  0  0  0
 16 17  1  0  0  0
 16 24  1  0  0  0
 17 18  2  0  0  0
 17 22  1  0  0  0
 18 19  1  0  0  0
 18 20  1  0  0  0
 19 36  1  0  0  0
 20 21  1  0  0  0
 21 37  1  0  0  0
 21 38  1  0  0  0
 21 39  1  0  0  0
 22 23  1  0  0  0
 23 40  1  0  0  0
 23 41  1  0  0  0
 23 42  1  0  0  0
 24 25  1  0  0  0
 25 43  1  0  0  0
 25 44  1  0  0  0
 25 45  1  0  0  0
 26 46  1  0  0  0
 26 47  1  0  0  0
 26 48  1  0  0  0
 28 49  1  0  0  0
 28 50  1  0  0  0
M  END
>  <ACTIVITY>
7.42022

>  <set_rl>
1

>  <Min_dist>
999.9

>  <Avg_dist>
999.9

>  <PC_uM>
0.17

>  <TG_uM>
0.016

>  <RL_uM>
0.038

$$$$
15-4
  Cerius2 12110214553D 1   1.00000                          
 
 43 45  0  0  0  0  0  0  0  0999 V2000
   -5.7210    0.0095   -1.1928 N   0  0  0  0  0  0
   -6.1266   -0.0008    0.0742 C   0  0  0  0  0  0
   -5.2883   -0.0091    1.0919 N   0  0  0  0  0  0
   -3.9624   -0.0075    0.8808 C   0  0  0  0  0  0
   -3.4856    0.0033   -0.4520 C   0  0  0  0  0  0
   -4.4340    0.0119   -1.5057 C   0  0  0  0  0  0
   -4.0268    0.0221   -2.8233 N   0  0  0  0  0  0
   -2.1081    0.0056   -0.6967 C   0  0  0  0  0  0
   -1.2315   -0.0027    0.3691 C   0  0  0  0  0  0
   -1.7092   -0.0133    1.6828 C   0  0  0  0  0  0
   -3.0465   -0.0157    1.9417 C   0  0  0  0  0  0
    0.1470   -0.0009    0.1327 N   0  0  0  0  0  0
    1.0834   -0.0096    1.2594 C   0  0  0  0  0  0
    2.4972   -0.0056    0.7376 C   0  0  0  0  0  0
    3.1443    1.1935    0.5081 C   0  0  0  0  0  0
    4.4460    1.1998    0.0272 C   0  0  0  0  0  0
    5.0973    0.0018   -0.2224 C   0  0  0  0  0  0
    4.4461   -1.2000    0.0091 C   0  0  0  0  0  0
    3.1462   -1.2011    0.4949 C   0  0  0  0  0  0
    5.0818   -2.3760   -0.2351 O   0  0  0  0  0  0
    6.3871   -2.0480   -0.7153 C   0  0  0  0  0  0
    5.0816    2.3795   -0.1992 O   0  0  0  0  0  0
    6.3871    2.0589   -0.6838 C   0  0  0  0  0  0
   -7.4859   -0.0023    0.3351 N   0  0  0  0  0  0
   -4.6862    0.0279   -3.5347 H   0  0  0  0  0  0
   -3.0810    0.0234   -3.0386 H   0  0  0  0  0  0
   -1.7344    0.0134   -1.7099 H   0  0  0  0  0  0
   -1.0079   -0.0200    2.5041 H   0  0  0  0  0  0
   -3.4002   -0.0243    2.9621 H   0  0  0  0  0  0
    0.4831    0.0062   -0.7772 H   0  0  0  0  0  0
    0.9205    0.8757    1.8741 H   0  0  0  0  0  0
    0.9204   -0.9043    1.8603 H   0  0  0  0  0  0
    2.6364    2.1266    0.7028 H   0  0  0  0  0  0
    6.1103    0.0047   -0.5970 H   0  0  0  0  0  0
    2.6384   -2.1370    0.6755 H   0  0  0  0  0  0
    6.9378   -2.9648   -0.9260 H   0  0  0  0  0  0
    6.3010   -1.4580   -1.6278 H   0  0  0  0  0  0
    6.9183   -1.4709    0.0416 H   0  0  0  0  0  0
    6.9377    2.9788   -0.8806 H   0  0  0  0  0  0
    6.9182    1.4707    0.0646 H   0  0  0  0  0  0
    6.3013    1.4826   -1.6050 H   0  0  0  0  0  0
   -8.1205    0.0041   -0.3984 H   0  0  0  0  0  0
   -7.8038   -0.0097    1.2515 H   0  0  0  0  0  0
  1  2  1  0  0  0
  1  6  2  0  0  0
  2  3  2  0  0  0
  2 24  1  0  0  0
  3  4  1  0  0  0
  4  5  2  0  0  0
  4 11  1  0  0  0
  5  6  1  0  0  0
  5  8  1  0  0  0
  6  7  1  0  0  0
  7 25  1  0  0  0
  7 26  1  0  0  0
  8  9  2  0  0  0
  8 27  1  0  0  0
  9 10  1  0  0  0
  9 12  1  0  0  0
 10 11  2  0  0  0
 10 28  1  0  0  0
 11 29  1  0  0  0
 12 13  1  0  0  0
 12 30  1  0  0  0
 13 14  1  0  0  0
 13 31  1  0  0  0
 13 32  1  0  0  0
 14 15  1  0  0  0
 14 19  2  0  0  0
 15 16  2  0  0  0
 15 33  1  0  0  0
 16 17  1  0  0  0
 16 22  1  0  0  0
 17 18  2  0  0  0
 17 34  1  0  0  0
 18 19  1  0  0  0
 18 20  1  0  0  0
 19 35  1  0  0  0
 20 21  1  0  0  0
 21 36  1  0  0  0
 21 37  1  0  0  0
 21 38  1  0  0  0
 22 23  1  0  0  0
 23 39  1  0  0  0
 23 40  1  0  0  0
 23 41  1  0  0  0
 24 42  1  0  0  0
 24 43  1  0  0  0
M  END
>  <ACTIVITY>
6.07572

>  <set_rl>
1

>  <Min_dist>
999.9

>  <Avg_dist>
999.9

>  <PC_uM>
2.2

>  <TG_uM>
0.12

>  <RL_uM>
0.84

$$$$
15-13
  Cerius2 12110214553D 1   1.00000                          
 
 46 48  0  0  0  0  0  0  0  0999 V2000
   -5.3240   -0.5359   -0.3405 N   0  0  0  0  0  0
   -5.1844   -0.9221    0.9250 C   0  0  0  0  0  0
   -4.0647   -0.7587    1.6017 N   0  0  0  0  0  0
   -2.9986   -0.1825    1.0237 C   0  0  0  0  0  0
   -3.1020    0.2441   -0.3222 C   0  0  0  0  0  0
   -4.3310    0.0422   -0.9993 C   0  0  0  0  0  0
   -4.4886    0.4374   -2.3111 N   0  0  0  0  0  0
   -2.0045    0.8475   -0.9455 C   0  0  0  0  0  0
   -0.8331    1.0185   -0.2363 C   0  0  0  0  0  0
   -0.7379    0.5949    1.0924 C   0  0  0  0  0  0
   -1.7951    0.0053    1.7170 C   0  0  0  0  0  0
    0.2687    1.6205   -0.8526 N   0  0  0  0  0  0
    1.4722    1.9187   -0.0722 C   0  0  0  0  0  0
    2.4081    0.7386   -0.1216 C   0  0  0  0  0  0
    2.0568   -0.3919   -0.8346 C   0  0  0  0  0  0
    2.9128   -1.4752   -0.8822 C   0  0  0  0  0  0
    4.1284   -1.4304   -0.2137 C   0  0  0  0  0  0
    4.4831   -0.2977    0.5021 C   0  0  0  0  0  0
    3.6245    0.7903    0.5440 C   0  0  0  0  0  0
    3.9696    1.9024    1.2445 O   0  0  0  0  0  0
    5.2538    1.6478    1.8174 C   0  0  0  0  0  0
    4.9699   -2.4965   -0.2605 O   0  0  0  0  0  0
    4.3314   -3.4917   -1.0630 C   0  0  0  0  0  0
    0.2194    1.9529   -2.2786 C   0  0  0  0  0  0
   -6.2602   -1.5201    1.5580 N   0  0  0  0  0  0
   -5.3349    0.2934   -2.7628 H   0  0  0  0  0  0
   -3.7531    0.8594   -2.7822 H   0  0  0  0  0  0
   -2.0732    1.1761   -1.9720 H   0  0  0  0  0  0
    0.1872    0.7368    1.6313 H   0  0  0  0  0  0
   -1.7060   -0.3170    2.7439 H   0  0  0  0  0  0
    1.9688    2.7942   -0.4905 H   0  0  0  0  0  0
    1.1939    2.1186    0.9625 H   0  0  0  0  0  0
    1.1112   -0.4287   -1.3551 H   0  0  0  0  0  0
    2.6359   -2.3577   -1.4397 H   0  0  0  0  0  0
    5.4283   -0.2611    1.0233 H   0  0  0  0  0  0
    5.5741    2.5168    2.3920 H   0  0  0  0  0  0
    5.1930    0.7801    2.4743 H   0  0  0  0  0  0
    5.9738    1.4521    1.0227 H   0  0  0  0  0  0
    4.9724   -4.3708   -1.1298 H   0  0  0  0  0  0
    3.3802   -3.7693   -0.6089 H   0  0  0  0  0  0
    4.1547   -3.0941   -2.0624 H   0  0  0  0  0  0
   -0.7773    1.7424   -2.6664 H   0  0  0  0  0  0
    0.4457    3.0106   -2.4131 H   0  0  0  0  0  0
    0.9530    1.3530   -2.8171 H   0  0  0  0  0  0
   -7.0938   -1.6499    1.0792 H   0  0  0  0  0  0
   -6.1806   -1.8094    2.4805 H   0  0  0  0  0  0
  1  2  1  0  0  0
  1  6  2  0  0  0
  2  3  2  0  0  0
  2 25  1  0  0  0
  3  4  1  0  0  0
  4  5  2  0  0  0
  4 11  1  0  0  0
  5  6  1  0  0  0
  5  8  1  0  0  0
  6  7  1  0  0  0
  7 26  1  0  0  0
  7 27  1  0  0  0
  8  9  2  0  0  0
  8 28  1  0  0  0
  9 10  1  0  0  0
  9 12  1  0  0  0
 10 11  2  0  0  0
 10 29  1  0  0  0
 11 30  1  0  0  0
 12 13  1  0  0  0
 12 24  1  0  0  0
 13 14  1  0  0  0
 13 31  1  0  0  0
 13 32  1  0  0  0
 14 15  1  0  0  0
 14 19  2  0  0  0
 15 16  2  0  0  0
 15 33  1  0  0  0
 16 17  1  0  0  0
 16 34  1  0  0  0
 17 18  2  0  0  0
 17 22  1  0  0  0
 18 19  1  0  0  0
 18 35  1  0  0  0
 19 20  1  0  0  0
 20 21  1  0  0  0
 21 36  1  0  0  0
 21 37  1  0  0  0
 21 38  1  0  0  0
 22 23  1  0  0  0
 23 39  1  0  0  0
 23 40  1  0  0  0
 23 41  1  0  0  0
 24 42  1  0  0  0
 24 43  1  0  0  0
 24 44  1  0  0  0
 25 45  1  0  0  0
 25 46  1  0  0  0
M  END
>  <ACTIVITY>
7.36653

>  <set_rl>
1

>  <Min_dist>
999.9

>  <Avg_dist>
999.9

>  <PC_uM>
0.1

>  <TG_uM>
0.039

>  <RL_uM>
0.043

$$$$
15-15
  Cerius2 12110214553D 1   1.00000                          
 
 44 47  0  0  0  0  0  0  0  0999 V2000
   -5.3630   -0.0072   -0.3353 N   0  0  0  0  0  0
   -5.1763   -1.3079   -0.1265 C   0  0  0  0  0  0
   -4.0028   -1.8185    0.1909 N   0  0  0  0  0  0
   -2.9275   -1.0245    0.3179 C   0  0  0  0  0  0
   -3.0799    0.3666    0.1047 C   0  0  0  0  0  0
   -4.3656    0.8583   -0.2342 C   0  0  0  0  0  0
   -4.5725    2.2041   -0.4537 N   0  0  0  0  0  0
   -1.9739    1.2138    0.2319 C   0  0  0  0  0  0
   -0.7462    0.6785    0.5645 C   0  0  0  0  0  0
   -0.6028   -0.6961    0.7737 C   0  0  0  0  0  0
   -1.6674   -1.5375    0.6546 C   0  0  0  0  0  0
    0.3645    1.5188    0.6931 N   0  0  0  0  0  0
    1.6411    0.9782    1.1667 C   0  0  0  0  0  0
    2.4531    0.5031   -0.0106 C   0  0  0  0  0  0
    3.7252   -0.0597    0.1898 C   0  0  0  0  0  0
    4.4737   -0.5012   -0.9298 C   0  0  0  0  0  0
    3.9295   -0.3673   -2.2186 C   0  0  0  0  0  0
    2.6946    0.1829   -2.3743 C   0  0  0  0  0  0
    1.9560    0.6117   -1.2728 C   0  0  0  0  0  0
    5.7458   -1.0640   -0.7296 C   0  0  0  0  0  0
    6.2409   -1.1773    0.5330 C   0  0  0  0  0  0
    5.5046   -0.7435    1.6341 C   0  0  0  0  0  0
    4.2698   -0.1928    1.4785 C   0  0  0  0  0  0
    0.2513    2.9396    0.3542 C   0  0  0  0  0  0
   -6.2596   -2.1608   -0.2470 N   0  0  0  0  0  0
   -5.4574    2.5273   -0.6850 H   0  0  0  0  0  0
   -3.8333    2.8273   -0.3768 H   0  0  0  0  0  0
   -2.0797    2.2764    0.0709 H   0  0  0  0  0  0
    0.3660   -1.0969    1.0330 H   0  0  0  0  0  0
   -1.5407   -2.5974    0.8190 H   0  0  0  0  0  0
    2.1907    1.7560    1.6970 H   0  0  0  0  0  0
    1.4540    0.1419    1.8402 H   0  0  0  0  0  0
    4.4886   -0.6991   -3.0810 H   0  0  0  0  0  0
    2.2789    0.2850   -3.3659 H   0  0  0  0  0  0
    0.9784    1.0450   -1.4240 H   0  0  0  0  0  0
    6.3273   -1.4051   -1.5733 H   0  0  0  0  0  0
    7.2187   -1.6101    0.6841 H   0  0  0  0  0  0
    5.9204   -0.8455    2.6256 H   0  0  0  0  0  0
    3.7108    0.1389    2.3409 H   0  0  0  0  0  0
   -0.7850    3.1734    0.1101 H   0  0  0  0  0  0
    0.5692    3.5425    1.2048 H   0  0  0  0  0  0
    0.8854    3.1599   -0.5046 H   0  0  0  0  0  0
   -7.1322   -1.8067   -0.4794 H   0  0  0  0  0  0
   -6.1461   -3.1128   -0.0992 H   0  0  0  0  0  0
  1  2  1  0  0  0
  1  6  2  0  0  0
  2  3  2  0  0  0
  2 25  1  0  0  0
  3  4  1  0  0  0
  4  5  2  0  0  0
  4 11  1  0  0  0
  5  6  1  0  0  0
  5  8  1  0  0  0
  6  7  1  0  0  0
  7 26  1  0  0  0
  7 27  1  0  0  0
  8  9  2  0  0  0
  8 28  1  0  0  0
  9 10  1  0  0  0
  9 12  1  0  0  0
 10 11  2  0  0  0
 10 29  1  0  0  0
 11 30  1  0  0  0
 12 13  1  0  0  0
 12 24  1  0  0  0
 13 14  1  0  0  0
 13 31  1  0  0  0
 13 32  1  0  0  0
 14 15  1  0  0  0
 14 19  2  0  0  0
 15 16  2  0  0  0
 15 23  1  0  0  0
 16 17  1  0  0  0
 16 20  1  0  0  0
 17 18  2  0  0  0
 17 33  1  0  0  0
 18 19  1  0  0  0
 18 34  1  0  0  0
 19 35  1  0  0  0
 20 21  2  0  0  0
 20 36  1  0  0  0
 21 22  1  0  0  0
 21 37  1  0  0  0
 22 23  2  0  0  0
 22 38  1  0  0  0
 23 39  1  0  0  0
 24 40  1  0  0  0
 24 41  1  0  0  0
 24 42  1  0  0  0
 25 43  1  0  0  0
 25 44  1  0  0  0
M  END
>  <ACTIVITY>
7.76955

>  <set_rl>
1

>  <Min_dist>
999.9

>  <Avg_dist>
999.9

>  <PC_uM>
0.017

>  <TG_uM>
0.021

>  <RL_uM>
0.017

$$$$
10-5A
  Cerius2 12110214553D 1   1.00000                          
 
 48 50  0  0  0  0  0  0  0  0999 V2000
   -6.1945    0.7789   -1.1962 N   0  0  0  0  0  0
   -6.6045    1.0265    0.0449 C   0  0  0  0  0  0
   -5.9005    0.6924    1.1093 N   0  0  0  0  0  0
   -4.7167    0.0759    0.9744 C   0  0  0  0  0  0
   -4.2404   -0.2079   -0.3283 C   0  0  0  0  0  0
   -5.0400    0.1745   -1.4346 C   0  0  0  0  0  0
   -4.6271   -0.0766   -2.7255 N   0  0  0  0  0  0
   -3.0083   -0.8502   -0.4907 C   0  0  0  0  0  0
   -2.2801   -1.1957    0.6099 C   0  0  0  0  0  0
   -2.7465   -0.9178    1.8914 C   0  0  0  0  0  0
   -3.9428   -0.2926    2.0832 C   0  0  0  0  0  0
   -0.9529   -1.8882    0.4357 C   0  0  0  0  0  0
    0.1027   -0.8954    0.3448 O   0  0  0  0  0  0
    1.3830   -1.2857    0.1854 C   0  0  0  0  0  0
    1.6537   -2.4686    0.1177 O   0  0  0  0  0  0
    2.4529   -0.2794    0.0932 C   0  0  0  0  0  0
    3.7865   -0.6828   -0.0727 C   0  0  0  0  0  0
    4.7886    0.2732   -0.1586 C   0  0  0  0  0  0
    4.4683    1.6240   -0.0800 C   0  0  0  0  0  0
    3.1461    2.0222    0.0845 C   0  0  0  0  0  0
    2.1435    1.0832    0.1651 C   0  0  0  0  0  0
    5.4506    2.5581   -0.1637 O   0  0  0  0  0  0
    4.8176    3.8343   -0.0516 C   0  0  0  0  0  0
    6.0843   -0.1111   -0.3191 O   0  0  0  0  0  0
    6.6356   -0.2623    0.9905 C   0  0  0  0  0  0
    4.0952   -2.0025   -0.1486 O   0  0  0  0  0  0
    4.1546   -2.3337   -1.5374 C   0  0  0  0  0  0
   -7.8198    1.6612    0.2269 N   0  0  0  0  0  0
   -5.1840    0.1904   -3.4734 H   0  0  0  0  0  0
   -3.7796   -0.5202   -2.8859 H   0  0  0  0  0  0
   -2.6365   -1.0713   -1.4803 H   0  0  0  0  0  0
   -2.1515   -1.2013    2.7470 H   0  0  0  0  0  0
   -4.2922   -0.0832    3.0835 H   0  0  0  0  0  0
   -0.7675   -2.5385    1.2906 H   0  0  0  0  0  0
   -0.9710   -2.4840   -0.4769 H   0  0  0  0  0  0
    2.9046    3.0731    0.1448 H   0  0  0  0  0  0
    1.1183    1.3979    0.2928 H   0  0  0  0  0  0
    5.5705    4.6200   -0.1136 H   0  0  0  0  0  0
    4.0983    3.9556   -0.8616 H   0  0  0  0  0  0
    4.3011    3.9008    0.9060 H   0  0  0  0  0  0
    7.6969   -0.4984    0.9130 H   0  0  0  0  0  0
    6.5097    0.6663    1.5472 H   0  0  0  0  0  0
    6.1208   -1.0702    1.5104 H   0  0  0  0  0  0
    4.4388   -3.3799   -1.6496 H   0  0  0  0  0  0
    3.1771   -2.1720   -1.9917 H   0  0  0  0  0  0
    4.8933   -1.7016   -2.0303 H   0  0  0  0  0  0
   -8.3537    1.9161   -0.5418 H   0  0  0  0  0  0
   -8.1381    1.8516    1.1232 H   0  0  0  0  0  0
  1  2  1  0  0  0
  1  6  2  0  0  0
  2  3  2  0  0  0
  2 28  1  0  0  0
  3  4  1  0  0  0
  4  5  2  0  0  0
  4 11  1  0  0  0
  5  6  1  0  0  0
  5  8  1  0  0  0
  6  7  1  0  0  0
  7 29  1  0  0  0
  7 30  1  0  0  0
  8  9  2  0  0  0
  8 31  1  0  0  0
  9 10  1  0  0  0
  9 12  1  0  0  0
 10 11  2  0  0  0
 10 32  1  0  0  0
 11 33  1  0  0  0
 12 13  1  0  0  0
 12 34  1  0  0  0
 12 35  1  0  0  0
 13 14  1  0  0  0
 14 15  2  0  0  0
 14 16  1  0  0  0
 16 17  1  0  0  0
 16 21  2  0  0  0
 17 18  2  0  0  0
 17 26  1  0  0  0
 18 19  1  0  0  0
 18 24  1  0  0  0
 19 20  2  0  0  0
 19 22  1  0  0  0
 20 21  1  0  0  0
 20 36  1  0  0  0
 21 37  1  0  0  0
 22 23  1  0  0  0
 23 38  1  0  0  0
 23 39  1  0  0  0
 23 40  1  0  0  0
 24 25  1  0  0  0
 25 41  1  0  0  0
 25 42  1  0  0  0
 25 43  1  0  0  0
 26 27  1  0  0  0
 27 44  1  0  0  0
 27 45  1  0  0  0
 27 46  1  0  0  0
 28 47  1  0  0  0
 28 48  1  0  0  0
M  END
>  <ACTIVITY>
6.30103

>  <set_rl>
1

>  <Min_dist>
999.9

>  <Avg_dist>
999.9

>  <PC_uM>
1.4

>  <TG_uM>
0.14

>  <RL_uM>
0.5

$$$$
6-7
  Cerius2 12110214553D 1   1.00000                          
 
 24 25  0  0  0  0  0  0  0  0999 V2000
   -1.9223    1.2167   -0.0018 N   0  0  0  0  0  0
   -2.5599    0.0494   -0.0015 C   0  0  0  0  0  0
   -1.9280   -1.1088   -0.0006 N   0  0  0  0  0  0
   -0.5866   -1.1506    0.0000 C   0  0  0  0  0  0
    0.1326    0.0690   -0.0003 C   0  0  0  0  0  0
   -0.5983    1.2806   -0.0013 C   0  0  0  0  0  0
    0.0503    2.4971   -0.0012 N   0  0  0  0  0  0
    1.5365    0.0473    0.0008 C   0  0  0  0  0  0
    2.1931   -1.1673    0.0022 C   0  0  0  0  0  0
    1.4787   -2.3592    0.0025 C   0  0  0  0  0  0
    0.1145   -2.3631    0.0014 C   0  0  0  0  0  0
    2.2405    1.2076    0.0000 O   0  0  0  0  0  0
    3.6243    0.8511    0.0015 C   0  0  0  0  0  0
   -3.9429    0.0497   -0.0016 N   0  0  0  0  0  0
    0.9658    2.5586   -0.3158 H   0  0  0  0  0  0
   -0.4088    3.2915    0.3135 H   0  0  0  0  0  0
    3.2728   -1.1912    0.0027 H   0  0  0  0  0  0
    2.0124   -3.2982    0.0032 H   0  0  0  0  0  0
   -0.4239   -3.2994    0.0014 H   0  0  0  0  0  0
    4.2325    1.7557    0.0009 H   0  0  0  0  0  0
    3.8473    0.2639    0.8923 H   0  0  0  0  0  0
    3.8486    0.2619   -0.8877 H   0  0  0  0  0  0
   -4.4277    0.8899   -0.0019 H   0  0  0  0  0  0
   -4.4281   -0.7902   -0.0014 H   0  0  0  0  0  0
  1  2  1  0  0  0
  1  6  2  0  0  0
  2  3  2  0  0  0
  2 14  1  0  0  0
  3  4  1  0  0  0
  4  5  2  0  0  0
  4 11  1  0  0  0
  5  6  1  0  0  0
  5  8  1  0  0  0
  6  7  1  0  0  0
  7 15  1  0  0  0
  7 16  1  0  0  0
  8  9  2  0  0  0
  8 12  1  0  0  0
  9 10  1  0  0  0
  9 17  1  0  0  0
 10 11  2  0  0  0
 10 18  1  0  0  0
 11 19  1  0  0  0
 12 13  1  0  0  0
 13 20  1  0  0  0
 13 21  1  0  0  0
 13 22  1  0  0  0
 14 23  1  0  0  0
 14 24  1  0  0  0
M  END
>  <ACTIVITY>
5.92082

>  <set_rl>
1

>  <Min_dist>
999.9

>  <Avg_dist>
999.9

>  <PC_uM>
4.5

>  <TG_uM>
0.48

>  <RL_uM>
1.2

$$$$
6-14
  Cerius2 12110214553D 1   1.00000                          
 
 23 24  0  0  0  0  0  0  0  0999 V2000
   -2.1032    0.8542    0.0000 N   0  0  0  0  0  0
   -2.3296   -0.4567   -0.0002 C   0  0  0  0  0  0
   -1.3580   -1.3489   -0.0003 N   0  0  0  0  0  0
   -0.0753   -0.9562   -0.0001 C   0  0  0  0  0  0
    0.2132    0.4300    0.0001 C   0  0  0  0  0  0
   -0.8717    1.3424    0.0002 C   0  0  0  0  0  0
   -0.6508    2.7030   -0.0001 N   0  0  0  0  0  0
    1.5443    0.8604    0.0002 C   0  0  0  0  0  0
    2.5492   -0.0621    0.0002 C   0  0  0  0  0  0
    2.2678   -1.4252   -0.0001 C   0  0  0  0  0  0
    0.9814   -1.8768    0.0002 C   0  0  0  0  0  0
    3.9833    0.4009   -0.0002 C   0  0  0  0  0  0
   -3.6388   -0.9028    0.0001 N   0  0  0  0  0  0
   -1.4023    3.3163    0.0000 H   0  0  0  0  0  0
    0.2561    3.0471   -0.0003 H   0  0  0  0  0  0
    1.7746    1.9156    0.0000 H   0  0  0  0  0  0
    3.0809   -2.1360   -0.0001 H   0  0  0  0  0  0
    0.7780   -2.9375    0.0001 H   0  0  0  0  0  0
    4.3293    0.5127    1.0274 H   0  0  0  0  0  0
    4.6024   -0.3345   -0.5140 H   0  0  0  0  0  0
    4.0555    1.3594   -0.5141 H   0  0  0  0  0  0
   -4.3688   -0.2641    0.0005 H   0  0  0  0  0  0
   -3.8269   -1.8544    0.0000 H   0  0  0  0  0  0
  1  2  1  0  0  0
  1  6  2  0  0  0
  2  3  2  0  0  0
  2 13  1  0  0  0
  3  4  1  0  0  0
  4  5  2  0  0  0
  4 11  1  0  0  0
  5  6  1  0  0  0
  5  8  1  0  0  0
  6  7  1  0  0  0
  7 14  1  0  0  0
  7 15  1  0  0  0
  8  9  2  0  0  0
  8 16  1  0  0  0
  9 10  1  0  0  0
  9 12  1  0  0  0
 10 11  2  0  0  0
 10 17  1  0  0  0
 11 18  1  0  0  0
 12 19  1  0  0  0
 12 20  1  0  0  0
 12 21  1  0  0  0
 13 22  1  0  0  0
 13 23  1  0  0  0
M  END
>  <ACTIVITY>
4.25964

>  <set_rl>
1

>  <Min_dist>
999.9

>  <Avg_dist>
999.9

>  <PC_uM>
20

>  <TG_uM>
N/A

>  <RL_uM>
55

$$$$
6-15
  Cerius2 12110214553D 1   1.00000                          
 
 23 24  0  0  0  0  0  0  0  0999 V2000
   -3.0966    0.9327    0.0000 N   0  0  0  0  0  0
   -3.4096   -0.3602   -0.0002 C   0  0  0  0  0  0
   -2.4993   -1.3151   -0.0003 N   0  0  0  0  0  0
   -1.1934   -1.0083   -0.0001 C   0  0  0  0  0  0
   -0.8135    0.3556    0.0001 C   0  0  0  0  0  0
   -1.8354    1.3381    0.0002 C   0  0  0  0  0  0
   -1.5247    2.6810   -0.0001 N   0  0  0  0  0  0
    0.5432    0.6968    0.0003 C   0  0  0  0  0  0
    1.4847   -0.2905    0.0003 C   0  0  0  0  0  0
    1.1134   -1.6319    0.0000 C   0  0  0  0  0  0
   -0.2001   -1.9971    0.0003 C   0  0  0  0  0  0
    2.9464    0.0763    0.0000 C   0  0  0  0  0  0
    3.7197   -1.0895    0.0000 F   0  0  0  0  0  0
    3.2380    0.8293   -1.1424 F   0  0  0  0  0  0
    3.2384    0.8296    1.1421 F   0  0  0  0  0  0
   -4.7454   -0.7184    0.0000 N   0  0  0  0  0  0
   -2.2338    3.3429    0.0000 H   0  0  0  0  0  0
   -0.5969    2.9642   -0.0003 H   0  0  0  0  0  0
    0.8431    1.7343    0.0001 H   0  0  0  0  0  0
    1.8776   -2.3951    0.0000 H   0  0  0  0  0  0
   -0.4735   -3.0419    0.0001 H   0  0  0  0  0  0
   -5.4315   -0.0327    0.0004 H   0  0  0  0  0  0
   -4.9963   -1.6554   -0.0001 H   0  0  0  0  0  0
  1  2  1  0  0  0
  1  6  2  0  0  0
  2  3  2  0  0  0
  2 16  1  0  0  0
  3  4  1  0  0  0
  4  5  2  0  0  0
  4 11  1  0  0  0
  5  6  1  0  0  0
  5  8  1  0  0  0
  6  7  1  0  0  0
  7 17  1  0  0  0
  7 18  1  0  0  0
  8  9  2  0  0  0
  8 19  1  0  0  0
  9 10  1  0  0  0
  9 12  1  0  0  0
 10 11  2  0  0  0
 10 20  1  0  0  0
 11 21  1  0  0  0
 12 13  1  0  0  0
 12 14  1  0  0  0
 12 15  1  0  0  0
 16 22  1  0  0  0
 16 23  1  0  0  0
M  END
>  <ACTIVITY>
5.38722

>  <set_rl>
1

>  <Min_dist>
999.9

>  <Avg_dist>
999.9

>  <PC_uM>
2.7

>  <TG_uM>
3.1

>  <RL_uM>
4.1

$$$$
6-16
  Cerius2 12110214553D 1   1.00000                          
 
 20 21  0  0  0  0  0  0  0  0999 V2000
   -2.1700    0.8533    0.0003 N   0  0  0  0  0  0
   -2.3969   -0.4576   -0.0001 C   0  0  0  0  0  0
   -1.4258   -1.3501   -0.0002 N   0  0  0  0  0  0
   -0.1426   -0.9576   -0.0003 C   0  0  0  0  0  0
    0.1463    0.4283   -0.0004 C   0  0  0  0  0  0
   -0.9384    1.3410    0.0002 C   0  0  0  0  0  0
   -0.7170    2.7018   -0.0003 N   0  0  0  0  0  0
    1.4774    0.8589   -0.0001 C   0  0  0  0  0  0
    2.4835   -0.0650    0.0002 C   0  0  0  0  0  0
    2.2002   -1.4297   -0.0002 C   0  0  0  0  0  0
    0.9133   -1.8793    0.0000 C   0  0  0  0  0  0
    3.7694    0.3492    0.0005 F   0  0  0  0  0  0
   -3.7067   -0.9033    0.0001 N   0  0  0  0  0  0
   -1.4683    3.3154    0.0001 H   0  0  0  0  0  0
    0.1900    3.0456   -0.0010 H   0  0  0  0  0  0
    1.7078    1.9140   -0.0005 H   0  0  0  0  0  0
    3.0124   -2.1415   -0.0003 H   0  0  0  0  0  0
    0.7085   -2.9397    0.0000 H   0  0  0  0  0  0
   -4.4365   -0.2644    0.0005 H   0  0  0  0  0  0
   -3.8951   -1.8549   -0.0002 H   0  0  0  0  0  0
  1  2  1  0  0  0
  1  6  2  0  0  0
  2  3  2  0  0  0
  2 13  1  0  0  0
  3  4  1  0  0  0
  4  5  2  0  0  0
  4 11  1  0  0  0
  5  6  1  0  0  0
  5  8  1  0  0  0
  6  7  1  0  0  0
  7 14  1  0  0  0
  7 15  1  0  0  0
  8  9  2  0  0  0
  8 16  1  0  0  0
  9 10  1  0  0  0
  9 12  1  0  0  0
 10 11  2  0  0  0
 10 17  1  0  0  0
 11 18  1  0  0  0
 13 19  1  0  0  0
 13 20  1  0  0  0
M  END
>  <ACTIVITY>
3.34486

>  <set_rl>
1

>  <Min_dist>
999.9

>  <Avg_dist>
999.9

>  <PC_uM>
119

>  <TG_uM>
104

>  <RL_uM>
452

$$$$
6-21
  Cerius2 12110214553D 1   1.00000                          
 
 23 24  0  0  0  0  0  0  0  0999 V2000
   -2.2955    0.3734    0.0000 N   0  0  0  0  0  0
   -2.0898   -0.9409   -0.0002 C   0  0  0  0  0  0
   -0.8834   -1.4746   -0.0003 N   0  0  0  0  0  0
    0.2057   -0.6914   -0.0001 C   0  0  0  0  0  0
    0.0346    0.7141    0.0001 C   0  0  0  0  0  0
   -1.2855    1.2306    0.0001 C   0  0  0  0  0  0
   -1.5125    2.5902   -0.0002 N   0  0  0  0  0  0
    1.1574    1.5485    0.0002 C   0  0  0  0  0  0
    2.4051    0.9968    0.0002 C   0  0  0  0  0  0
    2.5755   -0.3845    0.0000 C   0  0  0  0  0  0
    1.5018   -1.2247    0.0003 C   0  0  0  0  0  0
    3.9682   -0.9603   -0.0001 C   0  0  0  0  0  0
   -3.1868   -1.7831    0.0002 N   0  0  0  0  0  0
   -2.4209    2.9303   -0.0001 H   0  0  0  0  0  0
   -0.7637    3.2069   -0.0004 H   0  0  0  0  0  0
    1.0374    2.6219    0.0000 H   0  0  0  0  0  0
    3.2722    1.6406   -0.0001 H   0  0  0  0  0  0
    1.6491   -2.2946    0.0001 H   0  0  0  0  0  0
    4.3039   -1.0992    1.0276 H   0  0  0  0  0  0
    3.9639   -1.9215   -0.5140 H   0  0  0  0  0  0
    4.6440   -0.2766   -0.5138 H   0  0  0  0  0  0
   -4.0831   -1.4122    0.0005 H   0  0  0  0  0  0
   -3.0599   -2.7448    0.0000 H   0  0  0  0  0  0
  1  2  1  0  0  0
  1  6  2  0  0  0
  2  3  2  0  0  0
  2 13  1  0  0  0
  3  4  1  0  0  0
  4  5  2  0  0  0
  4 11  1  0  0  0
  5  6  1  0  0  0
  5  8  1  0  0  0
  6  7  1  0  0  0
  7 14  1  0  0  0
  7 15  1  0  0  0
  8  9  2  0  0  0
  8 16  1  0  0  0
  9 10  1  0  0  0
  9 17  1  0  0  0
 10 11  2  0  0  0
 10 12  1  0  0  0
 11 18  1  0  0  0
 12 19  1  0  0  0
 12 20  1  0  0  0
 12 21  1  0  0  0
 13 22  1  0  0  0
 13 23  1  0  0  0
M  END
>  <ACTIVITY>
4.37675

>  <set_rl>
1

>  <Min_dist>
999.9

>  <Avg_dist>
999.9

>  <PC_uM>
65

>  <TG_uM>
81

>  <RL_uM>
42

$$$$
6-22
  Cerius2 12110214553D 1   1.00000                          
 
 23 24  0  0  0  0  0  0  0  0999 V2000
   -3.3965    0.1245    0.0000 N   0  0  0  0  0  0
   -2.9919   -1.1428   -0.0002 C   0  0  0  0  0  0
   -1.7180   -1.4854   -0.0003 N   0  0  0  0  0  0
   -0.7617   -0.5446   -0.0001 C   0  0  0  0  0  0
   -1.1460    0.8181    0.0001 C   0  0  0  0  0  0
   -2.5297    1.1263    0.0001 C   0  0  0  0  0  0
   -2.9622    2.4350   -0.0002 N   0  0  0  0  0  0
   -0.1643    1.8146    0.0002 C   0  0  0  0  0  0
    1.1531    1.4605    0.0002 C   0  0  0  0  0  0
    1.5331    0.1216    0.0000 C   0  0  0  0  0  0
    0.6008   -0.8731    0.0003 C   0  0  0  0  0  0
    2.9976   -0.2341    0.0000 C   0  0  0  0  0  0
    3.7620    0.9376    0.0002 F   0  0  0  0  0  0
    3.2950   -0.9852    1.1422 F   0  0  0  0  0  0
    3.2951   -0.9849   -1.1424 F   0  0  0  0  0  0
   -3.9470   -2.1431    0.0001 N   0  0  0  0  0  0
   -3.9120    2.6320   -0.0002 H   0  0  0  0  0  0
   -2.3168    3.1591   -0.0004 H   0  0  0  0  0  0
   -0.4473    2.8569   -0.0001 H   0  0  0  0  0  0
    1.9115    2.2295   -0.0001 H   0  0  0  0  0  0
    0.9102   -1.9079    0.0002 H   0  0  0  0  0  0
   -4.8895   -1.9138    0.0005 H   0  0  0  0  0  0
   -3.6743   -3.0740    0.0000 H   0  0  0  0  0  0
  1  2  1  0  0  0
  1  6  2  0  0  0
  2  3  2  0  0  0
  2 16  1  0  0  0
  3  4  1  0  0  0
  4  5  2  0  0  0
  4 11  1  0  0  0
  5  6  1  0  0  0
  5  8  1  0  0  0
  6  7  1  0  0  0
  7 17  1  0  0  0
  7 18  1  0  0  0
  8  9  2  0  0  0
  8 19  1  0  0  0
  9 10  1  0  0  0
  9 20  1  0  0  0
 10 11  2  0  0  0
 10 12  1  0  0  0
 11 21  1  0  0  0
 12 13  1  0  0  0
 12 14  1  0  0  0
 12 15  1  0  0  0
 16 22  1  0  0  0
 16 23  1  0  0  0
M  END
>  <ACTIVITY>
4.20066

>  <set_rl>
1

>  <Min_dist>
999.9

>  <Avg_dist>
999.9

>  <PC_uM>
31

>  <TG_uM>
N/A

>  <RL_uM>
63

$$$$
6-23
  Cerius2 12110214553D 1   1.00000                          
 
 20 21  0  0  0  0  0  0  0  0999 V2000
   -2.3666    0.3602   -0.0001 N   0  0  0  0  0  0
   -2.1473   -0.9518   -0.0002 C   0  0  0  0  0  0
   -0.9353   -1.4727   -0.0003 N   0  0  0  0  0  0
    0.1456   -0.6777   -0.0003 C   0  0  0  0  0  0
   -0.0405    0.7263   -0.0002 C   0  0  0  0  0  0
   -1.3655    1.2282   -0.0002 C   0  0  0  0  0  0
   -1.6070    2.5854   -0.0001 N   0  0  0  0  0  0
    1.0731    1.5737    0.0002 C   0  0  0  0  0  0
    2.3265    1.0372    0.0006 C   0  0  0  0  0  0
    2.5131   -0.3447    0.0001 C   0  0  0  0  0  0
    1.4462   -1.1975    0.0007 C   0  0  0  0  0  0
    3.7671   -0.8472   -0.0004 F   0  0  0  0  0  0
   -3.2355   -1.8055    0.0003 N   0  0  0  0  0  0
   -2.5190    2.9157   -0.0001 H   0  0  0  0  0  0
   -0.8649    3.2101   -0.0001 H   0  0  0  0  0  0
    0.9406    2.6455   -0.0001 H   0  0  0  0  0  0
    3.1861    1.6910    0.0010 H   0  0  0  0  0  0
    1.6044   -2.2658    0.0005 H   0  0  0  0  0  0
   -4.1356   -1.4439    0.0007 H   0  0  0  0  0  0
   -3.0985   -2.7658    0.0003 H   0  0  0  0  0  0
  1  2  1  0  0  0
  1  6  2  0  0  0
  2  3  2  0  0  0
  2 13  1  0  0  0
  3  4  1  0  0  0
  4  5  2  0  0  0
  4 11  1  0  0  0
  5  6  1  0  0  0
  5  8  1  0  0  0
  6  7  1  0  0  0
  7 14  1  0  0  0
  7 15  1  0  0  0
  8  9  2  0  0  0
  8 16  1  0  0  0
  9 10  1  0  0  0
  9 17  1  0  0  0
 10 11  2  0  0  0
 10 12  1  0  0  0
 11 18  1  0  0  0
 13 19  1  0  0  0
 13 20  1  0  0  0
M  END
>  <ACTIVITY>
3.72354

>  <set_rl>
1

>  <Min_dist>
999.9

>  <Avg_dist>
999.9

>  <PC_uM>
41

>  <TG_uM>
N/A

>  <RL_uM>
189

$$$$
6-1
  Cerius2 12110214553D 1   1.00000                          
 
 23 24  0  0  0  0  0  0  0  0999 V2000
   -1.7846    1.0028   -0.0024 N   0  0  0  0  0  0
   -2.2253   -0.2524   -0.0023 C   0  0  0  0  0  0
   -1.4152   -1.2935   -0.0010 N   0  0  0  0  0  0
   -0.0851   -1.1190    0.0004 C   0  0  0  0  0  0
    0.4293    0.2001    0.0004 C   0  0  0  0  0  0
   -0.4892    1.2799   -0.0011 C   0  0  0  0  0  0
   -0.0457    2.5850   -0.0017 N   0  0  0  0  0  0
    1.8133    0.4038    0.0018 C   0  0  0  0  0  0
    2.6513   -0.6727    0.0033 C   0  0  0  0  0  0
    2.1477   -1.9702    0.0033 C   0  0  0  0  0  0
    0.8042   -2.2022    0.0024 C   0  0  0  0  0  0
    2.3746    1.8024    0.0013 C   0  0  0  0  0  0
   -3.5904   -0.4752   -0.0033 N   0  0  0  0  0  0
    0.6991    2.8439   -0.5667 H   0  0  0  0  0  0
   -0.4783    3.2445    0.5629 H   0  0  0  0  0  0
    3.7199   -0.5159    0.0040 H   0  0  0  0  0  0
    2.8317   -2.8060    0.0045 H   0  0  0  0  0  0
    0.4276   -3.2144    0.0024 H   0  0  0  0  0  0
    2.3866    2.1887   -1.0179 H   0  0  0  0  0  0
    1.7525    2.4438    0.6256 H   0  0  0  0  0  0
    3.3905    1.7864    0.3958 H   0  0  0  0  0  0
   -4.2043    0.2758   -0.0040 H   0  0  0  0  0  0
   -3.9337   -1.3824   -0.0032 H   0  0  0  0  0  0
  1  2  1  0  0  0
  1  6  2  0  0  0
  2  3  2  0  0  0
  2 13  1  0  0  0
  3  4  1  0  0  0
  4  5  2  0  0  0
  4 11  1  0  0  0
  5  6  1  0  0  0
  5  8  1  0  0  0
  6  7  1  0  0  0
  7 14  1  0  0  0
  7 15  1  0  0  0
  8  9  2  0  0  0
  8 12  1  0  0  0
  9 10  1  0  0  0
  9 16  1  0  0  0
 10 11  2  0  0  0
 10 17  1  0  0  0
 11 18  1  0  0  0
 12 19  1  0  0  0
 12 20  1  0  0  0
 12 21  1  0  0  0
 13 22  1  0  0  0
 13 23  1  0  0  0
M  END
>  <ACTIVITY>
5.13077

>  <set_rl>
1

>  <Min_dist>
999.9

>  <Avg_dist>
999.9

>  <PC_uM>
1.5

>  <TG_uM>
4.98

>  <RL_uM>
7.4

$$$$
6-26
  Cerius2 12110214553D 1   1.00000                          
 
 20 21  0  0  0  0  0  0  0  0999 V2000
   -2.6455    0.9424   -0.0015 N   0  0  0  0  0  0
   -3.1172   -0.3014   -0.0015 C   0  0  0  0  0  0
   -2.3331   -1.3622   -0.0007 N   0  0  0  0  0  0
   -0.9988   -1.2204   -0.0003 C   0  0  0  0  0  0
   -0.4523    0.0858   -0.0007 C   0  0  0  0  0  0
   -1.3435    1.1874   -0.0011 C   0  0  0  0  0  0
   -0.8678    2.4813   -0.0010 N   0  0  0  0  0  0
    0.9374    0.2557    0.0003 C   0  0  0  0  0  0
    1.7495   -0.8434    0.0016 C   0  0  0  0  0  0
    1.2124   -2.1278    0.0015 C   0  0  0  0  0  0
   -0.1368   -2.3252    0.0011 C   0  0  0  0  0  0
    3.4730   -0.6353    0.0027 Cl  0  0  0  0  0  0
    1.6236    1.8503   -0.0008 Cl  0  0  0  0  0  0
   -4.4875   -0.4904   -0.0020 N   0  0  0  0  0  0
   -0.1204    2.7233   -0.5701 H   0  0  0  0  0  0
   -1.2804    3.1497    0.5680 H   0  0  0  0  0  0
    1.8746   -2.9810    0.0018 H   0  0  0  0  0  0
   -0.5389   -3.3275    0.0010 H   0  0  0  0  0  0
   -5.0827    0.2755   -0.0022 H   0  0  0  0  0  0
   -4.8532   -1.3888   -0.0020 H   0  0  0  0  0  0
  1  2  1  0  0  0
  1  6  2  0  0  0
  2  3  2  0  0  0
  2 14  1  0  0  0
  3  4  1  0  0  0
  4  5  2  0  0  0
  4 11  1  0  0  0
  5  6  1  0  0  0
  5  8  1  0  0  0
  6  7  1  0  0  0
  7 15  1  0  0  0
  7 16  1  0  0  0
  8  9  2  0  0  0
  8 13  1  0  0  0
  9 10  1  0  0  0
  9 12  1  0  0  0
 10 11  2  0  0  0
 10 17  1  0  0  0
 11 18  1  0  0  0
 14 19  1  0  0  0
 14 20  1  0  0  0
M  END
>  <ACTIVITY>
5.45593

>  <set_rl>
1

>  <Min_dist>
999.9

>  <Avg_dist>
999.9

>  <PC_uM>
9.7

>  <TG_uM>
N/A

>  <RL_uM>
3.5

$$$$
10-18A
  Cerius2 12110214553D 1   1.00000                          
 
 24 25  0  0  0  0  0  0  0  0999 V2000
   -2.4426    0.9235    0.0611 N   0  0  0  0  0  0
   -2.7292   -0.3744    0.1162 C   0  0  0  0  0  0
   -1.8035   -1.3128    0.0638 N   0  0  0  0  0  0
   -0.5081   -0.9831   -0.0497 C   0  0  0  0  0  0
   -0.1562    0.3868   -0.1119 C   0  0  0  0  0  0
   -1.1938    1.3509   -0.0511 C   0  0  0  0  0  0
   -0.9104    2.6986   -0.1076 N   0  0  0  0  0  0
    1.1891    0.7517   -0.2304 C   0  0  0  0  0  0
    2.1466   -0.2184   -0.2845 C   0  0  0  0  0  0
    1.8028   -1.5658   -0.2235 C   0  0  0  0  0  0
    0.5011   -1.9540   -0.1076 C   0  0  0  0  0  0
    3.5959    0.1739   -0.4126 C   0  0  0  0  0  0
    4.1637    0.3312    0.8893 O   0  0  0  0  0  0
   -4.0534   -0.7560    0.2339 N   0  0  0  0  0  0
   -1.6300    3.3477   -0.0649 H   0  0  0  0  0  0
    0.0085    2.9980   -0.1901 H   0  0  0  0  0  0
    1.4676    1.7941   -0.2790 H   0  0  0  0  0  0
    2.5792   -2.3152   -0.2683 H   0  0  0  0  0  0
    0.2490   -3.0031   -0.0614 H   0  0  0  0  0  0
    4.1363   -0.6032   -0.9532 H   0  0  0  0  0  0
    3.6708    1.1148   -0.9578 H   0  0  0  0  0  0
    5.0891    0.5816    0.7623 H   0  0  0  0  0  0
   -4.7504   -0.0826    0.2744 H   0  0  0  0  0  0
   -4.2851   -1.6970    0.2758 H   0  0  0  0  0  0
  1  2  1  0  0  0
  1  6  2  0  0  0
  2  3  2  0  0  0
  2 14  1  0  0  0
  3  4  1  0  0  0
  4  5  2  0  0  0
  4 11  1  0  0  0
  5  6  1  0  0  0
  5  8  1  0  0  0
  6  7  1  0  0  0
  7 15  1  0  0  0
  7 16  1  0  0  0
  8  9  2  0  0  0
  8 17  1  0  0  0
  9 10  1  0  0  0
  9 12  1  0  0  0
 10 11  2  0  0  0
 10 18  1  0  0  0
 11 19  1  0  0  0
 12 13  1  0  0  0
 12 20  1  0  0  0
 12 21  1  0  0  0
 13 22  1  0  0  0
 14 23  1  0  0  0
 14 24  1  0  0  0
M  END
>  <ACTIVITY>
4.39469

>  <set_rl>
1

>  <Min_dist>
999.9

>  <Avg_dist>
999.9

>  <PC_uM>
51.7

>  <TG_uM>
44.9

>  <RL_uM>
40.3

$$$$
19-1
  Cerius2 12110214553D 1   1.00000                          
 
 51 53  0  0  0  0  0  0  0  0999 V2000
    3.6720   -0.1736    0.2254 C   0  0  0  0  0  0
    4.3072   -1.3135    0.7354 C   0  0  0  0  0  0
    5.6304   -1.4013    0.6726 N   0  0  0  0  0  0
    6.3427   -0.4226    0.1345 C   0  0  0  0  0  0
    5.7678    0.6630   -0.3556 N   0  0  0  0  0  0
    4.4458    0.8159   -0.3289 C   0  0  0  0  0  0
    3.8589    2.0705   -0.9169 C   0  0  0  0  0  0
    2.4282    2.2749   -0.4210 C   0  0  0  0  0  0
    1.6439    0.9776   -0.6498 C   0  0  0  0  0  0
    2.1738   -0.0835    0.3145 C   0  0  0  0  0  0
    0.1576    1.2208   -0.3801 C   0  0  0  0  0  0
   -0.5881   -0.0209   -0.5999 N   0  0  0  0  0  0
   -1.9745   -0.0464   -0.4140 C   0  0  0  0  0  0
   -2.6809   -1.2233   -0.6223 C   0  0  0  0  0  0
   -4.0546   -1.2494   -0.4384 C   0  0  0  0  0  0
   -4.7246   -0.0971   -0.0453 C   0  0  0  0  0  0
   -4.0169    1.0805    0.1630 C   0  0  0  0  0  0
   -2.6425    1.1036   -0.0159 C   0  0  0  0  0  0
   -4.6718    2.2086    0.5477 O   0  0  0  0  0  0
   -3.6857    3.2346    0.6779 C   0  0  0  0  0  0
   -6.0743   -0.1219    0.1352 O   0  0  0  0  0  0
   -6.3019   -0.4713    1.5020 C   0  0  0  0  0  0
   -4.7464   -2.4022   -0.6429 O   0  0  0  0  0  0
   -3.7930   -3.3923   -1.0335 C   0  0  0  0  0  0
    7.7209   -0.5387    0.0844 N   0  0  0  0  0  0
    3.5631   -2.3370    1.2990 N   0  0  0  0  0  0
    4.4678    2.9254   -0.6227 H   0  0  0  0  0  0
    3.8555    1.9915   -2.0040 H   0  0  0  0  0  0
    2.4398    2.5131    0.6426 H   0  0  0  0  0  0
    1.9608    3.0882   -0.9762 H   0  0  0  0  0  0
    1.7827    0.6421   -1.6776 H   0  0  0  0  0  0
    1.7396   -1.0504    0.0602 H   0  0  0  0  0  0
    1.8877    0.1799    1.3327 H   0  0  0  0  0  0
    0.0242    1.5471    0.6513 H   0  0  0  0  0  0
   -0.2129    1.9916   -1.0559 H   0  0  0  0  0  0
   -0.1206   -0.8253   -0.8742 H   0  0  0  0  0  0
   -2.1601   -2.1186   -0.9281 H   0  0  0  0  0  0
   -2.0923    2.0187    0.1464 H   0  0  0  0  0  0
   -4.1660    4.1632    0.9863 H   0  0  0  0  0  0
   -2.9509    2.9394    1.4269 H   0  0  0  0  0  0
   -3.1880    3.3838   -0.2803 H   0  0  0  0  0  0
   -7.3742   -0.5038    1.6950 H   0  0  0  0  0  0
   -5.8665   -1.4499    1.7042 H   0  0  0  0  0  0
   -5.8386    0.2733    2.1493 H   0  0  0  0  0  0
   -4.3037   -4.3390   -1.2095 H   0  0  0  0  0  0
   -3.2925   -3.0740   -1.9480 H   0  0  0  0  0  0
   -3.0554   -3.5191   -0.2410 H   0  0  0  0  0  0
    8.1543   -1.3299    0.4409 H   0  0  0  0  0  0
    8.2535    0.1713   -0.3071 H   0  0  0  0  0  0
    4.0086   -3.1238    1.6504 H   0  0  0  0  0  0
    2.5966   -2.2669    1.3423 H   0  0  0  0  0  0
  1  2  1  0  0  0
  1  6  2  0  0  0
  1 10  1  0  0  0
  2  3  2  0  0  0
  2 26  1  0  0  0
  3  4  1  0  0  0
  4  5  2  0  0  0
  4 25  1  0  0  0
  5  6  1  0  0  0
  6  7  1  0  0  0
  7  8  1  0  0  0
  7 27  1  0  0  0
  7 28  1  0  0  0
  8  9  1  0  0  0
  8 29  1  0  0  0
  8 30  1  0  0  0
  9 10  1  0  0  0
  9 11  1  0  0  0
  9 31  1  0  0  0
 10 32  1  0  0  0
 10 33  1  0  0  0
 11 12  1  0  0  0
 11 34  1  0  0  0
 11 35  1  0  0  0
 12 13  1  0  0  0
 12 36  1  0  0  0
 13 14  1  0  0  0
 13 18  2  0  0  0
 14 15  2  0  0  0
 14 37  1  0  0  0
 15 16  1  0  0  0
 15 23  1  0  0  0
 16 17  2  0  0  0
 16 21  1  0  0  0
 17 18  1  0  0  0
 17 19  1  0  0  0
 18 38  1  0  0  0
 19 20  1  0  0  0
 20 39  1  0  0  0
 20 40  1  0  0  0
 20 41  1  0  0  0
 21 22  1  0  0  0
 22 42  1  0  0  0
 22 43  1  0  0  0
 22 44  1  0  0  0
 23 24  1  0  0  0
 24 45  1  0  0  0
 24 46  1  0  0  0
 24 47  1  0  0  0
 25 48  1  0  0  0
 25 49  1  0  0  0
 26 50  1  0  0  0
 26 51  1  0  0  0
M  END
>  <ACTIVITY>
6.5376

>  <set_rl>
1

>  <Min_dist>
999.9

>  <Avg_dist>
999.9

>  <PC_uM>
4.6

>  <TG_uM>
0.054

>  <RL_uM>
0.29

$$$$
19-2
  Cerius2 12110214553D 1   1.00000                          
 
 54 56  0  0  0  0  0  0  0  0999 V2000
    2.5217   -0.0880   -0.1576 C   0  0  0  0  0  0
    2.4989   -1.3915   -0.6707 C   0  0  0  0  0  0
    3.6460   -1.9984   -0.9506 N   0  0  0  0  0  0
    4.7994   -1.3794   -0.7471 C   0  0  0  0  0  0
    4.8486   -0.1485   -0.2655 N   0  0  0  0  0  0
    3.7375    0.5204    0.0339 C   0  0  0  0  0  0
    3.8679    1.9223    0.5649 C   0  0  0  0  0  0
    2.5720    2.3586    1.2467 C   0  0  0  0  0  0
    1.4049    2.0934    0.2885 C   0  0  0  0  0  0
    1.2149    0.5816    0.1657 C   0  0  0  0  0  0
    0.1287    2.7283    0.8443 C   0  0  0  0  0  0
   -0.9838    2.4727   -0.0740 N   0  0  0  0  0  0
   -1.7679    1.3242    0.0795 C   0  0  0  0  0  0
   -2.8220    1.0824   -0.7909 C   0  0  0  0  0  0
   -3.5993   -0.0553   -0.6394 C   0  0  0  0  0  0
   -3.3231   -0.9539    0.3840 C   0  0  0  0  0  0
   -2.2678   -0.7112    1.2549 C   0  0  0  0  0  0
   -1.4878    0.4241    1.0987 C   0  0  0  0  0  0
   -1.9968   -1.5900    2.2567 O   0  0  0  0  0  0
   -0.8722   -1.0703    2.9690 C   0  0  0  0  0  0
   -4.0866   -2.0717    0.5337 O   0  0  0  0  0  0
   -3.4755   -3.0975   -0.2513 C   0  0  0  0  0  0
   -4.6322   -0.2919   -1.4918 O   0  0  0  0  0  0
   -4.6601    0.7955   -2.4186 C   0  0  0  0  0  0
   -1.2753    3.4198   -1.1530 C   0  0  0  0  0  0
    5.9805   -2.0363   -1.0449 N   0  0  0  0  0  0
    1.2933   -2.0398   -0.8830 N   0  0  0  0  0  0
    4.6846    1.9601    1.2857 H   0  0  0  0  0  0
    4.0873    2.6009   -0.2594 H   0  0  0  0  0  0
    2.4301    1.7866    2.1637 H   0  0  0  0  0  0
    2.6205    3.4224    1.4791 H   0  0  0  0  0  0
    1.6315    2.5157   -0.6905 H   0  0  0  0  0  0
    0.4974    0.3719   -0.6276 H   0  0  0  0  0  0
    0.8311    0.1891    1.1074 H   0  0  0  0  0  0
   -0.0978    2.2956    1.8187 H   0  0  0  0  0  0
    0.2737    3.8035    0.9491 H   0  0  0  0  0  0
   -3.0368    1.7810   -1.5860 H   0  0  0  0  0  0
   -0.6674    0.6127    1.7752 H   0  0  0  0  0  0
   -0.6165   -1.7448    3.7862 H   0  0  0  0  0  0
   -0.0226   -0.9816    2.2918 H   0  0  0  0  0  0
   -1.1196   -0.0883    3.3721 H   0  0  0  0  0  0
   -4.0547   -4.0166   -0.1625 H   0  0  0  0  0  0
   -3.4454   -2.7865   -1.2956 H   0  0  0  0  0  0
   -2.4604   -3.2718    0.1053 H   0  0  0  0  0  0
   -5.4764    0.6492   -3.1259 H   0  0  0  0  0  0
   -4.8109    1.7299   -1.8780 H   0  0  0  0  0  0
   -3.7143    0.8368   -2.9589 H   0  0  0  0  0  0
   -0.5645    4.2453   -1.1139 H   0  0  0  0  0  0
   -1.1906    2.9128   -2.1142 H   0  0  0  0  0  0
   -2.2876    3.8060   -1.0339 H   0  0  0  0  0  0
    5.9575   -2.9394   -1.3983 H   0  0  0  0  0  0
    6.8314   -1.5937   -0.9002 H   0  0  0  0  0  0
    1.2839   -2.9423   -1.2385 H   0  0  0  0  0  0
    0.4584   -1.5913   -0.6762 H   0  0  0  0  0  0
  1  2  1  0  0  0
  1  6  2  0  0  0
  1 10  1  0  0  0
  2  3  2  0  0  0
  2 27  1  0  0  0
  3  4  1  0  0  0
  4  5  2  0  0  0
  4 26  1  0  0  0
  5  6  1  0  0  0
  6  7  1  0  0  0
  7  8  1  0  0  0
  7 28  1  0  0  0
  7 29  1  0  0  0
  8  9  1  0  0  0
  8 30  1  0  0  0
  8 31  1  0  0  0
  9 10  1  0  0  0
  9 11  1  0  0  0
  9 32  1  0  0  0
 10 33  1  0  0  0
 10 34  1  0  0  0
 11 12  1  0  0  0
 11 35  1  0  0  0
 11 36  1  0  0  0
 12 13  1  0  0  0
 12 25  1  0  0  0
 13 14  1  0  0  0
 13 18  2  0  0  0
 14 15  2  0  0  0
 14 37  1  0  0  0
 15 16  1  0  0  0
 15 23  1  0  0  0
 16 17  2  0  0  0
 16 21  1  0  0  0
 17 18  1  0  0  0
 17 19  1  0  0  0
 18 38  1  0  0  0
 19 20  1  0  0  0
 20 39  1  0  0  0
 20 40  1  0  0  0
 20 41  1  0  0  0
 21 22  1  0  0  0
 22 42  1  0  0  0
 22 43  1  0  0  0
 22 44  1  0  0  0
 23 24  1  0  0  0
 24 45  1  0  0  0
 24 46  1  0  0  0
 24 47  1  0  0  0
 25 48  1  0  0  0
 25 49  1  0  0  0
 25 50  1  0  0  0
 26 51  1  0  0  0
 26 52  1  0  0  0
 27 53  1  0  0  0
 27 54  1  0  0  0
M  END
>  <ACTIVITY>
7.42022

>  <set_rl>
1

>  <Min_dist>
999.9

>  <Avg_dist>
999.9

>  <PC_uM>
0.095

>  <TG_uM>
0.007

>  <RL_uM>
0.038

$$$$
19-5
  Cerius2 12110214553D 1   1.00000                          
 
 50 52  0  0  0  0  0  0  0  0999 V2000
    3.1118   -0.1191    0.1065 C   0  0  0  0  0  0
    3.9025   -1.2551   -0.1114 C   0  0  0  0  0  0
    5.2227   -1.1261   -0.1632 N   0  0  0  0  0  0
    5.7869    0.0627   -0.0104 C   0  0  0  0  0  0
    5.0635    1.1509    0.1946 N   0  0  0  0  0  0
    3.7350    1.0952    0.2547 C   0  0  0  0  0  0
    2.9749    2.3748    0.4769 C   0  0  0  0  0  0
    1.5514    2.0767    0.9453 C   0  0  0  0  0  0
    0.9236    1.0643   -0.0198 C   0  0  0  0  0  0
    1.6188   -0.2832    0.1745 C   0  0  0  0  0  0
   -0.5690    0.9211    0.2844 C   0  0  0  0  0  0
   -1.1666   -0.0496   -0.6422 N   0  0  0  0  0  0
   -2.5245   -0.1352   -0.3143 C   0  0  0  0  0  0
   -3.3283    0.9931   -0.3829 C   0  0  0  0  0  0
   -4.6732    0.9050   -0.0579 C   0  0  0  0  0  0
   -5.2145   -0.3098    0.3359 C   0  0  0  0  0  0
   -4.4150   -1.4358    0.4054 C   0  0  0  0  0  0
   -3.0725   -1.3549    0.0760 C   0  0  0  0  0  0
   -2.2865   -2.4638    0.1443 O   0  0  0  0  0  0
   -3.1233   -3.5369    0.5807 C   0  0  0  0  0  0
   -5.4621    2.0105   -0.1247 O   0  0  0  0  0  0
   -6.7759    1.6045    0.2640 C   0  0  0  0  0  0
   -1.0929    0.5461   -1.9830 C   0  0  0  0  0  0
    7.1657    0.1685   -0.0661 N   0  0  0  0  0  0
    3.3133   -2.4987   -0.2704 N   0  0  0  0  0  0
    3.4857    2.9706    1.2333 H   0  0  0  0  0  0
    2.9368    2.9378   -0.4557 H   0  0  0  0  0  0
    1.5771    1.6568    1.9508 H   0  0  0  0  0  0
    0.9654    2.9958    0.9441 H   0  0  0  0  0  0
    1.0605    1.4035   -1.0466 H   0  0  0  0  0  0
    1.2965   -0.9709   -0.6074 H   0  0  0  0  0  0
    1.3444   -0.6934    1.1464 H   0  0  0  0  0  0
   -0.6992    0.5730    1.3090 H   0  0  0  0  0  0
   -1.0586    1.8874    0.1639 H   0  0  0  0  0  0
   -2.9069    1.9393   -0.6887 H   0  0  0  0  0  0
   -6.2623   -0.3763    0.5890 H   0  0  0  0  0  0
   -4.8391   -2.3803    0.7127 H   0  0  0  0  0  0
   -2.5344   -4.4514    0.6508 H   0  0  0  0  0  0
   -3.5406   -3.2976    1.5588 H   0  0  0  0  0  0
   -3.9331   -3.6802   -0.1347 H   0  0  0  0  0  0
   -7.4475    2.4622    0.2256 H   0  0  0  0  0  0
   -7.1338    0.8321   -0.4167 H   0  0  0  0  0  0
   -6.7486    1.2096    1.2796 H   0  0  0  0  0  0
   -1.5266   -0.1405   -2.7100 H   0  0  0  0  0  0
   -1.6467    1.4849   -1.9945 H   0  0  0  0  0  0
   -0.0506    0.7360   -2.2394 H   0  0  0  0  0  0
    7.7072   -0.6224   -0.2155 H   0  0  0  0  0  0
    7.5906    1.0334    0.0444 H   0  0  0  0  0  0
    3.8660   -3.2815   -0.4210 H   0  0  0  0  0  0
    2.3481   -2.5867   -0.2312 H   0  0  0  0  0  0
  1  2  1  0  0  0
  1  6  2  0  0  0
  1 10  1  0  0  0
  2  3  2  0  0  0
  2 25  1  0  0  0
  3  4  1  0  0  0
  4  5  2  0  0  0
  4 24  1  0  0  0
  5  6  1  0  0  0
  6  7  1  0  0  0
  7  8  1  0  0  0
  7 26  1  0  0  0
  7 27  1  0  0  0
  8  9  1  0  0  0
  8 28  1  0  0  0
  8 29  1  0  0  0
  9 10  1  0  0  0
  9 11  1  0  0  0
  9 30  1  0  0  0
 10 31  1  0  0  0
 10 32  1  0  0  0
 11 12  1  0  0  0
 11 33  1  0  0  0
 11 34  1  0  0  0
 12 13  1  0  0  0
 12 23  1  0  0  0
 13 14  1  0  0  0
 13 18  2  0  0  0
 14 15  2  0  0  0
 14 35  1  0  0  0
 15 16  1  0  0  0
 15 21  1  0  0  0
 16 17  2  0  0  0
 16 36  1  0  0  0
 17 18  1  0  0  0
 17 37  1  0  0  0
 18 19  1  0  0  0
 19 20  1  0  0  0
 20 38  1  0  0  0
 20 39  1  0  0  0
 20 40  1  0  0  0
 21 22  1  0  0  0
 22 41  1  0  0  0
 22 42  1  0  0  0
 22 43  1  0  0  0
 23 44  1  0  0  0
 23 45  1  0  0  0
 23 46  1  0  0  0
 24 47  1  0  0  0
 24 48  1  0  0  0
 25 49  1  0  0  0
 25 50  1  0  0  0
M  END
>  <ACTIVITY>
6.58503

>  <set_rl>
1

>  <Min_dist>
999.9

>  <Avg_dist>
999.9

>  <PC_uM>
0.3

>  <TG_uM>
0.015

>  <RL_uM>
0.26

$$$$
19-6
  Cerius2 12110214553D 1   1.00000                          
 
 53 55  0  0  0  0  0  0  0  0999 V2000
    3.1829   -0.1017    0.1874 C   0  0  0  0  0  0
    3.9677   -1.2463   -0.0043 C   0  0  0  0  0  0
    5.2874   -1.1228   -0.0781 N   0  0  0  0  0  0
    5.8566    0.0687    0.0287 C   0  0  0  0  0  0
    5.1386    1.1649    0.2082 N   0  0  0  0  0  0
    3.8109    1.1151    0.2879 C   0  0  0  0  0  0
    3.0569    2.4032    0.4789 C   0  0  0  0  0  0
    1.6392    2.1245    0.9759 C   0  0  0  0  0  0
    0.9960    1.0832    0.0525 C   0  0  0  0  0  0
    1.6905   -0.2593    0.2808 C   0  0  0  0  0  0
   -0.4927    0.9542    0.3813 C   0  0  0  0  0  0
   -1.1052   -0.0441   -0.5054 N   0  0  0  0  0  0
   -2.4586   -0.1153   -0.1566 C   0  0  0  0  0  0
   -3.2606    1.0125   -0.2507 C   0  0  0  0  0  0
   -4.6012    0.9388    0.0951 C   0  0  0  0  0  0
   -5.1400   -0.2612    0.5351 C   0  0  0  0  0  0
   -4.3424   -1.3866    0.6302 C   0  0  0  0  0  0
   -3.0042   -1.3202    0.2802 C   0  0  0  0  0  0
   -2.2201   -2.4286    0.3737 O   0  0  0  0  0  0
   -3.0534   -3.4846    0.8557 C   0  0  0  0  0  0
   -5.3882    2.0438    0.0032 O   0  0  0  0  0  0
   -6.6976    1.6543    0.4225 C   0  0  0  0  0  0
   -1.0482    0.5078   -1.8656 C   0  0  0  0  0  0
   -1.6732   -0.4866   -2.8461 C   0  0  0  0  0  0
    7.2347    0.1687   -0.0490 N   0  0  0  0  0  0
    3.3735   -2.4928   -0.1152 N   0  0  0  0  0  0
    3.5795    3.0217    1.2088 H   0  0  0  0  0  0
    3.0076    2.9360   -0.4707 H   0  0  0  0  0  0
    1.6776    1.7371    1.9940 H   0  0  0  0  0  0
    1.0555    3.0447    0.9529 H   0  0  0  0  0  0
    1.1197    1.3888   -0.9864 H   0  0  0  0  0  0
    1.3560   -0.9709   -0.4741 H   0  0  0  0  0  0
    1.4283   -0.6371    1.2690 H   0  0  0  0  0  0
   -0.6098    0.6396    1.4183 H   0  0  0  0  0  0
   -0.9816    1.9175    0.2363 H   0  0  0  0  0  0
   -2.8411    1.9471   -0.5926 H   0  0  0  0  0  0
   -6.1845   -0.3165    0.8044 H   0  0  0  0  0  0
   -4.7645   -2.3196    0.9734 H   0  0  0  0  0  0
   -2.4659   -4.3981    0.9474 H   0  0  0  0  0  0
   -3.4569   -3.2127    1.8311 H   0  0  0  0  0  0
   -3.8732   -3.6486    0.1563 H   0  0  0  0  0  0
   -7.3676    2.5122    0.3656 H   0  0  0  0  0  0
   -7.0666    0.8613   -0.2280 H   0  0  0  0  0  0
   -6.6575    1.2922    1.4499 H   0  0  0  0  0  0
   -1.5999    1.4473   -1.8998 H   0  0  0  0  0  0
   -0.0091    0.6864   -2.1420 H   0  0  0  0  0  0
   -1.6309   -0.0771   -3.8553 H   0  0  0  0  0  0
   -1.1215   -1.4261   -2.8118 H   0  0  0  0  0  0
   -2.7123   -0.6652   -2.5696 H   0  0  0  0  0  0
    7.7722   -0.6281   -0.1802 H   0  0  0  0  0  0
    7.6632    1.0355    0.0277 H   0  0  0  0  0  0
    3.9222   -3.2816   -0.2478 H   0  0  0  0  0  0
    2.4087   -2.5767   -0.0602 H   0  0  0  0  0  0
  1  2  1  0  0  0
  1  6  2  0  0  0
  1 10  1  0  0  0
  2  3  2  0  0  0
  2 26  1  0  0  0
  3  4  1  0  0  0
  4  5  2  0  0  0
  4 25  1  0  0  0
  5  6  1  0  0  0
  6  7  1  0  0  0
  7  8  1  0  0  0
  7 27  1  0  0  0
  7 28  1  0  0  0
  8  9  1  0  0  0
  8 29  1  0  0  0
  8 30  1  0  0  0
  9 10  1  0  0  0
  9 11  1  0  0  0
  9 31  1  0  0  0
 10 32  1  0  0  0
 10 33  1  0  0  0
 11 12  1  0  0  0
 11 34  1  0  0  0
 11 35  1  0  0  0
 12 13  1  0  0  0
 12 23  1  0  0  0
 13 14  1  0  0  0
 13 18  2  0  0  0
 14 15  2  0  0  0
 14 36  1  0  0  0
 15 16  1  0  0  0
 15 21  1  0  0  0
 16 17  2  0  0  0
 16 37  1  0  0  0
 17 18  1  0  0  0
 17 38  1  0  0  0
 18 19  1  0  0  0
 19 20  1  0  0  0
 20 39  1  0  0  0
 20 40  1  0  0  0
 20 41  1  0  0  0
 21 22  1  0  0  0
 22 42  1  0  0  0
 22 43  1  0  0  0
 22 44  1  0  0  0
 23 24  1  0  0  0
 23 45  1  0  0  0
 23 46  1  0  0  0
 24 47  1  0  0  0
 24 48  1  0  0  0
 24 49  1  0  0  0
 25 50  1  0  0  0
 25 51  1  0  0  0
 26 52  1  0  0  0
 26 53  1  0  0  0
M  END
>  <ACTIVITY>
7.14874

>  <set_rl>
1

>  <Min_dist>
999.9

>  <Avg_dist>
999.9

>  <PC_uM>
0.114

>  <TG_uM>
0.017

>  <RL_uM>
0.071

$$$$
19-9
  Cerius2 12110214553D 1   1.00000                          
 
 39 41  0  0  0  0  0  0  0  0999 V2000
    3.5519   -0.2043    0.1766 C   0  0  0  0  0  0
    4.2748   -1.3501    0.5338 C   0  0  0  0  0  0
    5.6008   -1.3242    0.4770 N   0  0  0  0  0  0
    6.2341   -0.2278    0.0875 C   0  0  0  0  0  0
    5.5756    0.8665   -0.2567 N   0  0  0  0  0  0
    4.2456    0.9098   -0.2265 C   0  0  0  0  0  0
    3.5619    2.1834   -0.6446 C   0  0  0  0  0  0
    2.1184    2.2045   -0.1442 C   0  0  0  0  0  0
    1.4404    0.8934   -0.5590 C   0  0  0  0  0  0
    2.0511   -0.2454    0.2576 C   0  0  0  0  0  0
   -0.0611    0.9796   -0.2780 C   0  0  0  0  0  0
   -0.7051   -0.2747   -0.6757 N   0  0  0  0  0  0
   -2.0838   -0.4344   -0.5135 C   0  0  0  0  0  0
   -2.6957   -1.6233   -0.8901 C   0  0  0  0  0  0
   -4.0584   -1.7790   -0.7290 C   0  0  0  0  0  0
   -4.8151   -0.7519   -0.1932 C   0  0  0  0  0  0
   -4.2084    0.4346    0.1833 C   0  0  0  0  0  0
   -2.8437    0.5931    0.0298 C   0  0  0  0  0  0
   -5.1610    1.7210    0.8552 Cl  0  0  0  0  0  0
   -6.5280   -0.9508    0.0068 Cl  0  0  0  0  0  0
    7.6173   -0.2271    0.0400 N   0  0  0  0  0  0
    3.6133   -2.4968    0.9420 N   0  0  0  0  0  0
    4.1001    3.0348   -0.2281 H   0  0  0  0  0  0
    3.5672    2.2548   -1.7323 H   0  0  0  0  0  0
    2.1086    2.2941    0.9421 H   0  0  0  0  0  0
    1.5889    3.0472   -0.5888 H   0  0  0  0  0  0
    1.6078    0.7146   -1.6211 H   0  0  0  0  0  0
    1.6958   -1.1992   -0.1325 H   0  0  0  0  0  0
    1.7427   -0.1480    1.2985 H   0  0  0  0  0  0
   -0.2224    1.1493    0.7865 H   0  0  0  0  0  0
   -0.4904    1.8046   -0.8466 H   0  0  0  0  0  0
   -0.1744   -0.9945   -1.0516 H   0  0  0  0  0  0
   -2.1060   -2.4254   -1.3091 H   0  0  0  0  0  0
   -4.5340   -2.7033   -1.0219 H   0  0  0  0  0  0
   -2.3705    1.5184    0.3234 H   0  0  0  0  0  0
    8.1116   -1.0233    0.2903 H   0  0  0  0  0  0
    8.0925    0.5696   -0.2435 H   0  0  0  0  0  0
    4.1193   -3.2869    1.1880 H   0  0  0  0  0  0
    2.6442   -2.5095    0.9818 H   0  0  0  0  0  0
  1  2  1  0  0  0
  1  6  2  0  0  0
  1 10  1  0  0  0
  2  3  2  0  0  0
  2 22  1  0  0  0
  3  4  1  0  0  0
  4  5  2  0  0  0
  4 21  1  0  0  0
  5  6  1  0  0  0
  6  7  1  0  0  0
  7  8  1  0  0  0
  7 23  1  0  0  0
  7 24  1  0  0  0
  8  9  1  0  0  0
  8 25  1  0  0  0
  8 26  1  0  0  0
  9 10  1  0  0  0
  9 11  1  0  0  0
  9 27  1  0  0  0
 10 28  1  0  0  0
 10 29  1  0  0  0
 11 12  1  0  0  0
 11 30  1  0  0  0
 11 31  1  0  0  0
 12 13  1  0  0  0
 12 32  1  0  0  0
 13 14  1  0  0  0
 13 18  2  0  0  0
 14 15  2  0  0  0
 14 33  1  0  0  0
 15 16  1  0  0  0
 15 34  1  0  0  0
 16 17  2  0  0  0
 16 20  1  0  0  0
 17 18  1  0  0  0
 17 19  1  0  0  0
 18 35  1  0  0  0
 21 36  1  0  0  0
 21 37  1  0  0  0
 22 38  1  0  0  0
 22 39  1  0  0  0
M  END
>  <ACTIVITY>
6.82391

>  <set_rl>
1

>  <Min_dist>
999.9

>  <Avg_dist>
999.9

>  <PC_uM>
6.8

>  <TG_uM>
0.11

>  <RL_uM>
0.15

$$$$
19-12
  Cerius2 12110214553D 1   1.00000                          
 
 39 41  0  0  0  0  0  0  0  0999 V2000
    2.7418   -0.1624   -0.0265 C   0  0  0  0  0  0
    3.5139   -1.1775   -0.6066 C   0  0  0  0  0  0
    4.8338   -1.0426   -0.6520 N   0  0  0  0  0  0
    5.4150    0.0389   -0.1543 C   0  0  0  0  0  0
    4.7091    1.0122    0.3969 N   0  0  0  0  0  0
    3.3820    0.9446    0.4730 C   0  0  0  0  0  0
    2.6421    2.0947    1.1008 C   0  0  0  0  0  0
    1.2275    1.6704    1.4927 C   0  0  0  0  0  0
    0.5645    1.0083    0.2793 C   0  0  0  0  0  0
    1.2491   -0.3352    0.0281 C   0  0  0  0  0  0
   -0.9215    0.7823    0.5648 C   0  0  0  0  0  0
   -1.5531    0.1479   -0.6000 N   0  0  0  0  0  0
   -2.8779   -0.1206   -0.2422 C   0  0  0  0  0  0
   -3.8488    0.8644   -0.3764 C   0  0  0  0  0  0
   -5.1575    0.5953   -0.0222 C   0  0  0  0  0  0
   -5.5009   -0.6522    0.4656 C   0  0  0  0  0  0
   -4.5374   -1.6347    0.6009 C   0  0  0  0  0  0
   -3.2278   -1.3748    0.2429 C   0  0  0  0  0  0
   -2.0191   -2.6092    0.4128 Cl  0  0  0  0  0  0
   -3.4186    2.4313   -0.9876 Cl  0  0  0  0  0  0
    6.7930    0.1527   -0.2122 N   0  0  0  0  0  0
    2.9071   -2.3091   -1.1264 N   0  0  0  0  0  0
    3.1784    2.4256    1.9902 H   0  0  0  0  0  0
    2.5870    2.9188    0.3896 H   0  0  0  0  0  0
    1.2737    0.9597    2.3179 H   0  0  0  0  0  0
    0.6521    2.5464    1.7918 H   0  0  0  0  0  0
    0.6793    1.6482   -0.5956 H   0  0  0  0  0  0
    0.8997   -0.7461   -0.9191 H   0  0  0  0  0  0
    0.9946   -1.0253    0.8325 H   0  0  0  0  0  0
   -1.0300    0.1345    1.4347 H   0  0  0  0  0  0
   -1.4032    1.7399    0.7626 H   0  0  0  0  0  0
   -1.5850    0.8455   -1.3283 H   0  0  0  0  0  0
   -5.9126    1.3603   -0.1263 H   0  0  0  0  0  0
   -6.5242   -0.8595    0.7419 H   0  0  0  0  0  0
   -4.8092   -2.6078    0.9826 H   0  0  0  0  0  0
    7.3217   -0.5546   -0.6137 H   0  0  0  0  0  0
    7.2303    0.9397    0.1488 H   0  0  0  0  0  0
    3.4470   -3.0084   -1.5268 H   0  0  0  0  0  0
    1.9422   -2.4021   -1.0901 H   0  0  0  0  0  0
  1  2  1  0  0  0
  1  6  2  0  0  0
  1 10  1  0  0  0
  2  3  2  0  0  0
  2 22  1  0  0  0
  3  4  1  0  0  0
  4  5  2  0  0  0
  4 21  1  0  0  0
  5  6  1  0  0  0
  6  7  1  0  0  0
  7  8  1  0  0  0
  7 23  1  0  0  0
  7 24  1  0  0  0
  8  9  1  0  0  0
  8 25  1  0  0  0
  8 26  1  0  0  0
  9 10  1  0  0  0
  9 11  1  0  0  0
  9 27  1  0  0  0
 10 28  1  0  0  0
 10 29  1  0  0  0
 11 12  1  0  0  0
 11 30  1  0  0  0
 11 31  1  0  0  0
 12 13  1  0  0  0
 12 32  1  0  0  0
 13 14  1  0  0  0
 13 18  2  0  0  0
 14 15  2  0  0  0
 14 20  1  0  0  0
 15 16  1  0  0  0
 15 33  1  0  0  0
 16 17  2  0  0  0
 16 34  1  0  0  0
 17 18  1  0  0  0
 17 35  1  0  0  0
 18 19  1  0  0  0
 21 36  1  0  0  0
 21 37  1  0  0  0
 22 38  1  0  0  0
 22 39  1  0  0  0
M  END
>  <ACTIVITY>
6.96257

>  <set_rl>
1

>  <Min_dist>
999.9

>  <Avg_dist>
999.9

>  <PC_uM>
0.502

>  <TG_uM>
0.0099

>  <RL_uM>
0.109

$$$$
19-13
  Cerius2 12110214553D 1   1.00000                          
 
 39 41  0  0  0  0  0  0  0  0999 V2000
    2.9656   -0.2258    0.1523 C   0  0  0  0  0  0
    3.6242   -1.4555    0.2837 C   0  0  0  0  0  0
    4.9470   -1.4970    0.1800 N   0  0  0  0  0  0
    5.6372   -0.3889   -0.0445 C   0  0  0  0  0  0
    5.0400    0.7841   -0.1742 N   0  0  0  0  0  0
    3.7169    0.8986   -0.0851 C   0  0  0  0  0  0
    3.1037    2.2620   -0.2566 C   0  0  0  0  0  0
    1.6795    2.2813    0.2966 C   0  0  0  0  0  0
    0.9079    1.1011   -0.3054 C   0  0  0  0  0  0
    1.4682   -0.1932    0.2841 C   0  0  0  0  0  0
   -0.5763    1.2250    0.0447 C   0  0  0  0  0  0
   -1.3100    0.0957   -0.5321 N   0  0  0  0  0  0
   -2.6909   -0.0091   -0.3450 C   0  0  0  0  0  0
   -3.3878   -1.0792   -0.8913 C   0  0  0  0  0  0
   -4.7525   -1.1803   -0.7049 C   0  0  0  0  0  0
   -5.4256   -0.2167    0.0254 C   0  0  0  0  0  0
   -4.7339    0.8507    0.5705 C   0  0  0  0  0  0
   -3.3682    0.9535    0.3924 C   0  0  0  0  0  0
   -7.1410   -0.3469    0.2578 Cl  0  0  0  0  0  0
    7.0157   -0.4601   -0.1454 N   0  0  0  0  0  0
    2.9032   -2.6146    0.5194 N   0  0  0  0  0  0
    3.7068    2.9977    0.2755 H   0  0  0  0  0  0
    3.0822    2.5167   -1.3162 H   0  0  0  0  0  0
    1.7069    2.1855    1.3820 H   0  0  0  0  0  0
    1.1922    3.2164    0.0207 H   0  0  0  0  0  0
    1.0328    1.0958   -1.3882 H   0  0  0  0  0  0
    1.0419   -1.0448   -0.2463 H   0  0  0  0  0  0
    1.1968   -0.2563    1.3378 H   0  0  0  0  0  0
   -0.6957    1.2204    1.1282 H   0  0  0  0  0  0
   -0.9685    2.1579   -0.3601 H   0  0  0  0  0  0
   -0.8373   -0.5792   -1.0439 H   0  0  0  0  0  0
   -2.8630   -1.8313   -1.4617 H   0  0  0  0  0  0
   -5.2949   -2.0120   -1.1298 H   0  0  0  0  0  0
   -5.2619    1.6017    1.1394 H   0  0  0  0  0  0
   -2.8288    1.7866    0.8183 H   0  0  0  0  0  0
    7.4653   -1.3145   -0.0518 H   0  0  0  0  0  0
    7.5322    0.3443   -0.3097 H   0  0  0  0  0  0
    3.3647   -3.4630    0.6094 H   0  0  0  0  0  0
    1.9368   -2.5779    0.5944 H   0  0  0  0  0  0
  1  2  1  0  0  0
  1  6  2  0  0  0
  1 10  1  0  0  0
  2  3  2  0  0  0
  2 21  1  0  0  0
  3  4  1  0  0  0
  4  5  2  0  0  0
  4 20  1  0  0  0
  5  6  1  0  0  0
  6  7  1  0  0  0
  7  8  1  0  0  0
  7 22  1  0  0  0
  7 23  1  0  0  0
  8  9  1  0  0  0
  8 24  1  0  0  0
  8 25  1  0  0  0
  9 10  1  0  0  0
  9 11  1  0  0  0
  9 26  1  0  0  0
 10 27  1  0  0  0
 10 28  1  0  0  0
 11 12  1  0  0  0
 11 29  1  0  0  0
 11 30  1  0  0  0
 12 13  1  0  0  0
 12 31  1  0  0  0
 13 14  1  0  0  0
 13 18  2  0  0  0
 14 15  2  0  0  0
 14 32  1  0  0  0
 15 16  1  0  0  0
 15 33  1  0  0  0
 16 17  2  0  0  0
 16 19  1  0  0  0
 17 18  1  0  0  0
 17 34  1  0  0  0
 18 35  1  0  0  0
 20 36  1  0  0  0
 20 37  1  0  0  0
 21 38  1  0  0  0
 21 39  1  0  0  0
M  END
>  <ACTIVITY>
6.89279

>  <set_rl>
1

>  <Min_dist>
999.9

>  <Avg_dist>
999.9

>  <PC_uM>
0.94

>  <TG_uM>
0.078

>  <RL_uM>
0.128

$$$$
19-14
  Cerius2 12110214553D 1   1.00000                          
 
 42 44  0  0  0  0  0  0  0  0999 V2000
    2.0625   -0.1933    0.0311 C   0  0  0  0  0  0
    2.0673   -1.5390   -0.3588 C   0  0  0  0  0  0
    3.2268   -2.1718   -0.4909 N   0  0  0  0  0  0
    4.3667   -1.5389   -0.2566 C   0  0  0  0  0  0
    4.3901   -0.2685    0.1108 N   0  0  0  0  0  0
    3.2655    0.4279    0.2593 C   0  0  0  0  0  0
    3.3674    1.8730    0.6661 C   0  0  0  0  0  0
    2.0268    2.3737    1.2014 C   0  0  0  0  0  0
    0.9350    2.0226    0.1840 C   0  0  0  0  0  0
    0.7408    0.5063    0.1879 C   0  0  0  0  0  0
   -0.3745    2.7093    0.5773 C   0  0  0  0  0  0
   -1.4149    2.3714   -0.3971 N   0  0  0  0  0  0
   -2.2183    1.2452   -0.1992 C   0  0  0  0  0  0
   -3.2051    0.9236   -1.1222 C   0  0  0  0  0  0
   -3.9977   -0.1900   -0.9240 C   0  0  0  0  0  0
   -3.8093   -0.9851    0.1928 C   0  0  0  0  0  0
   -2.8271   -0.6668    1.1142 C   0  0  0  0  0  0
   -2.0276    0.4421    0.9180 C   0  0  0  0  0  0
   -4.8073   -2.3841    0.4387 Cl  0  0  0  0  0  0
   -1.6132    3.2141   -1.5789 C   0  0  0  0  0  0
    5.5612   -2.2232   -0.3991 N   0  0  0  0  0  0
    0.8756   -2.2018   -0.6031 N   0  0  0  0  0  0
    4.1263    1.9762    1.4417 H   0  0  0  0  0  0
    3.6563    2.4711   -0.1982 H   0  0  0  0  0  0
    1.8091    1.8902    2.1538 H   0  0  0  0  0  0
    2.0672    3.4545    1.3369 H   0  0  0  0  0  0
    1.2405    2.3511   -0.8093 H   0  0  0  0  0  0
    0.0849    0.2249   -0.6359 H   0  0  0  0  0  0
    0.2818    0.2043    1.1293 H   0  0  0  0  0  0
   -0.6796    2.3700    1.5672 H   0  0  0  0  0  0
   -0.2280    3.7893    0.5926 H   0  0  0  0  0  0
   -3.3528    1.5440   -1.9938 H   0  0  0  0  0  0
   -4.7654   -0.4403   -1.6412 H   0  0  0  0  0  0
   -2.6827   -1.2886    1.9853 H   0  0  0  0  0  0
   -1.2610    0.6899    1.6372 H   0  0  0  0  0  0
   -0.8999    4.0381   -1.5614 H   0  0  0  0  0  0
   -1.4593    2.6193   -2.4793 H   0  0  0  0  0  0
   -2.6281    3.6118   -1.5754 H   0  0  0  0  0  0
    5.5571   -3.1552   -0.6678 H   0  0  0  0  0  0
    6.4025   -1.7707   -0.2304 H   0  0  0  0  0  0
    0.8853   -3.1335   -0.8728 H   0  0  0  0  0  0
    0.0315   -1.7342   -0.5046 H   0  0  0  0  0  0
  1  2  1  0  0  0
  1  6  2  0  0  0
  1 10  1  0  0  0
  2  3  2  0  0  0
  2 22  1  0  0  0
  3  4  1  0  0  0
  4  5  2  0  0  0
  4 21  1  0  0  0
  5  6  1  0  0  0
  6  7  1  0  0  0
  7  8  1  0  0  0
  7 23  1  0  0  0
  7 24  1  0  0  0
  8  9  1  0  0  0
  8 25  1  0  0  0
  8 26  1  0  0  0
  9 10  1  0  0  0
  9 11  1  0  0  0
  9 27  1  0  0  0
 10 28  1  0  0  0
 10 29  1  0  0  0
 11 12  1  0  0  0
 11 30  1  0  0  0
 11 31  1  0  0  0
 12 13  1  0  0  0
 12 20  1  0  0  0
 13 14  1  0  0  0
 13 18  2  0  0  0
 14 15  2  0  0  0
 14 32  1  0  0  0
 15 16  1  0  0  0
 15 33  1  0  0  0
 16 17  2  0  0  0
 16 19  1  0  0  0
 17 18  1  0  0  0
 17 34  1  0  0  0
 18 35  1  0  0  0
 20 36  1  0  0  0
 20 37  1  0  0  0
 20 38  1  0  0  0
 21 39  1  0  0  0
 21 40  1  0  0  0
 22 41  1  0  0  0
 22 42  1  0  0  0
M  END
>  <ACTIVITY>
7.17393

>  <set_rl>
1

>  <Min_dist>
999.9

>  <Avg_dist>
999.9

>  <PC_uM>
0.171

>  <TG_uM>
0.022

>  <RL_uM>
0.067

$$$$
19-15
  Cerius2 12110214553D 1   1.00000                          
 
 39 41  0  0  0  0  0  0  0  0999 V2000
    3.6164   -0.1286    0.1937 C   0  0  0  0  0  0
    4.4483   -1.1494    0.6723 C   0  0  0  0  0  0
    5.7646   -0.9788    0.6467 N   0  0  0  0  0  0
    6.2863    0.1437    0.1746 C   0  0  0  0  0  0
    5.5236    1.1218   -0.2847 N   0  0  0  0  0  0
    4.1967    1.0169   -0.2922 C   0  0  0  0  0  0
    3.3917    2.1631   -0.8421 C   0  0  0  0  0  0
    1.9380    2.0649   -0.3822 C   0  0  0  0  0  0
    1.4239    0.6542   -0.6922 C   0  0  0  0  0  0
    2.1274   -0.3319    0.2402 C   0  0  0  0  0  0
   -0.0869    0.5944   -0.4582 C   0  0  0  0  0  0
   -0.5741   -0.7549   -0.7555 N   0  0  0  0  0  0
   -1.9310   -1.0543   -0.6142 C   0  0  0  0  0  0
   -2.3946   -2.3335   -0.8957 C   0  0  0  0  0  0
   -3.7366   -2.6268   -0.7546 C   0  0  0  0  0  0
   -4.6193   -1.6492   -0.3336 C   0  0  0  0  0  0
   -4.1615   -0.3742   -0.0523 C   0  0  0  0  0  0
   -2.8186   -0.0757   -0.1864 C   0  0  0  0  0  0
   -5.3728    0.9590    0.5232 Br  0  0  0  0  0  0
    7.6618    0.2966    0.1621 N   0  0  0  0  0  0
    3.9034   -2.3230    1.1669 N   0  0  0  0  0  0
    3.8177    3.1033   -0.4918 H   0  0  0  0  0  0
    3.4275    2.1386   -1.9313 H   0  0  0  0  0  0
    1.8801    2.2482    0.6907 H   0  0  0  0  0  0
    1.3348    2.7998   -0.9152 H   0  0  0  0  0  0
    1.6473    0.4025   -1.7290 H   0  0  0  0  0  0
    1.8935   -1.3504   -0.0698 H   0  0  0  0  0  0
    1.7736   -0.1787    1.2598 H   0  0  0  0  0  0
   -0.3033    0.8379    0.5820 H   0  0  0  0  0  0
   -0.5843    1.3122   -1.1105 H   0  0  0  0  0  0
    0.0457   -1.4403   -1.0505 H   0  0  0  0  0  0
   -1.7060   -3.0976   -1.2249 H   0  0  0  0  0  0
   -4.0972   -3.6210   -0.9738 H   0  0  0  0  0  0
   -5.6685   -1.8813   -0.2245 H   0  0  0  0  0  0
   -2.4614    0.9195    0.0336 H   0  0  0  0  0  0
    8.2317   -0.4135    0.4966 H   0  0  0  0  0  0
    8.0558    1.1138   -0.1810 H   0  0  0  0  0  0
    4.4845   -3.0261    1.4969 H   0  0  0  0  0  0
    2.9409   -2.4417    1.1833 H   0  0  0  0  0  0
  1  2  1  0  0  0
  1  6  2  0  0  0
  1 10  1  0  0  0
  2  3  2  0  0  0
  2 21  1  0  0  0
  3  4  1  0  0  0
  4  5  2  0  0  0
  4 20  1  0  0  0
  5  6  1  0  0  0
  6  7  1  0  0  0
  7  8  1  0  0  0
  7 22  1  0  0  0
  7 23  1  0  0  0
  8  9  1  0  0  0
  8 24  1  0  0  0
  8 25  1  0  0  0
  9 10  1  0  0  0
  9 11  1  0  0  0
  9 26  1  0  0  0
 10 27  1  0  0  0
 10 28  1  0  0  0
 11 12  1  0  0  0
 11 29  1  0  0  0
 11 30  1  0  0  0
 12 13  1  0  0  0
 12 31  1  0  0  0
 13 14  1  0  0  0
 13 18  2  0  0  0
 14 15  2  0  0  0
 14 32  1  0  0  0
 15 16  1  0  0  0
 15 33  1  0  0  0
 16 17  2  0  0  0
 16 34  1  0  0  0
 17 18  1  0  0  0
 17 19  1  0  0  0
 18 35  1  0  0  0
 20 36  1  0  0  0
 20 37  1  0  0  0
 21 38  1  0  0  0
 21 39  1  0  0  0
M  END
>  <ACTIVITY>
6.64397

>  <set_rl>
1

>  <Min_dist>
999.9

>  <Avg_dist>
999.9

>  <PC_uM>
0.33

>  <TG_uM>
0.03

>  <RL_uM>
0.227

$$$$
19-19
  Cerius2 12110214553D 1   1.00000                          
 
 45 48  0  0  0  0  0  0  0  0999 V2000
    2.8764   -0.1246    0.2322 C   0  0  0  0  0  0
    3.3925   -1.3617    0.6398 C   0  0  0  0  0  0
    4.6854   -1.6120    0.4721 N   0  0  0  0  0  0
    5.4792   -0.7029   -0.0740 C   0  0  0  0  0  0
    5.0170    0.4718   -0.4690 N   0  0  0  0  0  0
    3.7312    0.7883   -0.3342 C   0  0  0  0  0  0
    3.2721    2.1372   -0.8181 C   0  0  0  0  0  0
    1.9184    2.4928   -0.2053 C   0  0  0  0  0  0
    0.9584    1.3192   -0.4321 C   0  0  0  0  0  0
    1.4124    0.1485    0.4397 C   0  0  0  0  0  0
   -0.4612    1.7326   -0.0387 C   0  0  0  0  0  0
   -1.3753    0.6086   -0.2568 N   0  0  0  0  0  0
   -2.7311    0.7473    0.0321 C   0  0  0  0  0  0
   -3.2194    1.9394    0.5235 C   0  0  0  0  0  0
   -4.5718    2.0880    0.8152 C   0  0  0  0  0  0
   -5.4489    1.0638    0.6249 C   0  0  0  0  0  0
   -4.9920   -0.1677    0.1257 C   0  0  0  0  0  0
   -3.6184   -0.3295   -0.1811 C   0  0  0  0  0  0
   -3.1637   -1.5599   -0.6804 C   0  0  0  0  0  0
   -4.0462   -2.5806   -0.8635 C   0  0  0  0  0  0
   -5.3975   -2.4225   -0.5625 C   0  0  0  0  0  0
   -5.8746   -1.2422   -0.0812 C   0  0  0  0  0  0
    6.8238   -0.9887   -0.2347 N   0  0  0  0  0  0
    2.5633   -2.3127    1.2118 N   0  0  0  0  0  0
    4.0059    2.8911   -0.5329 H   0  0  0  0  0  0
    3.1824    2.1190   -1.9042 H   0  0  0  0  0  0
    2.0353    2.6690    0.8640 H   0  0  0  0  0  0
    1.5227    3.3877   -0.6857 H   0  0  0  0  0  0
    0.9801    1.0256   -1.4816 H   0  0  0  0  0  0
    0.8397   -0.7406    0.1758 H   0  0  0  0  0  0
    1.2350    0.3897    1.4878 H   0  0  0  0  0  0
   -0.4786    2.0161    1.0136 H   0  0  0  0  0  0
   -0.7751    2.5798   -0.6485 H   0  0  0  0  0  0
   -1.0365   -0.2320   -0.6023 H   0  0  0  0  0  0
   -2.5445    2.7671    0.6841 H   0  0  0  0  0  0
   -4.9318    3.0310    1.1992 H   0  0  0  0  0  0
   -6.4949    1.1979    0.8578 H   0  0  0  0  0  0
   -2.1192   -1.6963   -0.9186 H   0  0  0  0  0  0
   -3.6937   -3.5263   -1.2479 H   0  0  0  0  0  0
   -6.0771   -3.2476   -0.7171 H   0  0  0  0  0  0
   -6.9244   -1.1341    0.1481 H   0  0  0  0  0  0
    7.1748   -1.8466    0.0513 H   0  0  0  0  0  0
    7.4151   -0.3312   -0.6332 H   0  0  0  0  0  0
    2.9264   -3.1673    1.4920 H   0  0  0  0  0  0
    1.6195   -2.1238    1.3320 H   0  0  0  0  0  0
  1  2  1  0  0  0
  1  6  2  0  0  0
  1 10  1  0  0  0
  2  3  2  0  0  0
  2 24  1  0  0  0
  3  4  1  0  0  0
  4  5  2  0  0  0
  4 23  1  0  0  0
  5  6  1  0  0  0
  6  7  1  0  0  0
  7  8  1  0  0  0
  7 25  1  0  0  0
  7 26  1  0  0  0
  8  9  1  0  0  0
  8 27  1  0  0  0
  8 28  1  0  0  0
  9 10  1  0  0  0
  9 11  1  0  0  0
  9 29  1  0  0  0
 10 30  1  0  0  0
 10 31  1  0  0  0
 11 12  1  0  0  0
 11 32  1  0  0  0
 11 33  1  0  0  0
 12 13  1  0  0  0
 12 34  1  0  0  0
 13 14  1  0  0  0
 13 18  2  0  0  0
 14 15  2  0  0  0
 14 35  1  0  0  0
 15 16  1  0  0  0
 15 36  1  0  0  0
 16 17  2  0  0  0
 16 37  1  0  0  0
 17 18  1  0  0  0
 17 22  1  0  0  0
 18 19  1  0  0  0
 19 20  2  0  0  0
 19 38  1  0  0  0
 20 21  1  0  0  0
 20 39  1  0  0  0
 21 22  2  0  0  0
 21 40  1  0  0  0
 22 41  1  0  0  0
 23 42  1  0  0  0
 23 43  1  0  0  0
 24 44  1  0  0  0
 24 45  1  0  0  0
M  END
>  <ACTIVITY>
6.85699

>  <set_rl>
1

>  <Min_dist>
999.9

>  <Avg_dist>
999.9

>  <PC_uM>
0.517

>  <TG_uM>
0.036

>  <RL_uM>
0.139

$$$$
20-5A
  Cerius2 12110214553D 1   1.00000                          
 
 37 39  0  0  0  0  0  0  0  0999 V2000
    1.3466   -0.1119    0.2376 C   0  0  0  0  0  0
    1.9101   -1.3945    0.2528 C   0  0  0  0  0  0
    3.1934   -1.5428   -0.0533 N   0  0  0  0  0  0
    3.9334   -0.4904   -0.3693 C   0  0  0  0  0  0
    3.4256    0.7307   -0.3929 N   0  0  0  0  0  0
    2.1461    0.9519   -0.1003 C   0  0  0  0  0  0
    1.6326    2.3651   -0.1607 C   0  0  0  0  0  0
    0.3161    2.4888    0.6048 C   0  0  0  0  0  0
   -0.6360    1.3911    0.1159 C   0  0  0  0  0  0
   -0.1050    0.0412    0.5982 C   0  0  0  0  0  0
   -2.0336    1.6289    0.6912 C   0  0  0  0  0  0
   -2.9662    0.5481    0.2083 C   0  0  0  0  0  0
   -3.1147   -0.6148    0.9408 C   0  0  0  0  0  0
   -3.9700   -1.6063    0.4978 C   0  0  0  0  0  0
   -4.6773   -1.4346   -0.6774 C   0  0  0  0  0  0
   -4.5295   -0.2714   -1.4095 C   0  0  0  0  0  0
   -3.6774    0.7219   -0.9642 C   0  0  0  0  0  0
    5.2693   -0.6729   -0.6815 N   0  0  0  0  0  0
    1.1372   -2.4954    0.5839 N   0  0  0  0  0  0
    2.3702    3.0356    0.2802 H   0  0  0  0  0  0
    1.4719    2.6458   -1.2016 H   0  0  0  0  0  0
    0.5001    2.3653    1.6721 H   0  0  0  0  0  0
   -0.1260    3.4673    0.4173 H   0  0  0  0  0  0
   -0.6783    1.4013   -0.9733 H   0  0  0  0  0  0
   -0.6781   -0.7593    0.1304 H   0  0  0  0  0  0
   -0.2172   -0.0242    1.6804 H   0  0  0  0  0  0
   -1.9866    1.6085    1.7800 H   0  0  0  0  0  0
   -2.4018    2.6004    0.3616 H   0  0  0  0  0  0
   -2.5621   -0.7489    1.8590 H   0  0  0  0  0  0
   -4.0855   -2.5151    1.0698 H   0  0  0  0  0  0
   -5.3451   -2.2095   -1.0239 H   0  0  0  0  0  0
   -5.0818   -0.1374   -2.3278 H   0  0  0  0  0  0
   -3.5619    1.6307   -1.5361 H   0  0  0  0  0  0
    5.6533   -1.5635   -0.6674 H   0  0  0  0  0  0
    5.8215    0.0897   -0.9145 H   0  0  0  0  0  0
    1.5330   -3.3809    0.5928 H   0  0  0  0  0  0
    0.2002   -2.3807    0.8070 H   0  0  0  0  0  0
  1  2  1  0  0  0
  1  6  2  0  0  0
  1 10  1  0  0  0
  2  3  2  0  0  0
  2 19  1  0  0  0
  3  4  1  0  0  0
  4  5  2  0  0  0
  4 18  1  0  0  0
  5  6  1  0  0  0
  6  7  1  0  0  0
  7  8  1  0  0  0
  7 20  1  0  0  0
  7 21  1  0  0  0
  8  9  1  0  0  0
  8 22  1  0  0  0
  8 23  1  0  0  0
  9 10  1  0  0  0
  9 11  1  0  0  0
  9 24  1  0  0  0
 10 25  1  0  0  0
 10 26  1  0  0  0
 11 12  1  0  0  0
 11 27  1  0  0  0
 11 28  1  0  0  0
 12 13  1  0  0  0
 12 17  2  0  0  0
 13 14  2  0  0  0
 13 29  1  0  0  0
 14 15  1  0  0  0
 14 30  1  0  0  0
 15 16  2  0  0  0
 15 31  1  0  0  0
 16 17  1  0  0  0
 16 32  1  0  0  0
 17 33  1  0  0  0
 18 34  1  0  0  0
 18 35  1  0  0  0
 19 36  1  0  0  0
 19 37  1  0  0  0
M  END
>  <ACTIVITY>
6.74473

>  <set_rl>
1

>  <Min_dist>
999.9

>  <Avg_dist>
999.9

>  <PC_uM>
0.29

>  <TG_uM>
0.032

>  <RL_uM>
0.18

$$$$
20-5C
  Cerius2 12110214553D 1   1.00000                          
 
 40 42  0  0  0  0  0  0  0  0999 V2000
    1.5553   -0.1067    0.2071 C   0  0  0  0  0  0
    2.0096   -1.4286    0.1121 C   0  0  0  0  0  0
    3.2852   -1.6568   -0.1764 N   0  0  0  0  0  0
    4.1196   -0.6467   -0.3720 C   0  0  0  0  0  0
    3.7160    0.6102   -0.2900 N   0  0  0  0  0  0
    2.4506    0.9117   -0.0078 C   0  0  0  0  0  0
    2.0583    2.3631    0.0559 C   0  0  0  0  0  0
    0.7330    2.5267    0.7984 C   0  0  0  0  0  0
   -0.2909    1.5653    0.1837 C   0  0  0  0  0  0
    0.1106    0.1356    0.5463 C   0  0  0  0  0  0
   -1.6815    1.8668    0.7461 C   0  0  0  0  0  0
   -2.6848    0.9199    0.1395 C   0  0  0  0  0  0
   -2.9525   -0.2897    0.7530 C   0  0  0  0  0  0
   -3.8726   -1.1582    0.1967 C   0  0  0  0  0  0
   -4.5256   -0.8170   -0.9732 C   0  0  0  0  0  0
   -4.2587    0.3927   -1.5861 C   0  0  0  0  0  0
   -3.3415    1.2633   -1.0272 C   0  0  0  0  0  0
   -4.1636   -2.4772    0.8650 C   0  0  0  0  0  0
    5.4450   -0.9128   -0.6687 N   0  0  0  0  0  0
    1.1379   -2.4855    0.3174 N   0  0  0  0  0  0
    2.8347    2.9236    0.5767 H   0  0  0  0  0  0
    1.9545    2.7530   -0.9567 H   0  0  0  0  0  0
    0.8722    2.2882    1.8529 H   0  0  0  0  0  0
    0.3798    3.5527    0.6955 H   0  0  0  0  0  0
   -0.2977    1.6813   -0.9001 H   0  0  0  0  0  0
   -0.5118   -0.5654   -0.0097 H   0  0  0  0  0  0
   -0.0409   -0.0213    1.6142 H   0  0  0  0  0  0
   -1.6709    1.7403    1.8286 H   0  0  0  0  0  0
   -1.9572    2.8930    0.5028 H   0  0  0  0  0  0
   -2.4423   -0.5563    1.6669 H   0  0  0  0  0  0
   -5.2441   -1.4959   -1.4083 H   0  0  0  0  0  0
   -4.7686    0.6591   -2.5001 H   0  0  0  0  0  0
   -3.1329    2.2086   -1.5061 H   0  0  0  0  0  0
   -4.9825   -2.3526    1.5735 H   0  0  0  0  0  0
   -4.4443   -3.2124    0.1108 H   0  0  0  0  0  0
   -3.2745   -2.8205    1.3939 H   0  0  0  0  0  0
    5.7532   -1.8304   -0.7312 H   0  0  0  0  0  0
    6.0657   -0.1817   -0.8140 H   0  0  0  0  0  0
    1.4583   -3.3985    0.2504 H   0  0  0  0  0  0
    0.2070   -2.3124    0.5283 H   0  0  0  0  0  0
  1  2  1  0  0  0
  1  6  2  0  0  0
  1 10  1  0  0  0
  2  3  2  0  0  0
  2 20  1  0  0  0
  3  4  1  0  0  0
  4  5  2  0  0  0
  4 19  1  0  0  0
  5  6  1  0  0  0
  6  7  1  0  0  0
  7  8  1  0  0  0
  7 21  1  0  0  0
  7 22  1  0  0  0
  8  9  1  0  0  0
  8 23  1  0  0  0
  8 24  1  0  0  0
  9 10  1  0  0  0
  9 11  1  0  0  0
  9 25  1  0  0  0
 10 26  1  0  0  0
 10 27  1  0  0  0
 11 12  1  0  0  0
 11 28  1  0  0  0
 11 29  1  0  0  0
 12 13  1  0  0  0
 12 17  2  0  0  0
 13 14  2  0  0  0
 13 30  1  0  0  0
 14 15  1  0  0  0
 14 18  1  0  0  0
 15 16  2  0  0  0
 15 31  1  0  0  0
 16 17  1  0  0  0
 16 32  1  0  0  0
 17 33  1  0  0  0
 18 34  1  0  0  0
 18 35  1  0  0  0
 18 36  1  0  0  0
 19 37  1  0  0  0
 19 38  1  0  0  0
 20 39  1  0  0  0
 20 40  1  0  0  0
M  END
>  <ACTIVITY>
6.95861

>  <set_rl>
1

>  <Min_dist>
999.9

>  <Avg_dist>
999.9

>  <PC_uM>
0.34

>  <TG_uM>
0.036

>  <RL_uM>
0.11

$$$$
20-5E
  Cerius2 12110214553D 1   1.00000                          
 
 41 43  0  0  0  0  0  0  0  0999 V2000
    1.8378   -0.1233    0.2091 C   0  0  0  0  0  0
    2.1630   -1.4834    0.1243 C   0  0  0  0  0  0
    3.4099   -1.8353   -0.1647 N   0  0  0  0  0  0
    4.3370   -0.9116   -0.3703 C   0  0  0  0  0  0
    4.0560    0.3789   -0.2980 N   0  0  0  0  0  0
    2.8262    0.8028   -0.0159 C   0  0  0  0  0  0
    2.5751    2.2855    0.0365 C   0  0  0  0  0  0
    1.2736    2.5815    0.7802 C   0  0  0  0  0  0
    0.1605    1.7180    0.1754 C   0  0  0  0  0  0
    0.4240    0.2593    0.5490 C   0  0  0  0  0  0
   -1.1932    2.1560    0.7378 C   0  0  0  0  0  0
   -2.2843    1.3050    0.1409 C   0  0  0  0  0  0
   -2.6645    0.1324    0.7651 C   0  0  0  0  0  0
   -3.6689   -0.6505    0.2152 C   0  0  0  0  0  0
   -4.2893   -0.2537   -0.9608 C   0  0  0  0  0  0
   -3.9056    0.9194   -1.5809 C   0  0  0  0  0  0
   -2.9079    1.7010   -1.0276 C   0  0  0  0  0  0
   -4.0443   -1.8045    0.8269 O   0  0  0  0  0  0
   -5.0841   -2.3751    0.0299 C   0  0  0  0  0  0
    5.6299   -1.3060   -0.6672 N   0  0  0  0  0  0
    1.1944   -2.4500    0.3399 N   0  0  0  0  0  0
    3.4031    2.7731    0.5512 H   0  0  0  0  0  0
    2.5065    2.6754   -0.9790 H   0  0  0  0  0  0
    1.3920    2.3393    1.8363 H   0  0  0  0  0  0
    1.0202    3.6359    0.6695 H   0  0  0  0  0  0
    0.1621    1.8253   -0.9093 H   0  0  0  0  0  0
   -0.2644   -0.3832    0.0000 H   0  0  0  0  0  0
    0.2609    0.1262    1.6185 H   0  0  0  0  0  0
   -1.1920    2.0378    1.8213 H   0  0  0  0  0  0
   -1.3698    3.2019    0.4866 H   0  0  0  0  0  0
   -2.1799   -0.1745    1.6801 H   0  0  0  0  0  0
   -5.0713   -0.8617   -1.3911 H   0  0  0  0  0  0
   -4.3879    1.2285   -2.4964 H   0  0  0  0  0  0
   -2.6095    2.6181   -1.5138 H   0  0  0  0  0  0
   -5.4193   -3.3078    0.4836 H   0  0  0  0  0  0
   -5.9205   -1.6786   -0.0290 H   0  0  0  0  0  0
   -4.7058   -2.5741   -0.9727 H   0  0  0  0  0  0
    5.8484   -2.2495   -0.7227 H   0  0  0  0  0  0
    6.3175   -0.6391   -0.8198 H   0  0  0  0  0  0
    1.4255   -3.3902    0.2798 H   0  0  0  0  0  0
    0.2850   -2.1867    0.5510 H   0  0  0  0  0  0
  1  2  1  0  0  0
  1  6  2  0  0  0
  1 10  1  0  0  0
  2  3  2  0  0  0
  2 21  1  0  0  0
  3  4  1  0  0  0
  4  5  2  0  0  0
  4 20  1  0  0  0
  5  6  1  0  0  0
  6  7  1  0  0  0
  7  8  1  0  0  0
  7 22  1  0  0  0
  7 23  1  0  0  0
  8  9  1  0  0  0
  8 24  1  0  0  0
  8 25  1  0  0  0
  9 10  1  0  0  0
  9 11  1  0  0  0
  9 26  1  0  0  0
 10 27  1  0  0  0
 10 28  1  0  0  0
 11 12  1  0  0  0
 11 29  1  0  0  0
 11 30  1  0  0  0
 12 13  1  0  0  0
 12 17  2  0  0  0
 13 14  2  0  0  0
 13 31  1  0  0  0
 14 15  1  0  0  0
 14 18  1  0  0  0
 15 16  2  0  0  0
 15 32  1  0  0  0
 16 17  1  0  0  0
 16 33  1  0  0  0
 17 34  1  0  0  0
 18 19  1  0  0  0
 19 35  1  0  0  0
 19 36  1  0  0  0
 19 37  1  0  0  0
 20 38  1  0  0  0
 20 39  1  0  0  0
 21 40  1  0  0  0
 21 41  1  0  0  0
M  END
>  <ACTIVITY>
6.95861

>  <set_rl>
1

>  <Min_dist>
999.9

>  <Avg_dist>
999.9

>  <PC_uM>
0.27

>  <TG_uM>
0.021

>  <RL_uM>
0.11

$$$$
20-5F
  Cerius2 12110214553D 1   1.00000                          
 
 41 43  0  0  0  0  0  0  0  0999 V2000
    1.9914   -0.0975    0.2574 C   0  0  0  0  0  0
    2.3870   -1.4309    0.4263 C   0  0  0  0  0  0
    3.6074   -1.7974    0.0541 N   0  0  0  0  0  0
    4.4425   -0.9130   -0.4708 C   0  0  0  0  0  0
    4.0934    0.3511   -0.6427 N   0  0  0  0  0  0
    2.8846    0.7867   -0.2951 C   0  0  0  0  0  0
    2.5507    2.2347   -0.5320 C   0  0  0  0  0  0
    1.3366    2.6465    0.2993 C   0  0  0  0  0  0
    0.2123    1.6338    0.0529 C   0  0  0  0  0  0
    0.6102    0.3048    0.6948 C   0  0  0  0  0  0
   -1.0850    2.1418    0.6852 C   0  0  0  0  0  0
   -2.1874    1.1437    0.4409 C   0  0  0  0  0  0
   -2.4128    0.1277    1.3512 C   0  0  0  0  0  0
   -3.4227   -0.7884    1.1295 C   0  0  0  0  0  0
   -4.2110   -0.6885   -0.0077 C   0  0  0  0  0  0
   -3.9828    0.3318   -0.9196 C   0  0  0  0  0  0
   -2.9753    1.2489   -0.6904 C   0  0  0  0  0  0
   -5.2048   -1.5888   -0.2283 O   0  0  0  0  0  0
   -5.8261   -1.2241   -1.4624 C   0  0  0  0  0  0
    5.7100   -1.3213   -0.8476 N   0  0  0  0  0  0
    1.5147   -2.3562    0.9759 N   0  0  0  0  0  0
    3.4047    2.8517   -0.2526 H   0  0  0  0  0  0
    2.3316    2.3857   -1.5890 H   0  0  0  0  0  0
    1.6010    2.6502    1.3567 H   0  0  0  0  0  0
    1.0066    3.6407   -0.0021 H   0  0  0  0  0  0
    0.0715    1.4963   -1.0192 H   0  0  0  0  0  0
   -0.1002   -0.4663    0.3968 H   0  0  0  0  0  0
    0.5908    0.4085    1.7797 H   0  0  0  0  0  0
   -0.9409    2.2685    1.7582 H   0  0  0  0  0  0
   -1.3560    3.0988    0.2395 H   0  0  0  0  0  0
   -1.7986    0.0501    2.2362 H   0  0  0  0  0  0
   -3.5982   -1.5820    1.8407 H   0  0  0  0  0  0
   -4.5951    0.4118   -1.8056 H   0  0  0  0  0  0
   -2.7974    2.0435   -1.3998 H   0  0  0  0  0  0
   -6.6341   -1.9217   -1.6825 H   0  0  0  0  0  0
   -6.2294   -0.2147   -1.3818 H   0  0  0  0  0  0
   -5.0885   -1.2577   -2.2643 H   0  0  0  0  0  0
    5.9779   -2.2456   -0.7263 H   0  0  0  0  0  0
    6.3305   -0.6831   -1.2331 H   0  0  0  0  0  0
    1.7943   -3.2779    1.0903 H   0  0  0  0  0  0
    0.6243   -2.0823    1.2462 H   0  0  0  0  0  0
  1  2  1  0  0  0
  1  6  2  0  0  0
  1 10  1  0  0  0
  2  3  2  0  0  0
  2 21  1  0  0  0
  3  4  1  0  0  0
  4  5  2  0  0  0
  4 20  1  0  0  0
  5  6  1  0  0  0
  6  7  1  0  0  0
  7  8  1  0  0  0
  7 22  1  0  0  0
  7 23  1  0  0  0
  8  9  1  0  0  0
  8 24  1  0  0  0
  8 25  1  0  0  0
  9 10  1  0  0  0
  9 11  1  0  0  0
  9 26  1  0  0  0
 10 27  1  0  0  0
 10 28  1  0  0  0
 11 12  1  0  0  0
 11 29  1  0  0  0
 11 30  1  0  0  0
 12 13  1  0  0  0
 12 17  2  0  0  0
 13 14  2  0  0  0
 13 31  1  0  0  0
 14 15  1  0  0  0
 14 32  1  0  0  0
 15 16  2  0  0  0
 15 18  1  0  0  0
 16 17  1  0  0  0
 16 33  1  0  0  0
 17 34  1  0  0  0
 18 19  1  0  0  0
 19 35  1  0  0  0
 19 36  1  0  0  0
 19 37  1  0  0  0
 20 38  1  0  0  0
 20 39  1  0  0  0
 21 40  1  0  0  0
 21 41  1  0  0  0
M  END
>  <ACTIVITY>
7.11351

>  <set_rl>
1

>  <Min_dist>
999.9

>  <Avg_dist>
999.9

>  <PC_uM>
0.44

>  <TG_uM>
0.05

>  <RL_uM>
0.077

$$$$
20-5G
  Cerius2 12110214553D 1   1.00000                          
 
 40 42  0  0  0  0  0  0  0  0999 V2000
    2.2898   -0.1227    0.1652 C   0  0  0  0  0  0
    2.4643   -1.4930   -0.0686 C   0  0  0  0  0  0
    3.6805   -1.9566   -0.3298 N   0  0  0  0  0  0
    4.7179   -1.1337   -0.3686 C   0  0  0  0  0  0
    4.5803    0.1640   -0.1534 N   0  0  0  0  0  0
    3.3897    0.6974    0.1107 C   0  0  0  0  0  0
    3.3047    2.1834    0.3316 C   0  0  0  0  0  0
    1.9968    2.5458    1.0334 C   0  0  0  0  0  0
    0.8377    1.8986    0.2665 C   0  0  0  0  0  0
    0.9082    0.3854    0.4714 C   0  0  0  0  0  0
   -0.4935    2.4284    0.8034 C   0  0  0  0  0  0
   -1.6299    1.7899    0.0471 C   0  0  0  0  0  0
   -2.1831    0.6065    0.4999 C   0  0  0  0  0  0
   -3.2254    0.0210   -0.1938 C   0  0  0  0  0  0
   -3.7150    0.6189   -1.3402 C   0  0  0  0  0  0
   -3.1626    1.8024   -1.7923 C   0  0  0  0  0  0
   -2.1229    2.3904   -1.0960 C   0  0  0  0  0  0
   -3.8277   -1.2694    0.2992 C   0  0  0  0  0  0
   -4.8582   -1.6619   -0.5617 F   0  0  0  0  0  0
   -2.8424   -2.2621    0.3302 F   0  0  0  0  0  0
   -4.3416   -1.0822    1.5869 F   0  0  0  0  0  0
    5.9754   -1.6440   -0.6404 N   0  0  0  0  0  0
    1.3801   -2.3543   -0.0273 N   0  0  0  0  0  0
    4.1449    2.5047    0.9472 H   0  0  0  0  0  0
    3.3509    2.6938   -0.6303 H   0  0  0  0  0  0
    2.0139    2.1703    2.0566 H   0  0  0  0  0  0
    1.8724    3.6286    1.0398 H   0  0  0  0  0  0
    0.9262    2.1300   -0.7949 H   0  0  0  0  0  0
    0.1913   -0.1015   -0.1896 H   0  0  0  0  0  0
    0.6577    0.1498    1.5058 H   0  0  0  0  0  0
   -0.5804    2.1860    1.8625 H   0  0  0  0  0  0
   -0.5330    3.5099    0.6737 H   0  0  0  0  0  0
   -1.8006    0.1395    1.3954 H   0  0  0  0  0  0
   -4.5290    0.1610   -1.8826 H   0  0  0  0  0  0
   -3.5449    2.2693   -2.6880 H   0  0  0  0  0  0
   -1.6913    3.3152   -1.4493 H   0  0  0  0  0  0
    6.0893   -2.5940   -0.7997 H   0  0  0  0  0  0
    6.7428   -1.0515   -0.6716 H   0  0  0  0  0  0
    1.5072   -3.3021   -0.1901 H   0  0  0  0  0  0
    0.4939   -2.0097    0.1643 H   0  0  0  0  0  0
  1  2  1  0  0  0
  1  6  2  0  0  0
  1 10  1  0  0  0
  2  3  2  0  0  0
  2 23  1  0  0  0
  3  4  1  0  0  0
  4  5  2  0  0  0
  4 22  1  0  0  0
  5  6  1  0  0  0
  6  7  1  0  0  0
  7  8  1  0  0  0
  7 24  1  0  0  0
  7 25  1  0  0  0
  8  9  1  0  0  0
  8 26  1  0  0  0
  8 27  1  0  0  0
  9 10  1  0  0  0
  9 11  1  0  0  0
  9 28  1  0  0  0
 10 29  1  0  0  0
 10 30  1  0  0  0
 11 12  1  0  0  0
 11 31  1  0  0  0
 11 32  1  0  0  0
 12 13  1  0  0  0
 12 17  2  0  0  0
 13 14  2  0  0  0
 13 33  1  0  0  0
 14 15  1  0  0  0
 14 18  1  0  0  0
 15 16  2  0  0  0
 15 34  1  0  0  0
 16 17  1  0  0  0
 16 35  1  0  0  0
 17 36  1  0  0  0
 18 19  1  0  0  0
 18 20  1  0  0  0
 18 21  1  0  0  0
 22 37  1  0  0  0
 22 38  1  0  0  0
 23 39  1  0  0  0
 23 40  1  0  0  0
M  END
>  <ACTIVITY>
6.72125

>  <set_rl>
1

>  <Min_dist>
999.9

>  <Avg_dist>
999.9

>  <PC_uM>
0.4

>  <TG_uM>
0.14

>  <RL_uM>
0.19

$$$$
20-5I
  Cerius2 12110214553D 1   1.00000                          
 
 41 43  0  0  0  0  0  0  0  0999 V2000
    2.9934   -0.0926    0.2642 C   0  0  0  0  0  0
    3.3078   -1.4101    0.6221 C   0  0  0  0  0  0
    4.4534   -1.9386    0.2090 N   0  0  0  0  0  0
    5.2905   -1.2288   -0.5328 C   0  0  0  0  0  0
    5.0170    0.0161   -0.8860 N   0  0  0  0  0  0
    3.8853    0.6075   -0.5100 C   0  0  0  0  0  0
    3.6333    2.0211   -0.9598 C   0  0  0  0  0  0
    2.5450    2.6684   -0.1047 C   0  0  0  0  0  0
    1.3314    1.7322   -0.0713 C   0  0  0  0  0  0
    1.6977    0.4959    0.7497 C   0  0  0  0  0  0
    0.1468    2.4489    0.5797 C   0  0  0  0  0  0
   -1.0437    1.5255    0.6105 C   0  0  0  0  0  0
   -1.2454    0.6956    1.6979 C   0  0  0  0  0  0
   -2.3360   -0.1518    1.7285 C   0  0  0  0  0  0
   -3.2292   -0.1697    0.6672 C   0  0  0  0  0  0
   -3.0246    0.6640   -0.4227 C   0  0  0  0  0  0
   -1.9356    1.5137   -0.4460 C   0  0  0  0  0  0
   -4.3026   -1.0027    0.6948 O   0  0  0  0  0  0
   -5.0212   -0.7910   -0.5221 C   0  0  0  0  0  0
   -6.1437   -1.6255   -0.5521 F   0  0  0  0  0  0
   -5.4310    0.5447   -0.5953 F   0  0  0  0  0  0
   -4.1924   -1.0848   -1.6102 F   0  0  0  0  0  0
    6.4794   -1.8032   -0.9476 N   0  0  0  0  0  0
    2.4334   -2.1528    1.3986 N   0  0  0  0  0  0
    4.5538    2.5978   -0.8686 H   0  0  0  0  0  0
    3.3167    2.0163   -2.0029 H   0  0  0  0  0  0
    2.9176    2.8213    0.9081 H   0  0  0  0  0  0
    2.2575    3.6253   -0.5405 H   0  0  0  0  0  0
    1.0703    1.4346   -1.0869 H   0  0  0  0  0  0
    0.9066   -0.2478    0.6536 H   0  0  0  0  0  0
    1.7988    0.7765    1.7980 H   0  0  0  0  0  0
    0.4105    2.7358    1.5976 H   0  0  0  0  0  0
   -0.0998    3.3406    0.0032 H   0  0  0  0  0  0
   -0.5496    0.7096    2.5237 H   0  0  0  0  0  0
   -2.4929   -0.8002    2.5779 H   0  0  0  0  0  0
   -3.7185    0.6520   -1.2502 H   0  0  0  0  0  0
   -1.7760    2.1632   -1.2940 H   0  0  0  0  0  0
    6.6914   -2.7153   -0.6947 H   0  0  0  0  0  0
    7.1005   -1.2937   -1.4911 H   0  0  0  0  0  0
    2.6566   -3.0645    1.6432 H   0  0  0  0  0  0
    1.5979   -1.7611    1.6977 H   0  0  0  0  0  0
  1  2  1  0  0  0
  1  6  2  0  0  0
  1 10  1  0  0  0
  2  3  2  0  0  0
  2 24  1  0  0  0
  3  4  1  0  0  0
  4  5  2  0  0  0
  4 23  1  0  0  0
  5  6  1  0  0  0
  6  7  1  0  0  0
  7  8  1  0  0  0
  7 25  1  0  0  0
  7 26  1  0  0  0
  8  9  1  0  0  0
  8 27  1  0  0  0
  8 28  1  0  0  0
  9 10  1  0  0  0
  9 11  1  0  0  0
  9 29  1  0  0  0
 10 30  1  0  0  0
 10 31  1  0  0  0
 11 12  1  0  0  0
 11 32  1  0  0  0
 11 33  1  0  0  0
 12 13  1  0  0  0
 12 17  2  0  0  0
 13 14  2  0  0  0
 13 34  1  0  0  0
 14 15  1  0  0  0
 14 35  1  0  0  0
 15 16  2  0  0  0
 15 18  1  0  0  0
 16 17  1  0  0  0
 16 36  1  0  0  0
 17 37  1  0  0  0
 18 19  1  0  0  0
 19 20  1  0  0  0
 19 21  1  0  0  0
 19 22  1  0  0  0
 23 38  1  0  0  0
 23 39  1  0  0  0
 24 40  1  0  0  0
 24 41  1  0  0  0
M  END
>  <ACTIVITY>
6.76955

>  <set_rl>
1

>  <Min_dist>
999.9

>  <Avg_dist>
999.9

>  <PC_uM>
0.58

>  <TG_uM>
0.073

>  <RL_uM>
0.17

$$$$
20-5J
  Cerius2 12110214553D 1   1.00000                          
 
 45 47  0  0  0  0  0  0  0  0999 V2000
    2.1747   -0.2338    0.2318 C   0  0  0  0  0  0
    2.6343   -1.4940   -0.1730 C   0  0  0  0  0  0
    3.8885   -1.6244   -0.5879 N   0  0  0  0  0  0
    4.6972   -0.5755   -0.6188 C   0  0  0  0  0  0
    4.2879    0.6251   -0.2439 N   0  0  0  0  0  0
    3.0427    0.8287    0.1798 C   0  0  0  0  0  0
    2.6416    2.2234    0.5776 C   0  0  0  0  0  0
    1.3702    2.1931    1.4246 C   0  0  0  0  0  0
    0.3151    1.3591    0.6887 C   0  0  0  0  0  0
    0.7552   -0.1046    0.7104 C   0  0  0  0  0  0
   -1.0354    1.5002    1.3938 C   0  0  0  0  0  0
   -2.0695    0.6791    0.6675 C   0  0  0  0  0  0
   -2.8088    1.2462   -0.3602 C   0  0  0  0  0  0
   -3.7600    0.4905   -1.0289 C   0  0  0  0  0  0
   -3.9711   -0.8273   -0.6719 C   0  0  0  0  0  0
   -3.2317   -1.3943    0.3552 C   0  0  0  0  0  0
   -2.2772   -0.6397    1.0212 C   0  0  0  0  0  0
   -3.4395   -2.6914    0.7066 O   0  0  0  0  0  0
   -4.4655   -3.1928   -0.1524 C   0  0  0  0  0  0
   -2.6010    2.5433   -0.7116 O   0  0  0  0  0  0
   -3.5004    2.8297   -1.7845 C   0  0  0  0  0  0
    6.0009   -0.7400   -1.0530 N   0  0  0  0  0  0
    1.7896   -2.5915   -0.1401 N   0  0  0  0  0  0
    3.4471    2.6796    1.1530 H   0  0  0  0  0  0
    2.4629    2.8165   -0.3193 H   0  0  0  0  0  0
    1.5856    1.7400    2.3923 H   0  0  0  0  0  0
    1.0006    3.2086    1.5667 H   0  0  0  0  0  0
    0.2310    1.7021   -0.3425 H   0  0  0  0  0  0
    0.1021   -0.6869    0.0604 H   0  0  0  0  0  0
    0.6808   -0.4882    1.7280 H   0  0  0  0  0  0
   -0.9474    1.1473    2.4213 H   0  0  0  0  0  0
   -1.3376    2.5475    1.3940 H   0  0  0  0  0  0
   -4.3361    0.9323   -1.8285 H   0  0  0  0  0  0
   -4.7122   -1.4157   -1.1924 H   0  0  0  0  0  0
   -1.7011   -1.0814    1.8208 H   0  0  0  0  0  0
   -4.6676   -4.2354    0.0931 H   0  0  0  0  0  0
   -5.3731   -2.6049   -0.0160 H   0  0  0  0  0  0
   -4.1383   -3.1207   -1.1897 H   0  0  0  0  0  0
   -3.3698    3.8643   -2.1018 H   0  0  0  0  0  0
   -3.2911    2.1638   -2.6217 H   0  0  0  0  0  0
   -4.5263    2.6795   -1.4485 H   0  0  0  0  0  0
    6.3130   -1.6156   -1.3303 H   0  0  0  0  0  0
    6.6026    0.0204   -1.0802 H   0  0  0  0  0  0
    2.1135   -3.4614   -0.4216 H   0  0  0  0  0  0
    0.8742   -2.4900    0.1643 H   0  0  0  0  0  0
  1  2  1  0  0  0
  1  6  2  0  0  0
  1 10  1  0  0  0
  2  3  2  0  0  0
  2 23  1  0  0  0
  3  4  1  0  0  0
  4  5  2  0  0  0
  4 22  1  0  0  0
  5  6  1  0  0  0
  6  7  1  0  0  0
  7  8  1  0  0  0
  7 24  1  0  0  0
  7 25  1  0  0  0
  8  9  1  0  0  0
  8 26  1  0  0  0
  8 27  1  0  0  0
  9 10  1  0  0  0
  9 11  1  0  0  0
  9 28  1  0  0  0
 10 29  1  0  0  0
 10 30  1  0  0  0
 11 12  1  0  0  0
 11 31  1  0  0  0
 11 32  1  0  0  0
 12 13  1  0  0  0
 12 17  2  0  0  0
 13 14  2  0  0  0
 13 20  1  0  0  0
 14 15  1  0  0  0
 14 33  1  0  0  0
 15 16  2  0  0  0
 15 34  1  0  0  0
 16 17  1  0  0  0
 16 18  1  0  0  0
 17 35  1  0  0  0
 18 19  1  0  0  0
 19 36  1  0  0  0
 19 37  1  0  0  0
 19 38  1  0  0  0
 20 21  1  0  0  0
 21 39  1  0  0  0
 21 40  1  0  0  0
 21 41  1  0  0  0
 22 42  1  0  0  0
 22 43  1  0  0  0
 23 44  1  0  0  0
 23 45  1  0  0  0
M  END
>  <ACTIVITY>
7.46852

>  <set_rl>
1

>  <Min_dist>
999.9

>  <Avg_dist>
999.9

>  <PC_uM>
0.057

>  <TG_uM>
0.021

>  <RL_uM>
0.034

$$$$
20-5K
  Cerius2 12110214553D 1   1.00000                          
 
 45 47  0  0  0  0  0  0  0  0999 V2000
    2.2870   -0.0976    0.1410 C   0  0  0  0  0  0
    2.6004   -1.4491   -0.0543 C   0  0  0  0  0  0
    3.8219   -1.7802   -0.4553 N   0  0  0  0  0  0
    4.7346   -0.8440   -0.6683 C   0  0  0  0  0  0
    4.4640    0.4388   -0.4932 N   0  0  0  0  0  0
    3.2595    0.8422   -0.0957 C   0  0  0  0  0  0
    3.0180    2.3182    0.0698 C   0  0  0  0  0  0
    1.7751    2.5642    0.9238 C   0  0  0  0  0  0
    0.6180    1.7398    0.3476 C   0  0  0  0  0  0
    0.9030    0.2605    0.6069 C   0  0  0  0  0  0
   -0.6898    2.1392    1.0341 C   0  0  0  0  0  0
   -1.8243    1.3268    0.4651 C   0  0  0  0  0  0
   -2.1615    0.1152    1.0401 C   0  0  0  0  0  0
   -3.2041   -0.6328    0.5183 C   0  0  0  0  0  0
   -3.9103   -0.1620   -0.5850 C   0  0  0  0  0  0
   -3.5674    1.0525   -1.1562 C   0  0  0  0  0  0
   -2.5292    1.7969   -0.6268 C   0  0  0  0  0  0
   -4.9344   -0.8929   -1.1012 O   0  0  0  0  0  0
   -5.4509   -0.1544   -2.2102 C   0  0  0  0  0  0
   -3.5367   -1.8247    1.0823 O   0  0  0  0  0  0
   -2.6417   -2.0274    2.1777 C   0  0  0  0  0  0
    6.0011   -1.2169   -1.0833 N   0  0  0  0  0  0
    1.6468   -2.4288    0.1690 N   0  0  0  0  0  0
    3.8828    2.7728    0.5529 H   0  0  0  0  0  0
    2.8769    2.7723   -0.9110 H   0  0  0  0  0  0
    1.9693    2.2549    1.9508 H   0  0  0  0  0  0
    1.5179    3.6232    0.8996 H   0  0  0  0  0  0
    0.5409    1.9165   -0.7252 H   0  0  0  0  0  0
    0.1743   -0.3464    0.0694 H   0  0  0  0  0  0
    0.8178    0.0589    1.6747 H   0  0  0  0  0  0
   -0.6100    1.9517    2.1049 H   0  0  0  0  0  0
   -0.8806    3.1988    0.8640 H   0  0  0  0  0  0
   -1.6118   -0.2480    1.8958 H   0  0  0  0  0  0
   -4.1137    1.4201   -2.0123 H   0  0  0  0  0  0
   -2.2628    2.7436   -1.0731 H   0  0  0  0  0  0
   -6.2785   -0.7039   -2.6588 H   0  0  0  0  0  0
   -5.8043    0.8177   -1.8665 H   0  0  0  0  0  0
   -4.6640   -0.0138   -2.9512 H   0  0  0  0  0  0
   -2.8710   -2.9758    2.6636 H   0  0  0  0  0  0
   -1.6158   -2.0463    1.8099 H   0  0  0  0  0  0
   -2.7555   -1.2147    2.8951 H   0  0  0  0  0  0
    6.2118   -2.1546   -1.2150 H   0  0  0  0  0  0
    6.6780   -0.5407   -1.2426 H   0  0  0  0  0  0
    1.8698   -3.3629    0.0321 H   0  0  0  0  0  0
    0.7561   -2.1808    0.4623 H   0  0  0  0  0  0
  1  2  1  0  0  0
  1  6  2  0  0  0
  1 10  1  0  0  0
  2  3  2  0  0  0
  2 23  1  0  0  0
  3  4  1  0  0  0
  4  5  2  0  0  0
  4 22  1  0  0  0
  5  6  1  0  0  0
  6  7  1  0  0  0
  7  8  1  0  0  0
  7 24  1  0  0  0
  7 25  1  0  0  0
  8  9  1  0  0  0
  8 26  1  0  0  0
  8 27  1  0  0  0
  9 10  1  0  0  0
  9 11  1  0  0  0
  9 28  1  0  0  0
 10 29  1  0  0  0
 10 30  1  0  0  0
 11 12  1  0  0  0
 11 31  1  0  0  0
 11 32  1  0  0  0
 12 13  1  0  0  0
 12 17  2  0  0  0
 13 14  2  0  0  0
 13 33  1  0  0  0
 14 15  1  0  0  0
 14 20  1  0  0  0
 15 16  2  0  0  0
 15 18  1  0  0  0
 16 17  1  0  0  0
 16 34  1  0  0  0
 17 35  1  0  0  0
 18 19  1  0  0  0
 19 36  1  0  0  0
 19 37  1  0  0  0
 19 38  1  0  0  0
 20 21  1  0  0  0
 21 39  1  0  0  0
 21 40  1  0  0  0
 21 41  1  0  0  0
 22 42  1  0  0  0
 22 43  1  0  0  0
 23 44  1  0  0  0
 23 45  1  0  0  0
M  END
>  <ACTIVITY>
7.20066

>  <set_rl>
1

>  <Min_dist>
999.9

>  <Avg_dist>
999.9

>  <PC_uM>
0.1

>  <TG_uM>
0.023

>  <RL_uM>
0.063

$$$$
19-8
  Cerius2 12110214553D 1   1.00000                          
 
 56 58  0  0  0  0  0  0  0  0999 V2000
    3.4892    0.0711    0.0965 C   0  0  0  0  0  0
    4.3189   -1.0299   -0.1535 C   0  0  0  0  0  0
    5.6344   -0.8552   -0.1914 N   0  0  0  0  0  0
    6.1574    0.3459    0.0051 C   0  0  0  0  0  0
    5.3966    1.4019    0.2411 N   0  0  0  0  0  0
    4.0703    1.3000    0.2896 C   0  0  0  0  0  0
    3.2663    2.5452    0.5489 C   0  0  0  0  0  0
    1.8508    2.1842    0.9969 C   0  0  0  0  0  0
    1.2633    1.1844   -0.0060 C   0  0  0  0  0  0
    2.0021   -0.1449    0.1482 C   0  0  0  0  0  0
   -0.2254    0.9814    0.2824 C   0  0  0  0  0  0
   -0.7845    0.0230   -0.6803 N   0  0  0  0  0  0
   -2.1407   -0.1189   -0.3653 C   0  0  0  0  0  0
   -2.9815    0.9836   -0.4019 C   0  0  0  0  0  0
   -4.3246    0.8399   -0.0897 C   0  0  0  0  0  0
   -4.8272   -0.4049    0.2593 C   0  0  0  0  0  0
   -3.9908   -1.5053    0.2970 C   0  0  0  0  0  0
   -2.6497   -1.3686   -0.0199 C   0  0  0  0  0  0
   -1.8274   -2.4524    0.0171 O   0  0  0  0  0  0
   -2.6303   -3.5668    0.4114 C   0  0  0  0  0  0
   -1.7616   -4.8248    0.4729 C   0  0  0  0  0  0
   -5.1498    1.9201   -0.1254 O   0  0  0  0  0  0
   -6.4516    1.4576    0.2401 C   0  0  0  0  0  0
   -7.4338    2.6305    0.2197 C   0  0  0  0  0  0
   -0.7226    0.6655   -1.9999 C   0  0  0  0  0  0
    7.5322    0.4995   -0.0371 N   0  0  0  0  0  0
    3.7728   -2.2864   -0.3582 N   0  0  0  0  0  0
    3.7523    3.1320    1.3285 H   0  0  0  0  0  0
    3.2151    3.1377   -0.3645 H   0  0  0  0  0  0
    1.8846    1.7318    1.9880 H   0  0  0  0  0  0
    1.2344    3.0828    1.0221 H   0  0  0  0  0  0
    1.3950    1.5623   -1.0199 H   0  0  0  0  0  0
    1.7080   -0.8163   -0.6585 H   0  0  0  0  0  0
    1.7358   -0.5964    1.1038 H   0  0  0  0  0  0
   -0.3501    0.5949    1.2940 H   0  0  0  0  0  0
   -0.7465    1.9343    0.1908 H   0  0  0  0  0  0
   -2.5902    1.9531   -0.6730 H   0  0  0  0  0  0
   -5.8737   -0.5148    0.5025 H   0  0  0  0  0  0
   -4.3848   -2.4732    0.5695 H   0  0  0  0  0  0
   -3.0614   -3.3745    1.3939 H   0  0  0  0  0  0
   -3.4305   -3.7129   -0.3142 H   0  0  0  0  0  0
   -2.3741   -5.6749    0.7736 H   0  0  0  0  0  0
   -1.3306   -5.0171   -0.5096 H   0  0  0  0  0  0
   -0.9615   -4.6787    1.1984 H   0  0  0  0  0  0
   -6.7791    0.6970   -0.4686 H   0  0  0  0  0  0
   -6.4172    1.0299    1.2421 H   0  0  0  0  0  0
   -8.4268    2.2778    0.4984 H   0  0  0  0  0  0
   -7.1062    3.3912    0.9284 H   0  0  0  0  0  0
   -7.4682    3.0582   -0.7823 H   0  0  0  0  0  0
   -1.1286   -0.0104   -2.7525 H   0  0  0  0  0  0
   -1.3076    1.5852   -1.9840 H   0  0  0  0  0  0
    0.3142    0.8986   -2.2423 H   0  0  0  0  0  0
    8.1008   -0.2674   -0.2090 H   0  0  0  0  0  0
    7.9271    1.3739    0.1052 H   0  0  0  0  0  0
    4.3524   -3.0448   -0.5308 H   0  0  0  0  0  0
    2.8109   -2.4078   -0.3289 H   0  0  0  0  0  0
  1  2  1  0  0  0
  1  6  2  0  0  0
  1 10  1  0  0  0
  2  3  2  0  0  0
  2 27  1  0  0  0
  3  4  1  0  0  0
  4  5  2  0  0  0
  4 26  1  0  0  0
  5  6  1  0  0  0
  6  7  1  0  0  0
  7  8  1  0  0  0
  7 28  1  0  0  0
  7 29  1  0  0  0
  8  9  1  0  0  0
  8 30  1  0  0  0
  8 31  1  0  0  0
  9 10  1  0  0  0
  9 11  1  0  0  0
  9 32  1  0  0  0
 10 33  1  0  0  0
 10 34  1  0  0  0
 11 12  1  0  0  0
 11 35  1  0  0  0
 11 36  1  0  0  0
 12 13  1  0  0  0
 12 25  1  0  0  0
 13 14  1  0  0  0
 13 18  2  0  0  0
 14 15  2  0  0  0
 14 37  1  0  0  0
 15 16  1  0  0  0
 15 22  1  0  0  0
 16 17  2  0  0  0
 16 38  1  0  0  0
 17 18  1  0  0  0
 17 39  1  0  0  0
 18 19  1  0  0  0
 19 20  1  0  0  0
 20 21  1  0  0  0
 20 40  1  0  0  0
 20 41  1  0  0  0
 21 42  1  0  0  0
 21 43  1  0  0  0
 21 44  1  0  0  0
 22 23  1  0  0  0
 23 24  1  0  0  0
 23 45  1  0  0  0
 23 46  1  0  0  0
 24 47  1  0  0  0
 24 48  1  0  0  0
 24 49  1  0  0  0
 25 50  1  0  0  0
 25 51  1  0  0  0
 25 52  1  0  0  0
 26 53  1  0  0  0
 26 54  1  0  0  0
 27 55  1  0  0  0
 27 56  1  0  0  0
M  END
>  <ACTIVITY>
6.93554

>  <set_rl>
1

>  <Min_dist>
999.9

>  <Avg_dist>
999.9

>  <PC_uM>
0.319

>  <TG_uM>
0.017

>  <RL_uM>
0.116

$$$$
19-11
  Cerius2 12110214553D 1   1.00000                          
 
 39 41  0  0  0  0  0  0  0  0999 V2000
    3.0698    0.0537    0.2601 C   0  0  0  0  0  0
    3.8016   -0.9955    0.8315 C   0  0  0  0  0  0
    5.1259   -0.9879    0.7396 N   0  0  0  0  0  0
    5.7492    0.0003    0.1153 C   0  0  0  0  0  0
    5.0820    1.0016   -0.4342 N   0  0  0  0  0  0
    3.7531    1.0561   -0.3828 C   0  0  0  0  0  0
    3.0589    2.2174   -1.0414 C   0  0  0  0  0  0
    1.6277    2.3488   -0.5228 C   0  0  0  0  0  0
    0.9408    0.9831   -0.6390 C   0  0  0  0  0  0
    1.5713    0.0370    0.3828 C   0  0  0  0  0  0
   -0.5536    1.1326   -0.3472 C   0  0  0  0  0  0
   -1.2062   -0.1743   -0.4592 N   0  0  0  0  0  0
   -2.5807   -0.2904   -0.2351 C   0  0  0  0  0  0
   -3.3293    0.8319    0.0938 C   0  0  0  0  0  0
   -4.6888    0.7136    0.3144 C   0  0  0  0  0  0
   -5.3036   -0.5219    0.2081 C   0  0  0  0  0  0
   -4.5609   -1.6411   -0.1192 C   0  0  0  0  0  0
   -3.2023   -1.5286   -0.3466 C   0  0  0  0  0  0
   -2.2707   -2.9347   -0.7574 Cl  0  0  0  0  0  0
   -5.6257    2.1160    0.7256 Cl  0  0  0  0  0  0
    7.1308   -0.0150    0.0365 N   0  0  0  0  0  0
    3.1507   -2.0289    1.4854 N   0  0  0  0  0  0
    3.6064    3.1346   -0.8243 H   0  0  0  0  0  0
    3.0384    2.0603   -2.1198 H   0  0  0  0  0  0
    1.6437    2.6631    0.5208 H   0  0  0  0  0  0
    1.0874    3.0826   -1.1210 H   0  0  0  0  0  0
    1.0830    0.5858   -1.6440 H   0  0  0  0  0  0
    1.2075   -0.9756    0.2088 H   0  0  0  0  0  0
    1.2877    0.3508    1.3874 H   0  0  0  0  0  0
   -0.6897    1.5213    0.6620 H   0  0  0  0  0  0
   -0.9967    1.8227   -1.0652 H   0  0  0  0  0  0
   -0.6842   -0.9589   -0.6889 H   0  0  0  0  0  0
   -2.8500    1.7960    0.1776 H   0  0  0  0  0  0
   -6.3658   -0.6118    0.3816 H   0  0  0  0  0  0
   -5.0436   -2.6038   -0.2010 H   0  0  0  0  0  0
    7.6313   -0.7437    0.4358 H   0  0  0  0  0  0
    7.5987    0.7029   -0.4181 H   0  0  0  0  0  0
    3.6627   -2.7526    1.8790 H   0  0  0  0  0  0
    2.1828   -2.0288    1.5495 H   0  0  0  0  0  0
  1  2  1  0  0  0
  1  6  2  0  0  0
  1 10  1  0  0  0
  2  3  2  0  0  0
  2 22  1  0  0  0
  3  4  1  0  0  0
  4  5  2  0  0  0
  4 21  1  0  0  0
  5  6  1  0  0  0
  6  7  1  0  0  0
  7  8  1  0  0  0
  7 23  1  0  0  0
  7 24  1  0  0  0
  8  9  1  0  0  0
  8 25  1  0  0  0
  8 26  1  0  0  0
  9 10  1  0  0  0
  9 11  1  0  0  0
  9 27  1  0  0  0
 10 28  1  0  0  0
 10 29  1  0  0  0
 11 12  1  0  0  0
 11 30  1  0  0  0
 11 31  1  0  0  0
 12 13  1  0  0  0
 12 32  1  0  0  0
 13 14  1  0  0  0
 13 18  2  0  0  0
 14 15  2  0  0  0
 14 33  1  0  0  0
 15 16  1  0  0  0
 15 20  1  0  0  0
 16 17  2  0  0  0
 16 34  1  0  0  0
 17 18  1  0  0  0
 17 35  1  0  0  0
 18 19  1  0  0  0
 21 36  1  0  0  0
 21 37  1  0  0  0
 22 38  1  0  0  0
 22 39  1  0  0  0
M  END
>  <ACTIVITY>
6.61979

>  <set_rl>
1

>  <Min_dist>
999.9

>  <Avg_dist>
999.9

>  <PC_uM>
0.41

>  <TG_uM>
0.097

>  <RL_uM>
0.24

$$$$
19-20
  Cerius2 12110214553D 1   1.00000                          
 
 48 51  0  0  0  0  0  0  0  0999 V2000
    2.8540   -0.2414    0.0909 C   0  0  0  0  0  0
    3.4440   -1.4778   -0.2024 C   0  0  0  0  0  0
    4.7677   -1.5730   -0.2362 N   0  0  0  0  0  0
    5.5228   -0.5116    0.0050 C   0  0  0  0  0  0
    4.9911    0.6673    0.2826 N   0  0  0  0  0  0
    3.6716    0.8354    0.3298 C   0  0  0  0  0  0
    3.1360    2.2074    0.6380 C   0  0  0  0  0  0
    1.6741    2.1251    1.0745 C   0  0  0  0  0  0
    0.9015    1.3043    0.0353 C   0  0  0  0  0  0
    1.3538   -0.1523    0.1372 C   0  0  0  0  0  0
   -0.5991    1.3975    0.3187 C   0  0  0  0  0  0
   -1.3356    0.6099   -0.6789 N   0  0  0  0  0  0
   -2.6880    0.7344   -0.3683 C   0  0  0  0  0  0
   -3.2885    1.9755   -0.3598 C   0  0  0  0  0  0
   -4.6385    2.1105   -0.0508 C   0  0  0  0  0  0
   -5.4027    1.0247    0.2514 C   0  0  0  0  0  0
   -4.8294   -0.2582    0.2539 C   0  0  0  0  0  0
   -3.4573   -0.4095   -0.0651 C   0  0  0  0  0  0
   -2.8863   -1.6916   -0.0631 C   0  0  0  0  0  0
   -3.6560   -2.7718    0.2447 C   0  0  0  0  0  0
   -5.0057   -2.6243    0.5583 C   0  0  0  0  0  0
   -5.5940   -1.3970    0.5615 C   0  0  0  0  0  0
   -1.1367    1.2758   -1.9731 C   0  0  0  0  0  0
    6.9003   -0.6394   -0.0340 N   0  0  0  0  0  0
    2.6552   -2.5885   -0.4539 N   0  0  0  0  0  0
    3.7265    2.6533    1.4384 H   0  0  0  0  0  0
    3.2116    2.8320   -0.2521 H   0  0  0  0  0  0
    1.6093    1.6382    2.0476 H   0  0  0  0  0  0
    1.2529    3.1287    1.1352 H   0  0  0  0  0  0
    1.1132    1.6855   -0.9637 H   0  0  0  0  0  0
    0.9340   -0.7189   -0.6940 H   0  0  0  0  0  0
    0.9955   -0.5760    1.0754 H   0  0  0  0  0  0
   -0.8057    1.0065    1.3149 H   0  0  0  0  0  0
   -0.9151    2.4393    0.2645 H   0  0  0  0  0  0
   -2.7044    2.8529   -0.5952 H   0  0  0  0  0  0
   -5.0876    3.0927   -0.0503 H   0  0  0  0  0  0
   -6.4487    1.1495    0.4894 H   0  0  0  0  0  0
   -1.8417   -1.8208   -0.3048 H   0  0  0  0  0  0
   -3.2141   -3.7572    0.2456 H   0  0  0  0  0  0
   -5.5945   -3.4972    0.7986 H   0  0  0  0  0  0
   -6.6411   -1.2976    0.8069 H   0  0  0  0  0  0
   -1.6672    0.7255   -2.7502 H   0  0  0  0  0  0
   -1.5226    2.2938   -1.9210 H   0  0  0  0  0  0
   -0.0728    1.3021   -2.2085 H   0  0  0  0  0  0
    7.3022   -1.4987   -0.2361 H   0  0  0  0  0  0
    7.4639    0.1305    0.1409 H   0  0  0  0  0  0
    3.0695   -3.4418   -0.6565 H   0  0  0  0  0  0
    1.6885   -2.5128   -0.4275 H   0  0  0  0  0  0
  1  2  1  0  0  0
  1  6  2  0  0  0
  1 10  1  0  0  0
  2  3  2  0  0  0
  2 25  1  0  0  0
  3  4  1  0  0  0
  4  5  2  0  0  0
  4 24  1  0  0  0
  5  6  1  0  0  0
  6  7  1  0  0  0
  7  8  1  0  0  0
  7 26  1  0  0  0
  7 27  1  0  0  0
  8  9  1  0  0  0
  8 28  1  0  0  0
  8 29  1  0  0  0
  9 10  1  0  0  0
  9 11  1  0  0  0
  9 30  1  0  0  0
 10 31  1  0  0  0
 10 32  1  0  0  0
 11 12  1  0  0  0
 11 33  1  0  0  0
 11 34  1  0  0  0
 12 13  1  0  0  0
 12 23  1  0  0  0
 13 14  1  0  0  0
 13 18  2  0  0  0
 14 15  2  0  0  0
 14 35  1  0  0  0
 15 16  1  0  0  0
 15 36  1  0  0  0
 16 17  2  0  0  0
 16 37  1  0  0  0
 17 18  1  0  0  0
 17 22  1  0  0  0
 18 19  1  0  0  0
 19 20  2  0  0  0
 19 38  1  0  0  0
 20 21  1  0  0  0
 20 39  1  0  0  0
 21 22  2  0  0  0
 21 40  1  0  0  0
 22 41  1  0  0  0
 23 42  1  0  0  0
 23 43  1  0  0  0
 23 44  1  0  0  0
 24 45  1  0  0  0
 24 46  1  0  0  0
 25 47  1  0  0  0
 25 48  1  0  0  0
M  END
>  <ACTIVITY>
7.3279

>  <set_rl>
1

>  <Min_dist>
999.9

>  <Avg_dist>
999.9

>  <PC_uM>
0.1

>  <TG_uM>
0.023

>  <RL_uM>
0.047

$$$$
20-5D
  Cerius2 12110214553D 1   1.00000                          
 
 41 43  0  0  0  0  0  0  0  0999 V2000
    1.8262   -0.2055    0.2576 C   0  0  0  0  0  0
    2.5012   -1.3877   -0.0740 C   0  0  0  0  0  0
    3.7549   -1.3196   -0.5051 N   0  0  0  0  0  0
    4.3617   -0.1477   -0.6203 C   0  0  0  0  0  0
    3.7467    0.9830   -0.3157 N   0  0  0  0  0  0
    2.4888    0.9890    0.1192 C   0  0  0  0  0  0
    1.8471    2.3132    0.4339 C   0  0  0  0  0  0
    0.6091    2.1135    1.3069 C   0  0  0  0  0  0
   -0.2853    1.0568    0.6482 C   0  0  0  0  0  0
    0.4107   -0.2999    0.7557 C   0  0  0  0  0  0
   -1.6331    1.0015    1.3701 C   0  0  0  0  0  0
   -2.5091   -0.0381    0.7198 C   0  0  0  0  0  0
   -3.3473    0.3168   -0.3275 C   0  0  0  0  0  0
   -4.1523   -0.6425   -0.9240 C   0  0  0  0  0  0
   -4.1178   -1.9484   -0.4742 C   0  0  0  0  0  0
   -3.2822   -2.2993    0.5697 C   0  0  0  0  0  0
   -2.4740   -1.3461    1.1620 C   0  0  0  0  0  0
   -3.3797    1.6021   -0.7678 O   0  0  0  0  0  0
   -4.3255    1.6482   -1.8381 C   0  0  0  0  0  0
    5.6701   -0.1055   -1.0696 N   0  0  0  0  0  0
    1.8676   -2.6136    0.0471 N   0  0  0  0  0  0
    2.5624    2.9437    0.9620 H   0  0  0  0  0  0
    1.5573    2.8031   -0.4956 H   0  0  0  0  0  0
    0.9105    1.7724    2.2973 H   0  0  0  0  0  0
    0.0643    3.0539    1.3904 H   0  0  0  0  0  0
   -0.4384    1.3089   -0.4011 H   0  0  0  0  0  0
   -0.1327   -1.0320    0.1583 H   0  0  0  0  0  0
    0.4150   -0.6212    1.7973 H   0  0  0  0  0  0
   -1.4745    0.7401    2.4164 H   0  0  0  0  0  0
   -2.1184    1.9756    1.3086 H   0  0  0  0  0  0
   -4.8059   -0.3687   -1.7390 H   0  0  0  0  0  0
   -4.7444   -2.6956   -0.9383 H   0  0  0  0  0  0
   -3.2571   -3.3205    0.9203 H   0  0  0  0  0  0
   -1.8221   -1.6228    1.9773 H   0  0  0  0  0  0
   -4.3863    2.6652   -2.2256 H   0  0  0  0  0  0
   -4.0070    0.9747   -2.6336 H   0  0  0  0  0  0
   -5.3046    1.3401   -1.4713 H   0  0  0  0  0  0
    6.1320   -0.9279   -1.2958 H   0  0  0  0  0  0
    6.1252    0.7465   -1.1582 H   0  0  0  0  0  0
    2.3401   -3.4286   -0.1840 H   0  0  0  0  0  0
    0.9515   -2.6570    0.3630 H   0  0  0  0  0  0
  1  2  1  0  0  0
  1  6  2  0  0  0
  1 10  1  0  0  0
  2  3  2  0  0  0
  2 21  1  0  0  0
  3  4  1  0  0  0
  4  5  2  0  0  0
  4 20  1  0  0  0
  5  6  1  0  0  0
  6  7  1  0  0  0
  7  8  1  0  0  0
  7 22  1  0  0  0
  7 23  1  0  0  0
  8  9  1  0  0  0
  8 24  1  0  0  0
  8 25  1  0  0  0
  9 10  1  0  0  0
  9 11  1  0  0  0
  9 26  1  0  0  0
 10 27  1  0  0  0
 10 28  1  0  0  0
 11 12  1  0  0  0
 11 29  1  0  0  0
 11 30  1  0  0  0
 12 13  1  0  0  0
 12 17  2  0  0  0
 13 14  2  0  0  0
 13 18  1  0  0  0
 14 15  1  0  0  0
 14 31  1  0  0  0
 15 16  2  0  0  0
 15 32  1  0  0  0
 16 17  1  0  0  0
 16 33  1  0  0  0
 17 34  1  0  0  0
 18 19  1  0  0  0
 19 35  1  0  0  0
 19 36  1  0  0  0
 19 37  1  0  0  0
 20 38  1  0  0  0
 20 39  1  0  0  0
 21 40  1  0  0  0
 21 41  1  0  0  0
M  END
>  <ACTIVITY>
6.92082

>  <set_rl>
1

>  <Min_dist>
999.9

>  <Avg_dist>
999.9

>  <PC_uM>
0.45

>  <TG_uM>
0.014

>  <RL_uM>
0.12

$$$$
20-5M
  Cerius2 12110214553D 1   1.00000                          
 
 37 39  0  0  0  0  0  0  0  0999 V2000
    2.4560   -0.1266    0.1822 C   0  0  0  0  0  0
    2.6821   -1.5058    0.0838 C   0  0  0  0  0  0
    3.8846   -1.9421   -0.2712 N   0  0  0  0  0  0
    4.8602   -1.0840   -0.5294 C   0  0  0  0  0  0
    4.6726    0.2227   -0.4457 N   0  0  0  0  0  0
    3.4918    0.7296   -0.0988 C   0  0  0  0  0  0
    3.3461    2.2260   -0.0371 C   0  0  0  0  0  0
    2.1102    2.6100    0.7751 C   0  0  0  0  0  0
    0.9094    1.8253    0.2339 C   0  0  0  0  0  0
    1.0922    0.3517    0.5970 C   0  0  0  0  0  0
   -0.3787    2.3547    0.8676 C   0  0  0  0  0  0
   -1.5563    1.5809    0.3332 C   0  0  0  0  0  0
   -1.9819    0.4359    0.9807 C   0  0  0  0  0  0
   -3.0628   -0.2743    0.4908 C   0  0  0  0  0  0
   -3.7183    0.1622   -0.6483 C   0  0  0  0  0  0
   -3.2912    1.3078   -1.2948 C   0  0  0  0  0  0
   -2.2138    2.0194   -0.8008 C   0  0  0  0  0  0
   -5.0750   -0.7284   -1.2648 Cl  0  0  0  0  0  0
   -3.5973   -1.7124    1.3032 Cl  0  0  0  0  0  0
    6.1050   -1.5659   -0.8948 N   0  0  0  0  0  0
    1.6627   -2.4039    0.3545 N   0  0  0  0  0  0
    4.2322    2.6553    0.4305 H   0  0  0  0  0  0
    3.2494    2.6206   -1.0486 H   0  0  0  0  0  0
    2.2688    2.3594    1.8239 H   0  0  0  0  0  0
    1.9240    3.6793    0.6751 H   0  0  0  0  0  0
    0.8594    1.9331   -0.8496 H   0  0  0  0  0  0
    0.3327   -0.2417    0.0880 H   0  0  0  0  0  0
    0.9787    0.2292    1.6742 H   0  0  0  0  0  0
   -0.3268    2.2358    1.9498 H   0  0  0  0  0  0
   -0.4966    3.4104    0.6233 H   0  0  0  0  0  0
   -1.4700    0.0959    1.8688 H   0  0  0  0  0  0
   -3.8019    1.6488   -2.1832 H   0  0  0  0  0  0
   -1.8805    2.9140   -1.3059 H   0  0  0  0  0  0
    6.2551   -2.5220   -0.9593 H   0  0  0  0  0  0
    6.8274   -0.9475   -1.0863 H   0  0  0  0  0  0
    1.8254   -3.3577    0.2847 H   0  0  0  0  0  0
    0.7863   -2.0791    0.6138 H   0  0  0  0  0  0
  1  2  1  0  0  0
  1  6  2  0  0  0
  1 10  1  0  0  0
  2  3  2  0  0  0
  2 21  1  0  0  0
  3  4  1  0  0  0
  4  5  2  0  0  0
  4 20  1  0  0  0
  5  6  1  0  0  0
  6  7  1  0  0  0
  7  8  1  0  0  0
  7 22  1  0  0  0
  7 23  1  0  0  0
  8  9  1  0  0  0
  8 24  1  0  0  0
  8 25  1  0  0  0
  9 10  1  0  0  0
  9 11  1  0  0  0
  9 26  1  0  0  0
 10 27  1  0  0  0
 10 28  1  0  0  0
 11 12  1  0  0  0
 11 29  1  0  0  0
 11 30  1  0  0  0
 12 13  1  0  0  0
 12 17  2  0  0  0
 13 14  2  0  0  0
 13 31  1  0  0  0
 14 15  1  0  0  0
 14 19  1  0  0  0
 15 16  2  0  0  0
 15 18  1  0  0  0
 16 17  1  0  0  0
 16 32  1  0  0  0
 17 33  1  0  0  0
 20 34  1  0  0  0
 20 35  1  0  0  0
 21 36  1  0  0  0
 21 37  1  0  0  0
M  END
>  <ACTIVITY>
5.13668

>  <set_rl>
1

>  <Min_dist>
999.9

>  <Avg_dist>
999.9

>  <PC_uM>
15

>  <TG_uM>
2.6

>  <RL_uM>
7.3

$$$$
19-7
  Cerius2 12110214553D 1   1.00000                          
 
 53 55  0  0  0  0  0  0  0  0999 V2000
    3.4759    0.1900    0.2787 C   0  0  0  0  0  0
    4.1874   -0.8163    0.9452 C   0  0  0  0  0  0
    5.5128   -0.8312    0.8713 N   0  0  0  0  0  0
    6.1561    0.0947    0.1758 C   0  0  0  0  0  0
    5.5084    1.0543   -0.4640 N   0  0  0  0  0  0
    4.1797    1.1278   -0.4355 C   0  0  0  0  0  0
    3.5084    2.2381   -1.1977 C   0  0  0  0  0  0
    2.0723    2.4281   -0.7116 C   0  0  0  0  0  0
    1.3703    1.0653   -0.7236 C   0  0  0  0  0  0
    1.9759    0.2003    0.3817 C   0  0  0  0  0  0
   -0.1259    1.2552   -0.4659 C   0  0  0  0  0  0
   -0.7929   -0.0490   -0.4781 N   0  0  0  0  0  0
   -2.1735   -0.1309   -0.2638 C   0  0  0  0  0  0
   -2.9114    1.0219   -0.0397 C   0  0  0  0  0  0
   -4.2790    0.9377    0.1718 C   0  0  0  0  0  0
   -4.9089   -0.2980    0.1598 C   0  0  0  0  0  0
   -4.1752   -1.4487   -0.0629 C   0  0  0  0  0  0
   -2.8100   -1.3699   -0.2809 C   0  0  0  0  0  0
   -2.0889   -2.5029   -0.5004 O   0  0  0  0  0  0
   -3.0088   -3.5951   -0.4459 C   0  0  0  0  0  0
   -2.2584   -4.9065   -0.6861 C   0  0  0  0  0  0
   -5.0033    2.0673    0.3915 O   0  0  0  0  0  0
   -6.3609    1.6590    0.5717 C   0  0  0  0  0  0
   -7.2343    2.8894    0.8246 C   0  0  0  0  0  0
    7.5383    0.0574    0.1176 N   0  0  0  0  0  0
    3.5154   -1.7844    1.6735 N   0  0  0  0  0  0
    4.0643    3.1639   -1.0499 H   0  0  0  0  0  0
    3.4997    1.9922   -2.2596 H   0  0  0  0  0  0
    2.0788    2.8278    0.3025 H   0  0  0  0  0  0
    1.5488    3.1156   -1.3759 H   0  0  0  0  0  0
    1.5204    0.5843   -1.6901 H   0  0  0  0  0  0
    1.6019   -0.8191    0.2872 H   0  0  0  0  0  0
    1.6833    0.5996    1.3528 H   0  0  0  0  0  0
   -0.2700    1.7279    0.5057 H   0  0  0  0  0  0
   -0.5512    1.8882   -1.2446 H   0  0  0  0  0  0
   -0.2778   -0.8559   -0.6347 H   0  0  0  0  0  0
   -2.4211    1.9842   -0.0296 H   0  0  0  0  0  0
   -5.9742   -0.3616    0.3251 H   0  0  0  0  0  0
   -4.6682   -2.4096   -0.0714 H   0  0  0  0  0  0
   -3.4829   -3.6222    0.5353 H   0  0  0  0  0  0
   -3.7712   -3.4667   -1.2143 H   0  0  0  0  0  0
   -2.9601   -5.7396   -0.6444 H   0  0  0  0  0  0
   -1.7843   -4.8795   -1.6672 H   0  0  0  0  0  0
   -1.4960   -5.0349    0.0824 H   0  0  0  0  0  0
   -6.7078    1.1452   -0.3249 H   0  0  0  0  0  0
   -6.4272    0.9846    1.4255 H   0  0  0  0  0  0
   -8.2697    2.5780    0.9620 H   0  0  0  0  0  0
   -6.8874    3.4032    1.7212 H   0  0  0  0  0  0
   -7.1679    3.5638   -0.0292 H   0  0  0  0  0  0
    8.0247   -0.6411    0.5828 H   0  0  0  0  0  0
    8.0208    0.7298   -0.3884 H   0  0  0  0  0  0
    4.0135   -2.4786    2.1328 H   0  0  0  0  0  0
    2.5469   -1.7681    1.7240 H   0  0  0  0  0  0
  1  2  1  0  0  0
  1  6  2  0  0  0
  1 10  1  0  0  0
  2  3  2  0  0  0
  2 26  1  0  0  0
  3  4  1  0  0  0
  4  5  2  0  0  0
  4 25  1  0  0  0
  5  6  1  0  0  0
  6  7  1  0  0  0
  7  8  1  0  0  0
  7 27  1  0  0  0
  7 28  1  0  0  0
  8  9  1  0  0  0
  8 29  1  0  0  0
  8 30  1  0  0  0
  9 10  1  0  0  0
  9 11  1  0  0  0
  9 31  1  0  0  0
 10 32  1  0  0  0
 10 33  1  0  0  0
 11 12  1  0  0  0
 11 34  1  0  0  0
 11 35  1  0  0  0
 12 13  1  0  0  0
 12 36  1  0  0  0
 13 14  1  0  0  0
 13 18  2  0  0  0
 14 15  2  0  0  0
 14 37  1  0  0  0
 15 16  1  0  0  0
 15 22  1  0  0  0
 16 17  2  0  0  0
 16 38  1  0  0  0
 17 18  1  0  0  0
 17 39  1  0  0  0
 18 19  1  0  0  0
 19 20  1  0  0  0
 20 21  1  0  0  0
 20 40  1  0  0  0
 20 41  1  0  0  0
 21 42  1  0  0  0
 21 43  1  0  0  0
 21 44  1  0  0  0
 22 23  1  0  0  0
 23 24  1  0  0  0
 23 45  1  0  0  0
 23 46  1  0  0  0
 24 47  1  0  0  0
 24 48  1  0  0  0
 24 49  1  0  0  0
 25 50  1  0  0  0
 25 51  1  0  0  0
 26 52  1  0  0  0
 26 53  1  0  0  0
M  END
>  <ACTIVITY>
5.83268

>  <set_rl>
1

>  <Min_dist>
999.9

>  <Avg_dist>
999.9

>  <PC_uM>
1.57

>  <TG_uM>
0.14

>  <RL_uM>
1.47

$$$$
20-9A
  Cerius2 12110214553D 1   1.00000                          
 
 30 31  0  0  0  0  0  0  0  0999 V2000
    0.1352   -0.3184    0.1047 C   0  0  0  0  0  0
    1.0850   -1.3483    0.1113 C   0  0  0  0  0  0
    2.3726   -1.0437    0.0035 N   0  0  0  0  0  0
    2.7559    0.2194   -0.1087 C   0  0  0  0  0  0
    1.8796    1.2101   -0.1194 N   0  0  0  0  0  0
    0.5730    0.9770   -0.0186 C   0  0  0  0  0  0
   -0.3676    2.1511   -0.0517 C   0  0  0  0  0  0
   -1.7360    1.7557    0.5011 C   0  0  0  0  0  0
   -2.2013    0.4831   -0.2163 C   0  0  0  0  0  0
   -1.3184   -0.6785    0.2396 C   0  0  0  0  0  0
   -3.6594    0.1930    0.1451 C   0  0  0  0  0  0
   -4.1197   -1.0774   -0.5727 C   0  0  0  0  0  0
    4.1048    0.5091   -0.2168 N   0  0  0  0  0  0
    0.6851   -2.6694    0.2294 N   0  0  0  0  0  0
    0.0446    2.9600    0.5515 H   0  0  0  0  0  0
   -0.4799    2.4939   -1.0803 H   0  0  0  0  0  0
   -1.6574    1.5648    1.5714 H   0  0  0  0  0  0
   -2.4499    2.5594    0.3210 H   0  0  0  0  0  0
   -2.1071    0.6150   -1.2942 H   0  0  0  0  0  0
   -1.5304   -1.5544   -0.3736 H   0  0  0  0  0  0
   -1.5379   -0.9104    1.2818 H   0  0  0  0  0  0
   -3.7457    0.0530    1.2227 H   0  0  0  0  0  0
   -4.2840    1.0313   -0.1635 H   0  0  0  0  0  0
   -5.1585   -1.2841   -0.3152 H   0  0  0  0  0  0
   -4.0334   -0.9374   -1.6502 H   0  0  0  0  0  0
   -3.4951   -1.9157   -0.2640 H   0  0  0  0  0  0
    4.7572   -0.2087   -0.2098 H   0  0  0  0  0  0
    4.3980    1.4301   -0.2994 H   0  0  0  0  0  0
    1.3474   -3.3781    0.2333 H   0  0  0  0  0  0
   -0.2572   -2.8857    0.3082 H   0  0  0  0  0  0
  1  2  1  0  0  0
  1  6  2  0  0  0
  1 10  1  0  0  0
  2  3  2  0  0  0
  2 14  1  0  0  0
  3  4  1  0  0  0
  4  5  2  0  0  0
  4 13  1  0  0  0
  5  6  1  0  0  0
  6  7  1  0  0  0
  7  8  1  0  0  0
  7 15  1  0  0  0
  7 16  1  0  0  0
  8  9  1  0  0  0
  8 17  1  0  0  0
  8 18  1  0  0  0
  9 10  1  0  0  0
  9 11  1  0  0  0
  9 19  1  0  0  0
 10 20  1  0  0  0
 10 21  1  0  0  0
 11 12  1  0  0  0
 11 22  1  0  0  0
 11 23  1  0  0  0
 12 24  1  0  0  0
 12 25  1  0  0  0
 12 26  1  0  0  0
 13 27  1  0  0  0
 13 28  1  0  0  0
 14 29  1  0  0  0
 14 30  1  0  0  0
M  END
>  <ACTIVITY>
5.52288

>  <set_rl>
1

>  <Min_dist>
999.9

>  <Avg_dist>
999.9

>  <PC_uM>
6.9

>  <TG_uM>
1.1

>  <RL_uM>
3

$$$$
20-9B
  Cerius2 12110214553D 1   1.00000                          
 
 36 37  0  0  0  0  0  0  0  0999 V2000
   -0.6945   -0.3645   -0.0265 C   0  0  0  0  0  0
   -1.7115   -1.3282   -0.0357 C   0  0  0  0  0  0
   -2.9786   -0.9342    0.0035 N   0  0  0  0  0  0
   -3.2789    0.3552    0.0505 C   0  0  0  0  0  0
   -2.3382    1.2849    0.0621 N   0  0  0  0  0  0
   -1.0475    0.9612    0.0280 C   0  0  0  0  0  0
   -0.0310    2.0703    0.0578 C   0  0  0  0  0  0
    1.3289    1.5622   -0.4187 C   0  0  0  0  0  0
    1.6760    0.2919    0.3665 C   0  0  0  0  0  0
    0.7354   -0.8259   -0.0833 C   0  0  0  0  0  0
    3.1245   -0.1094    0.0810 C   0  0  0  0  0  0
    3.4667   -1.3772    0.8663 C   0  0  0  0  0  0
    3.2945   -0.3753   -1.4161 C   0  0  0  0  0  0
    4.0609    1.0229    0.5074 C   0  0  0  0  0  0
   -4.6082    0.7385    0.0879 N   0  0  0  0  0  0
   -1.3983   -2.6767   -0.0857 N   0  0  0  0  0  0
   -0.3616    2.8795   -0.5933 H   0  0  0  0  0  0
    0.0618    2.4467    1.0765 H   0  0  0  0  0  0
    1.2818    1.3333   -1.4833 H   0  0  0  0  0  0
    2.0880    2.3232   -0.2380 H   0  0  0  0  0  0
    1.5465    0.4738    1.4334 H   0  0  0  0  0  0
    0.8613   -1.6882    0.5715 H   0  0  0  0  0  0
    0.9814   -1.1145   -1.1053 H   0  0  0  0  0  0
    4.4987   -1.6631    0.6629 H   0  0  0  0  0  0
    3.3456   -1.1877    1.9328 H   0  0  0  0  0  0
    2.7996   -2.1839    0.5625 H   0  0  0  0  0  0
    2.6274   -1.1820   -1.7198 H   0  0  0  0  0  0
    3.0508    0.5279   -1.9755 H   0  0  0  0  0  0
    4.3265   -0.6612   -1.6194 H   0  0  0  0  0  0
    3.9398    1.2124    1.5740 H   0  0  0  0  0  0
    5.0929    0.7370    0.3041 H   0  0  0  0  0  0
    3.8172    1.9261   -0.0520 H   0  0  0  0  0  0
   -5.3073    0.0660    0.0795 H   0  0  0  0  0  0
   -4.8409    1.6795    0.1224 H   0  0  0  0  0  0
   -2.1068   -3.3392   -0.0918 H   0  0  0  0  0  0
   -0.4706   -2.9584   -0.1145 H   0  0  0  0  0  0
  1  2  1  0  0  0
  1  6  2  0  0  0
  1 10  1  0  0  0
  2  3  2  0  0  0
  2 16  1  0  0  0
  3  4  1  0  0  0
  4  5  2  0  0  0
  4 15  1  0  0  0
  5  6  1  0  0  0
  6  7  1  0  0  0
  7  8  1  0  0  0
  7 17  1  0  0  0
  7 18  1  0  0  0
  8  9  1  0  0  0
  8 19  1  0  0  0
  8 20  1  0  0  0
  9 10  1  0  0  0
  9 11  1  0  0  0
  9 21  1  0  0  0
 10 22  1  0  0  0
 10 23  1  0  0  0
 11 12  1  0  0  0
 11 13  1  0  0  0
 11 14  1  0  0  0
 12 24  1  0  0  0
 12 25  1  0  0  0
 12 26  1  0  0  0
 13 27  1  0  0  0
 13 28  1  0  0  0
 13 29  1  0  0  0
 14 30  1  0  0  0
 14 31  1  0  0  0
 14 32  1  0  0  0
 15 33  1  0  0  0
 15 34  1  0  0  0
 16 35  1  0  0  0
 16 36  1  0  0  0
M  END
>  <ACTIVITY>
7.18709

>  <set_rl>
1

>  <Min_dist>
999.9

>  <Avg_dist>
999.9

>  <PC_uM>
0.18

>  <TG_uM>
0.018

>  <RL_uM>
0.065

$$$$
14-8
  Cerius2 12110214553D 1   1.00000                          
 
 37 39  0  0  0  0  0  0  0  0999 V2000
   -3.5070   -1.8681    0.7784 N   0  0  0  0  0  0
   -4.4159   -1.4660   -0.1050 C   0  0  0  0  0  0
   -4.2755   -0.3875   -0.8488 N   0  0  0  0  0  0
   -3.1819    0.3792   -0.7513 C   0  0  0  0  0  0
   -2.1698    0.0147    0.1680 C   0  0  0  0  0  0
   -2.3820   -1.1937    0.9670 C   0  0  0  0  0  0
   -1.4434   -1.6153    1.8847 N   0  0  0  0  0  0
   -1.0722    0.7556    0.2868 N   0  0  0  0  0  0
   -0.9005    1.8352   -0.4396 C   0  0  0  0  0  0
   -1.8551    2.2538   -1.3639 C   0  0  0  0  0  0
   -3.0051    1.5342   -1.5320 C   0  0  0  0  0  0
    0.3607    2.6424   -0.2692 C   0  0  0  0  0  0
    1.2077    2.0159    0.7487 N   0  0  0  0  0  0
    2.1515    1.0546    0.3773 C   0  0  0  0  0  0
    2.9552    0.4598    1.3413 C   0  0  0  0  0  0
    3.8872   -0.4899    0.9714 C   0  0  0  0  0  0
    4.0207   -0.8490   -0.3584 C   0  0  0  0  0  0
    3.2216   -0.2577   -1.3210 C   0  0  0  0  0  0
    2.2837    0.6881   -0.9559 C   0  0  0  0  0  0
    5.1932   -2.0432   -0.8198 Cl  0  0  0  0  0  0
    1.0653    2.3971    2.1561 C   0  0  0  0  0  0
   -5.5674   -2.2184   -0.2507 N   0  0  0  0  0  0
   -1.6009   -2.4185    2.4053 H   0  0  0  0  0  0
   -0.6257   -1.1088    2.0097 H   0  0  0  0  0  0
   -1.6866    3.1467   -1.9476 H   0  0  0  0  0  0
   -3.7557    1.8441   -2.2440 H   0  0  0  0  0  0
    0.8986    2.6803   -1.2165 H   0  0  0  0  0  0
    0.1046    3.6546    0.0439 H   0  0  0  0  0  0
    2.8517    0.7399    2.3792 H   0  0  0  0  0  0
    4.5127   -0.9525    1.7205 H   0  0  0  0  0  0
    3.3283   -0.5393   -2.3581 H   0  0  0  0  0  0
    1.6600    1.1490   -1.7076 H   0  0  0  0  0  0
    0.2862    3.1535    2.2505 H   0  0  0  0  0  0
    0.7938    1.5205    2.7443 H   0  0  0  0  0  0
    2.0099    2.8009    2.5205 H   0  0  0  0  0  0
   -5.6957   -3.0172    0.2844 H   0  0  0  0  0  0
   -6.2465   -1.9473   -0.8881 H   0  0  0  0  0  0
  1  2  1  0  0  0
  1  6  2  0  0  0
  2  3  2  0  0  0
  2 22  1  0  0  0
  3  4  1  0  0  0
  4  5  2  0  0  0
  4 11  1  0  0  0
  5  6  1  0  0  0
  5  8  1  0  0  0
  6  7  1  0  0  0
  7 23  1  0  0  0
  7 24  1  0  0  0
  8  9  2  0  0  0
  9 10  1  0  0  0
  9 12  1  0  0  0
 10 11  2  0  0  0
 10 25  1  0  0  0
 11 26  1  0  0  0
 12 13  1  0  0  0
 12 27  1  0  0  0
 12 28  1  0  0  0
 13 14  1  0  0  0
 13 21  1  0  0  0
 14 15  1  0  0  0
 14 19  2  0  0  0
 15 16  2  0  0  0
 15 29  1  0  0  0
 16 17  1  0  0  0
 16 30  1  0  0  0
 17 18  2  0  0  0
 17 20  1  0  0  0
 18 19  1  0  0  0
 18 31  1  0  0  0
 19 32  1  0  0  0
 21 33  1  0  0  0
 21 34  1  0  0  0
 21 35  1  0  0  0
 22 36  1  0  0  0
 22 37  1  0  0  0
M  END
>  <ACTIVITY>
7.65758

>  <set_rl>
1

>  <Min_dist>
999.9

>  <Avg_dist>
999.9

>  <PC_uM>
0.062

>  <TG_uM>
0.015

>  <RL_uM>
0.022

$$$$
14-9
  Cerius2 12110214553D 1   1.00000                          
 
 37 39  0  0  0  0  0  0  0  0999 V2000
   -3.6204    0.8327   -1.4978 N   0  0  0  0  0  0
   -4.3842    1.0048   -0.4231 C   0  0  0  0  0  0
   -4.0381    0.6039    0.7833 N   0  0  0  0  0  0
   -2.8689   -0.0137    0.9951 C   0  0  0  0  0  0
   -2.0017   -0.2327   -0.1013 C   0  0  0  0  0  0
   -2.4404    0.2349   -1.4174 C   0  0  0  0  0  0
   -1.6529    0.0588   -2.5354 N   0  0  0  0  0  0
   -0.8338   -0.8424    0.0779 N   0  0  0  0  0  0
   -0.4582   -1.2534    1.2665 C   0  0  0  0  0  0
   -1.2614   -1.0717    2.3902 C   0  0  0  0  0  0
   -2.4737   -0.4515    2.2706 C   0  0  0  0  0  0
    0.8748   -1.9395    1.4193 C   0  0  0  0  0  0
    1.5363   -2.0175    0.1145 N   0  0  0  0  0  0
    2.3788   -0.9852   -0.3042 C   0  0  0  0  0  0
    3.0069   -1.0577   -1.5414 C   0  0  0  0  0  0
    3.8394   -0.0357   -1.9530 C   0  0  0  0  0  0
    4.0490    1.0595   -1.1352 C   0  0  0  0  0  0
    3.4257    1.1353    0.0980 C   0  0  0  0  0  0
    2.5859    0.1185    0.5128 C   0  0  0  0  0  0
    3.6927    2.5116    1.1217 Cl  0  0  0  0  0  0
    1.3142   -3.1784   -0.7511 C   0  0  0  0  0  0
   -5.6043    1.6376   -0.5796 N   0  0  0  0  0  0
   -1.9598    0.3751   -3.3995 H   0  0  0  0  0  0
   -0.7920   -0.3814   -2.4578 H   0  0  0  0  0  0
   -0.9262   -1.4208    3.3557 H   0  0  0  0  0  0
   -3.1090   -0.3023    3.1311 H   0  0  0  0  0  0
    1.4987   -1.3716    2.1096 H   0  0  0  0  0  0
    0.7230   -2.9455    1.8105 H   0  0  0  0  0  0
    2.8445   -1.9130   -2.1806 H   0  0  0  0  0  0
    4.3277   -0.0921   -2.9146 H   0  0  0  0  0  0
    4.7009    1.8572   -1.4594 H   0  0  0  0  0  0
    2.0991    0.1779    1.4750 H   0  0  0  0  0  0
    0.6333   -3.8732   -0.2594 H   0  0  0  0  0  0
    0.8791   -2.8498   -1.6949 H   0  0  0  0  0  0
    2.2649   -3.6758   -0.9429 H   0  0  0  0  0  0
   -5.8832    1.9430   -1.4570 H   0  0  0  0  0  0
   -6.1809    1.7759    0.1880 H   0  0  0  0  0  0
  1  2  1  0  0  0
  1  6  2  0  0  0
  2  3  2  0  0  0
  2 22  1  0  0  0
  3  4  1  0  0  0
  4  5  2  0  0  0
  4 11  1  0  0  0
  5  6  1  0  0  0
  5  8  1  0  0  0
  6  7  1  0  0  0
  7 23  1  0  0  0
  7 24  1  0  0  0
  8  9  2  0  0  0
  9 10  1  0  0  0
  9 12  1  0  0  0
 10 11  2  0  0  0
 10 25  1  0  0  0
 11 26  1  0  0  0
 12 13  1  0  0  0
 12 27  1  0  0  0
 12 28  1  0  0  0
 13 14  1  0  0  0
 13 21  1  0  0  0
 14 15  1  0  0  0
 14 19  2  0  0  0
 15 16  2  0  0  0
 15 29  1  0  0  0
 16 17  1  0  0  0
 16 30  1  0  0  0
 17 18  2  0  0  0
 17 31  1  0  0  0
 18 19  1  0  0  0
 18 20  1  0  0  0
 19 32  1  0  0  0
 21 33  1  0  0  0
 21 34  1  0  0  0
 21 35  1  0  0  0
 22 36  1  0  0  0
 22 37  1  0  0  0
M  END
>  <ACTIVITY>
7.17393

>  <set_rl>
1

>  <Min_dist>
999.9

>  <Avg_dist>
999.9

>  <PC_uM>
2.1

>  <TG_uM>
0.02

>  <RL_uM>
0.067

$$$$
21-4
  Cerius2 12110214553D 1   1.00000                          
 
 34 36  0  0  0  0  0  0  0  0999 V2000
   -3.8749    1.4806    0.0007 N   0  0  0  0  0  0
   -4.6031    0.3681    0.0008 C   0  0  0  0  0  0
   -4.0789   -0.8408    0.0000 N   0  0  0  0  0  0
   -2.7512   -1.0160   -0.0009 C   0  0  0  0  0  0
   -1.9103    0.1220   -0.0010 C   0  0  0  0  0  0
   -2.5504    1.4387   -0.0001 C   0  0  0  0  0  0
   -1.8006    2.5957   -0.0006 N   0  0  0  0  0  0
   -0.5884   -0.0201   -0.0009 N   0  0  0  0  0  0
   -0.0338   -1.2097   -0.0007 C   0  0  0  0  0  0
   -0.7999   -2.3733   -0.0011 C   0  0  0  0  0  0
   -2.1646   -2.2929   -0.0012 C   0  0  0  0  0  0
    1.4692   -1.3197   -0.0007 C   0  0  0  0  0  0
    2.0570    0.0222   -0.0008 N   0  0  0  0  0  0
    3.4452    0.1765   -0.0008 C   0  0  0  0  0  0
    4.0042    1.4482   -0.0009 C   0  0  0  0  0  0
    5.3772    1.5972   -0.0004 C   0  0  0  0  0  0
    6.1953    0.4823    0.0003 C   0  0  0  0  0  0
    5.6421   -0.7851    0.0004 C   0  0  0  0  0  0
    4.2699   -0.9413    0.0052 C   0  0  0  0  0  0
   -5.9813    0.4857    0.0022 N   0  0  0  0  0  0
   -2.2418    3.4596    0.0000 H   0  0  0  0  0  0
   -0.8319    2.5459   -0.0016 H   0  0  0  0  0  0
   -0.3158   -3.3387   -0.0013 H   0  0  0  0  0  0
   -2.7739   -3.1846   -0.0014 H   0  0  0  0  0  0
    1.7940   -1.8586    0.8894 H   0  0  0  0  0  0
    1.7941   -1.8588   -0.8905 H   0  0  0  0  0  0
    1.4822    0.8035   -0.0010 H   0  0  0  0  0  0
    3.3659    2.3193   -0.0018 H   0  0  0  0  0  0
    5.8125    2.5856   -0.0009 H   0  0  0  0  0  0
    7.2687    0.6016    0.0003 H   0  0  0  0  0  0
    6.2838   -1.6538    0.0009 H   0  0  0  0  0  0
    3.8385   -1.9314    0.0057 H   0  0  0  0  0  0
   -6.3931    1.3640    0.0031 H   0  0  0  0  0  0
   -6.5360   -0.3100    0.0023 H   0  0  0  0  0  0
  1  2  1  0  0  0
  1  6  2  0  0  0
  2  3  2  0  0  0
  2 20  1  0  0  0
  3  4  1  0  0  0
  4  5  2  0  0  0
  4 11  1  0  0  0
  5  6  1  0  0  0
  5  8  1  0  0  0
  6  7  1  0  0  0
  7 21  1  0  0  0
  7 22  1  0  0  0
  8  9  2  0  0  0
  9 10  1  0  0  0
  9 12  1  0  0  0
 10 11  2  0  0  0
 10 23  1  0  0  0
 11 24  1  0  0  0
 12 13  1  0  0  0
 12 25  1  0  0  0
 12 26  1  0  0  0
 13 14  1  0  0  0
 13 27  1  0  0  0
 14 15  1  0  0  0
 14 19  2  0  0  0
 15 16  2  0  0  0
 15 28  1  0  0  0
 16 17  1  0  0  0
 16 29  1  0  0  0
 17 18  2  0  0  0
 17 30  1  0  0  0
 18 19  1  0  0  0
 18 31  1  0  0  0
 19 32  1  0  0  0
 20 33  1  0  0  0
 20 34  1  0  0  0
M  END
>  <ACTIVITY>
6.58503

>  <set_rl>
1

>  <Min_dist>
999.9

>  <Avg_dist>
999.9

>  <PC_uM>
1.7

>  <TG_uM>
0.085

>  <RL_uM>
0.26

$$$$
21-7
  Cerius2 12110214553D 1   1.00000                          
 
 41 43  0  0  0  0  0  0  0  0999 V2000
   -4.3820    1.3331   -0.4891 N   0  0  0  0  0  0
   -5.0891    0.3349    0.0320 C   0  0  0  0  0  0
   -4.5455   -0.7679    0.5058 N   0  0  0  0  0  0
   -3.2182   -0.9449    0.4866 C   0  0  0  0  0  0
   -2.3990    0.0748   -0.0531 C   0  0  0  0  0  0
   -3.0601    1.2769   -0.5643 C   0  0  0  0  0  0
   -2.3322    2.3149   -1.1061 N   0  0  0  0  0  0
   -1.0780   -0.0718   -0.0850 N   0  0  0  0  0  0
   -0.5043   -1.1571    0.3794 C   0  0  0  0  0  0
   -1.2485   -2.2012    0.9243 C   0  0  0  0  0  0
   -2.6110   -2.1100    0.9852 C   0  0  0  0  0  0
    0.9968   -1.2770    0.3214 C   0  0  0  0  0  0
    1.5616   -0.0658   -0.2886 N   0  0  0  0  0  0
    2.9504   -0.2382   -0.3136 C   0  0  0  0  0  0
    3.5068   -1.3023   -1.0083 C   0  0  0  0  0  0
    4.8785   -1.4703   -1.0314 C   0  0  0  0  0  0
    5.6988   -0.5800   -0.3635 C   0  0  0  0  0  0
    5.1512    0.4830    0.3310 C   0  0  0  0  0  0
    3.7780    0.6617    0.3543 C   0  0  0  0  0  0
    3.2380    1.7069    1.0370 O   0  0  0  0  0  0
    4.3270    2.4292    1.6154 C   0  0  0  0  0  0
    1.1130   -0.0492   -1.6874 C   0  0  0  0  0  0
   -6.4659    0.4607    0.0794 N   0  0  0  0  0  0
   -2.7872    3.1039   -1.4400 H   0  0  0  0  0  0
   -1.3652    2.2563   -1.1533 H   0  0  0  0  0  0
   -0.7489   -3.0826    1.2985 H   0  0  0  0  0  0
   -3.2035   -2.9098    1.4045 H   0  0  0  0  0  0
    1.3914   -1.3933    1.3308 H   0  0  0  0  0  0
    1.2690   -2.1462   -0.2774 H   0  0  0  0  0  0
    2.8683   -1.9994   -1.5305 H   0  0  0  0  0  0
    5.3107   -2.2993   -1.5722 H   0  0  0  0  0  0
    6.7701   -0.7154   -0.3840 H   0  0  0  0  0  0
    5.7948    1.1766    0.8517 H   0  0  0  0  0  0
    3.9413    3.2809    2.1757 H   0  0  0  0  0  0
    4.8819    1.7738    2.2868 H   0  0  0  0  0  0
    4.9885    2.7837    0.8249 H   0  0  0  0  0  0
    1.5087    0.8361   -2.1853 H   0  0  0  0  0  0
    1.4739   -0.9435   -2.1953 H   0  0  0  0  0  0
    0.0237   -0.0276   -1.7194 H   0  0  0  0  0  0
   -6.8917    1.2624   -0.2624 H   0  0  0  0  0  0
   -7.0054   -0.2528    0.4545 H   0  0  0  0  0  0
  1  2  1  0  0  0
  1  6  2  0  0  0
  2  3  2  0  0  0
  2 23  1  0  0  0
  3  4  1  0  0  0
  4  5  2  0  0  0
  4 11  1  0  0  0
  5  6  1  0  0  0
  5  8  1  0  0  0
  6  7  1  0  0  0
  7 24  1  0  0  0
  7 25  1  0  0  0
  8  9  2  0  0  0
  9 10  1  0  0  0
  9 12  1  0  0  0
 10 11  2  0  0  0
 10 26  1  0  0  0
 11 27  1  0  0  0
 12 13  1  0  0  0
 12 28  1  0  0  0
 12 29  1  0  0  0
 13 14  1  0  0  0
 13 22  1  0  0  0
 14 15  1  0  0  0
 14 19  2  0  0  0
 15 16  2  0  0  0
 15 30  1  0  0  0
 16 17  1  0  0  0
 16 31  1  0  0  0
 17 18  2  0  0  0
 17 32  1  0  0  0
 18 19  1  0  0  0
 18 33  1  0  0  0
 19 20  1  0  0  0
 20 21  1  0  0  0
 21 34  1  0  0  0
 21 35  1  0  0  0
 21 36  1  0  0  0
 22 37  1  0  0  0
 22 38  1  0  0  0
 22 39  1  0  0  0
 23 40  1  0  0  0
 23 41  1  0  0  0
M  END
>  <ACTIVITY>
6.92082

>  <set_rl>
1

>  <Min_dist>
999.9

>  <Avg_dist>
999.9

>  <PC_uM>
0.51

>  <TG_uM>
0.026

>  <RL_uM>
0.12

$$$$
21-8
  Cerius2 12110214553D 1   1.00000                          
 
 38 40  0  0  0  0  0  0  0  0999 V2000
   -4.3806    1.7256    0.0006 N   0  0  0  0  0  0
   -5.2337    0.7057    0.0005 C   0  0  0  0  0  0
   -4.8543   -0.5561   -0.0001 N   0  0  0  0  0  0
   -3.5562   -0.8852   -0.0007 C   0  0  0  0  0  0
   -2.5881    0.1468   -0.0007 C   0  0  0  0  0  0
   -3.0700    1.5292    0.0000 C   0  0  0  0  0  0
   -2.1902    2.5908   -0.0004 N   0  0  0  0  0  0
   -1.2918   -0.1488   -0.0004 N   0  0  0  0  0  0
   -0.8800   -1.3951    0.0000 C   0  0  0  0  0  0
   -1.7768   -2.4611   -0.0005 C   0  0  0  0  0  0
   -3.1227   -2.2219   -0.0009 C   0  0  0  0  0  0
    0.5998   -1.6799    0.0003 C   0  0  0  0  0  0
    1.3404   -0.4158    0.0002 N   0  0  0  0  0  0
    2.7370   -0.4247    0.0005 C   0  0  0  0  0  0
    3.4252   -1.6321    0.0009 C   0  0  0  0  0  0
    4.8063   -1.6407    0.0008 C   0  0  0  0  0  0
    5.5075   -0.4495    0.0006 C   0  0  0  0  0  0
    4.8257    0.7592    0.0002 C   0  0  0  0  0  0
    3.4396    0.7722   -0.0054 C   0  0  0  0  0  0
    5.5166    1.9294    0.0005 O   0  0  0  0  0  0
    6.9046    1.5896    0.0012 C   0  0  0  0  0  0
   -6.5887    0.9836    0.0016 N   0  0  0  0  0  0
   -2.5274    3.5002    0.0000 H   0  0  0  0  0  0
   -1.2339    2.4281   -0.0012 H   0  0  0  0  0  0
   -1.4088   -3.4765   -0.0005 H   0  0  0  0  0  0
   -3.8321   -3.0363   -0.0011 H   0  0  0  0  0  0
    0.8593   -2.2529    0.8905 H   0  0  0  0  0  0
    0.8597   -2.2533   -0.8895 H   0  0  0  0  0  0
    0.8608    0.4273    0.0000 H   0  0  0  0  0  0
    2.8797   -2.5643    0.0018 H   0  0  0  0  0  0
    5.3395   -2.5799    0.0011 H   0  0  0  0  0  0
    6.5874   -0.4595    0.0012 H   0  0  0  0  0  0
    2.9074    1.7120   -0.0057 H   0  0  0  0  0  0
    7.5019    2.5013    0.0015 H   0  0  0  0  0  0
    7.1349    1.0041    0.8914 H   0  0  0  0  0  0
    7.1358    1.0040   -0.8886 H   0  0  0  0  0  0
   -6.8951    1.9040    0.0024 H   0  0  0  0  0  0
   -7.2326    0.2581    0.0016 H   0  0  0  0  0  0
  1  2  1  0  0  0
  1  6  2  0  0  0
  2  3  2  0  0  0
  2 22  1  0  0  0
  3  4  1  0  0  0
  4  5  2  0  0  0
  4 11  1  0  0  0
  5  6  1  0  0  0
  5  8  1  0  0  0
  6  7  1  0  0  0
  7 23  1  0  0  0
  7 24  1  0  0  0
  8  9  2  0  0  0
  9 10  1  0  0  0
  9 12  1  0  0  0
 10 11  2  0  0  0
 10 25  1  0  0  0
 11 26  1  0  0  0
 12 13  1  0  0  0
 12 27  1  0  0  0
 12 28  1  0  0  0
 13 14  1  0  0  0
 13 29  1  0  0  0
 14 15  1  0  0  0
 14 19  2  0  0  0
 15 16  2  0  0  0
 15 30  1  0  0  0
 16 17  1  0  0  0
 16 31  1  0  0  0
 17 18  2  0  0  0
 17 32  1  0  0  0
 18 19  1  0  0  0
 18 20  1  0  0  0
 19 33  1  0  0  0
 20 21  1  0  0  0
 21 34  1  0  0  0
 21 35  1  0  0  0
 21 36  1  0  0  0
 22 37  1  0  0  0
 22 38  1  0  0  0
M  END
>  <ACTIVITY>
6.69897

>  <set_rl>
1

>  <Min_dist>
999.9

>  <Avg_dist>
999.9

>  <PC_uM>
1.7

>  <TG_uM>
0.1

>  <RL_uM>
0.2

$$$$
21-10
  Cerius2 12110214553D 1   1.00000                          
 
 38 40  0  0  0  0  0  0  0  0999 V2000
   -4.6769    1.4692    0.0005 N   0  0  0  0  0  0
   -5.4009    0.3540    0.0005 C   0  0  0  0  0  0
   -4.8723   -0.8529   -0.0002 N   0  0  0  0  0  0
   -3.5441   -1.0233   -0.0009 C   0  0  0  0  0  0
   -2.7073    0.1178   -0.0010 C   0  0  0  0  0  0
   -3.3522    1.4322   -0.0002 C   0  0  0  0  0  0
   -2.6067    2.5919   -0.0006 N   0  0  0  0  0  0
   -1.3848   -0.0194   -0.0007 N   0  0  0  0  0  0
   -0.8259   -1.2070   -0.0004 C   0  0  0  0  0  0
   -1.5878   -2.3734   -0.0008 C   0  0  0  0  0  0
   -2.9527   -2.2980   -0.0012 C   0  0  0  0  0  0
    0.6775   -1.3115   -0.0002 C   0  0  0  0  0  0
    1.2604    0.0326   -0.0003 N   0  0  0  0  0  0
    2.6506    0.1923   -0.0001 C   0  0  0  0  0  0
    3.2035    1.4661   -0.0002 C   0  0  0  0  0  0
    4.5757    1.6228    0.0000 C   0  0  0  0  0  0
    5.4014    0.5084   -0.0002 C   0  0  0  0  0  0
    4.8500   -0.7643   -0.0006 C   0  0  0  0  0  0
    3.4780   -0.9228    0.0060 C   0  0  0  0  0  0
    6.7525    0.6636   -0.0005 O   0  0  0  0  0  0
    7.3190   -0.6483   -0.0006 C   0  0  0  0  0  0
   -6.7796    0.4666    0.0017 N   0  0  0  0  0  0
   -3.0511    3.4542   -0.0001 H   0  0  0  0  0  0
   -1.6378    2.5457   -0.0014 H   0  0  0  0  0  0
   -1.1001   -3.3370   -0.0010 H   0  0  0  0  0  0
   -3.5587   -3.1920   -0.0014 H   0  0  0  0  0  0
    1.0042   -1.8491    0.8899 H   0  0  0  0  0  0
    1.0045   -1.8494   -0.8900 H   0  0  0  0  0  0
    0.6826    0.8118   -0.0005 H   0  0  0  0  0  0
    2.5607    2.3340   -0.0007 H   0  0  0  0  0  0
    5.0059    2.6134   -0.0001 H   0  0  0  0  0  0
    5.4936   -1.6315   -0.0011 H   0  0  0  0  0  0
    3.0488   -1.9139    0.0061 H   0  0  0  0  0  0
    8.4065   -0.5745   -0.0009 H   0  0  0  0  0  0
    6.9915   -1.1856    0.8894 H   0  0  0  0  0  0
    6.9911   -1.1855   -0.8906 H   0  0  0  0  0  0
   -7.1946    1.3433    0.0025 H   0  0  0  0  0  0
   -7.3314   -0.3312    0.0017 H   0  0  0  0  0  0
  1  2  1  0  0  0
  1  6  2  0  0  0
  2  3  2  0  0  0
  2 22  1  0  0  0
  3  4  1  0  0  0
  4  5  2  0  0  0
  4 11  1  0  0  0
  5  6  1  0  0  0
  5  8  1  0  0  0
  6  7  1  0  0  0
  7 23  1  0  0  0
  7 24  1  0  0  0
  8  9  2  0  0  0
  9 10  1  0  0  0
  9 12  1  0  0  0
 10 11  2  0  0  0
 10 25  1  0  0  0
 11 26  1  0  0  0
 12 13  1  0  0  0
 12 27  1  0  0  0
 12 28  1  0  0  0
 13 14  1  0  0  0
 13 29  1  0  0  0
 14 15  1  0  0  0
 14 19  2  0  0  0
 15 16  2  0  0  0
 15 30  1  0  0  0
 16 17  1  0  0  0
 16 31  1  0  0  0
 17 18  2  0  0  0
 17 20  1  0  0  0
 18 19  1  0  0  0
 18 32  1  0  0  0
 19 33  1  0  0  0
 20 21  1  0  0  0
 21 34  1  0  0  0
 21 35  1  0  0  0
 21 36  1  0  0  0
 22 37  1  0  0  0
 22 38  1  0  0  0
M  END
>  <ACTIVITY>
7.13668

>  <set_rl>
1

>  <Min_dist>
999.9

>  <Avg_dist>
999.9

>  <PC_uM>
0.85

>  <TG_uM>
0.054

>  <RL_uM>
0.073

$$$$
21-11
  Cerius2 12110214553D 1   1.00000                          
 
 41 43  0  0  0  0  0  0  0  0999 V2000
   -3.4940   -1.7156    0.8859 N   0  0  0  0  0  0
   -4.3648   -1.3530   -0.0511 C   0  0  0  0  0  0
   -4.1647   -0.3441   -0.8746 N   0  0  0  0  0  0
   -3.0449    0.3873   -0.8087 C   0  0  0  0  0  0
   -2.0704    0.0614    0.1641 C   0  0  0  0  0  0
   -2.3485   -1.0698    1.0508 C   0  0  0  0  0  0
   -1.4496   -1.4501    2.0245 N   0  0  0  0  0  0
   -0.9481    0.7687    0.2533 N   0  0  0  0  0  0
   -0.7170    1.7791   -0.5520 C   0  0  0  0  0  0
   -1.6320    2.1564   -1.5325 C   0  0  0  0  0  0
   -2.8046    1.4682   -1.6739 C   0  0  0  0  0  0
    0.5699    2.5507   -0.4122 C   0  0  0  0  0  0
    1.3671    1.9777    0.6753 N   0  0  0  0  0  0
    2.2829    0.9542    0.4073 C   0  0  0  0  0  0
    3.0387    0.4109    1.4377 C   0  0  0  0  0  0
    3.9424   -0.5992    1.1723 C   0  0  0  0  0  0
    4.0955   -1.0706   -0.1231 C   0  0  0  0  0  0
    3.3414   -0.5282   -1.1530 C   0  0  0  0  0  0
    2.4324    0.4774   -0.8883 C   0  0  0  0  0  0
    4.9860   -2.0651   -0.3837 O   0  0  0  0  0  0
    4.9140   -2.3268   -1.7866 C   0  0  0  0  0  0
    1.2054    2.4764    2.0433 C   0  0  0  0  0  0
   -5.5407   -2.0721   -0.1678 N   0  0  0  0  0  0
   -1.6506   -2.2023    2.6031 H   0  0  0  0  0  0
   -0.6161   -0.9655    2.1310 H   0  0  0  0  0  0
   -1.4149    2.9925   -2.1807 H   0  0  0  0  0  0
   -3.5251    1.7469   -2.4287 H   0  0  0  0  0  0
    1.1318    2.4921   -1.3444 H   0  0  0  0  0  0
    0.3458    3.5935   -0.1879 H   0  0  0  0  0  0
    2.9202    0.7783    2.4463 H   0  0  0  0  0  0
    4.5303   -1.0219    1.9736 H   0  0  0  0  0  0
    3.4614   -0.8956   -2.1615 H   0  0  0  0  0  0
    1.8450    0.8994   -1.6903 H   0  0  0  0  0  0
    5.6142   -3.1214   -2.0444 H   0  0  0  0  0  0
    3.9017   -2.6359   -2.0471 H   0  0  0  0  0  0
    5.1712   -1.4227   -2.3386 H   0  0  0  0  0  0
    0.4542    3.2660    2.0558 H   0  0  0  0  0  0
    0.8860    1.6607    2.6919 H   0  0  0  0  0  0
    2.1558    2.8734    2.4000 H   0  0  0  0  0  0
   -5.7129   -2.8198    0.4257 H   0  0  0  0  0  0
   -6.1931   -1.8286   -0.8430 H   0  0  0  0  0  0
  1  2  1  0  0  0
  1  6  2  0  0  0
  2  3  2  0  0  0
  2 23  1  0  0  0
  3  4  1  0  0  0
  4  5  2  0  0  0
  4 11  1  0  0  0
  5  6  1  0  0  0
  5  8  1  0  0  0
  6  7  1  0  0  0
  7 24  1  0  0  0
  7 25  1  0  0  0
  8  9  2  0  0  0
  9 10  1  0  0  0
  9 12  1  0  0  0
 10 11  2  0  0  0
 10 26  1  0  0  0
 11 27  1  0  0  0
 12 13  1  0  0  0
 12 28  1  0  0  0
 12 29  1  0  0  0
 13 14  1  0  0  0
 13 22  1  0  0  0
 14 15  1  0  0  0
 14 19  2  0  0  0
 15 16  2  0  0  0
 15 30  1  0  0  0
 16 17  1  0  0  0
 16 31  1  0  0  0
 17 18  2  0  0  0
 17 20  1  0  0  0
 18 19  1  0  0  0
 18 32  1  0  0  0
 19 33  1  0  0  0
 20 21  1  0  0  0
 21 34  1  0  0  0
 21 35  1  0  0  0
 21 36  1  0  0  0
 22 37  1  0  0  0
 22 38  1  0  0  0
 22 39  1  0  0  0
 23 40  1  0  0  0
 23 41  1  0  0  0
M  END
>  <ACTIVITY>
7.74473

>  <set_rl>
1

>  <Min_dist>
999.9

>  <Avg_dist>
999.9

>  <PC_uM>
0.25

>  <TG_uM>
0.016

>  <RL_uM>
0.018

$$$$
21-12
  Cerius2 12110214553D 1   1.00000                          
 
 34 36  0  0  0  0  0  0  0  0999 V2000
   -4.1068    1.4933    0.0018 N   0  0  0  0  0  0
   -4.9235    0.4441    0.0008 C   0  0  0  0  0  0
   -4.4999   -0.8036   -0.0007 N   0  0  0  0  0  0
   -3.1911   -1.0868   -0.0013 C   0  0  0  0  0  0
   -2.2599   -0.0214   -0.0004 C   0  0  0  0  0  0
   -2.7901    1.3432    0.0013 C   0  0  0  0  0  0
   -1.9482    2.4351    0.0019 N   0  0  0  0  0  0
   -0.9540   -0.2711    0.0000 N   0  0  0  0  0  0
   -0.4985   -1.5022   -0.0006 C   0  0  0  0  0  0
   -1.3573   -2.5991   -0.0020 C   0  0  0  0  0  0
   -2.7108   -2.4075   -0.0025 C   0  0  0  0  0  0
    0.9904   -1.7347   -0.0001 C   0  0  0  0  0  0
    1.6860   -0.4454    0.0009 N   0  0  0  0  0  0
    3.0829   -0.4050    0.0014 C   0  0  0  0  0  0
    3.8134   -1.5863    0.0010 C   0  0  0  0  0  0
    5.1938   -1.5431    0.0016 C   0  0  0  0  0  0
    5.8495   -0.3255    0.0031 C   0  0  0  0  0  0
    5.1262    0.8530    0.0035 C   0  0  0  0  0  0
    3.7445    0.8173   -0.0034 C   0  0  0  0  0  0
    2.8367    2.2970   -0.0034 Cl  0  0  0  0  0  0
   -6.2875    0.6741    0.0019 N   0  0  0  0  0  0
   -2.3173    3.3321    0.0030 H   0  0  0  0  0  0
   -0.9868    2.3062    0.0011 H   0  0  0  0  0  0
   -0.9537   -3.6009   -0.0028 H   0  0  0  0  0  0
   -3.3910   -3.2463   -0.0035 H   0  0  0  0  0  0
    1.2698   -2.2989    0.8896 H   0  0  0  0  0  0
    1.2705   -2.2979   -0.8903 H   0  0  0  0  0  0
    1.1770    0.3804    0.0011 H   0  0  0  0  0  0
    3.3024   -2.5377    0.0006 H   0  0  0  0  0  0
    5.7621   -2.4615    0.0013 H   0  0  0  0  0  0
    6.9291   -0.2949    0.0043 H   0  0  0  0  0  0
    5.6413    1.8022    0.0050 H   0  0  0  0  0  0
   -6.6261    1.5831    0.0033 H   0  0  0  0  0  0
   -6.9054   -0.0736    0.0012 H   0  0  0  0  0  0
  1  2  1  0  0  0
  1  6  2  0  0  0
  2  3  2  0  0  0
  2 21  1  0  0  0
  3  4  1  0  0  0
  4  5  2  0  0  0
  4 11  1  0  0  0
  5  6  1  0  0  0
  5  8  1  0  0  0
  6  7  1  0  0  0
  7 22  1  0  0  0
  7 23  1  0  0  0
  8  9  2  0  0  0
  9 10  1  0  0  0
  9 12  1  0  0  0
 10 11  2  0  0  0
 10 24  1  0  0  0
 11 25  1  0  0  0
 12 13  1  0  0  0
 12 26  1  0  0  0
 12 27  1  0  0  0
 13 14  1  0  0  0
 13 28  1  0  0  0
 14 15  1  0  0  0
 14 19  2  0  0  0
 15 16  2  0  0  0
 15 29  1  0  0  0
 16 17  1  0  0  0
 16 30  1  0  0  0
 17 18  2  0  0  0
 17 31  1  0  0  0
 18 19  1  0  0  0
 18 32  1  0  0  0
 19 20  1  0  0  0
 21 33  1  0  0  0
 21 34  1  0  0  0
M  END
>  <ACTIVITY>
6.85387

>  <set_rl>
1

>  <Min_dist>
999.9

>  <Avg_dist>
999.9

>  <PC_uM>
0.53

>  <TG_uM>
0.11

>  <RL_uM>
0.14

$$$$
21-13
  Cerius2 12110214553D 1   1.00000                          
 
 37 39  0  0  0  0  0  0  0  0999 V2000
   -4.3627    1.2769   -0.5169 N   0  0  0  0  0  0
   -5.0643    0.2678   -0.0094 C   0  0  0  0  0  0
   -4.5139   -0.8337    0.4593 N   0  0  0  0  0  0
   -3.1850   -0.9983    0.4486 C   0  0  0  0  0  0
   -2.3714    0.0334   -0.0766 C   0  0  0  0  0  0
   -3.0399    1.2335   -0.5828 C   0  0  0  0  0  0
   -2.3177    2.2827   -1.1106 N   0  0  0  0  0  0
   -1.0488   -0.1007   -0.1000 N   0  0  0  0  0  0
   -0.4684   -1.1845    0.3597 C   0  0  0  0  0  0
   -1.2068   -2.2399    0.8905 C   0  0  0  0  0  0
   -2.5706   -2.1619    0.9420 C   0  0  0  0  0  0
    1.0341   -1.2900    0.3118 C   0  0  0  0  0  0
    1.5920   -0.0686   -0.2840 N   0  0  0  0  0  0
    2.9803   -0.2276   -0.3001 C   0  0  0  0  0  0
    3.5521   -1.2820   -1.0002 C   0  0  0  0  0  0
    4.9245   -1.4364   -1.0142 C   0  0  0  0  0  0
    5.7298   -0.5430   -0.3317 C   0  0  0  0  0  0
    5.1647    0.5081    0.3667 C   0  0  0  0  0  0
    3.7925    0.6723    0.3798 C   0  0  0  0  0  0
    3.0834    1.9925    1.2563 Cl  0  0  0  0  0  0
    1.1536   -0.0444   -1.6858 C   0  0  0  0  0  0
   -6.4425    0.3805    0.0289 N   0  0  0  0  0  0
   -2.7776    3.0702   -1.4414 H   0  0  0  0  0  0
   -1.3498    2.2335   -1.1512 H   0  0  0  0  0  0
   -0.7018   -3.1197    1.2611 H   0  0  0  0  0  0
   -3.1586   -2.9706    1.3502 H   0  0  0  0  0  0
    1.4223   -1.4110    1.3231 H   0  0  0  0  0  0
    1.3187   -2.1516   -0.2922 H   0  0  0  0  0  0
    2.9241   -1.9807   -1.5330 H   0  0  0  0  0  0
    5.3694   -2.2562   -1.5586 H   0  0  0  0  0  0
    6.8026   -0.6668   -0.3439 H   0  0  0  0  0  0
    5.7965    1.2038    0.8989 H   0  0  0  0  0  0
    1.5446    0.8485   -2.1735 H   0  0  0  0  0  0
    1.5264   -0.9312   -2.1985 H   0  0  0  0  0  0
    0.0644   -0.0327   -1.7257 H   0  0  0  0  0  0
   -6.8732    1.1811   -0.3094 H   0  0  0  0  0  0
   -6.9781   -0.3410    0.3941 H   0  0  0  0  0  0
  1  2  1  0  0  0
  1  6  2  0  0  0
  2  3  2  0  0  0
  2 22  1  0  0  0
  3  4  1  0  0  0
  4  5  2  0  0  0
  4 11  1  0  0  0
  5  6  1  0  0  0
  5  8  1  0  0  0
  6  7  1  0  0  0
  7 23  1  0  0  0
  7 24  1  0  0  0
  8  9  2  0  0  0
  9 10  1  0  0  0
  9 12  1  0  0  0
 10 11  2  0  0  0
 10 25  1  0  0  0
 11 26  1  0  0  0
 12 13  1  0  0  0
 12 27  1  0  0  0
 12 28  1  0  0  0
 13 14  1  0  0  0
 13 21  1  0  0  0
 14 15  1  0  0  0
 14 19  2  0  0  0
 15 16  2  0  0  0
 15 29  1  0  0  0
 16 17  1  0  0  0
 16 30  1  0  0  0
 17 18  2  0  0  0
 17 31  1  0  0  0
 18 19  1  0  0  0
 18 32  1  0  0  0
 19 20  1  0  0  0
 21 33  1  0  0  0
 21 34  1  0  0  0
 21 35  1  0  0  0
 22 36  1  0  0  0
 22 37  1  0  0  0
M  END
>  <ACTIVITY>
6.92082

>  <set_rl>
1

>  <Min_dist>
999.9

>  <Avg_dist>
999.9

>  <PC_uM>
0.21

>  <TG_uM>
0.015

>  <RL_uM>
0.12

$$$$
21-14
  Cerius2 12110214553D 1   1.00000                          
 
 34 36  0  0  0  0  0  0  0  0999 V2000
   -4.7925    1.2521    0.0002 N   0  0  0  0  0  0
   -5.4039    0.0714    0.0003 C   0  0  0  0  0  0
   -4.7598   -1.0780   -0.0001 N   0  0  0  0  0  0
   -3.4213   -1.1176   -0.0008 C   0  0  0  0  0  0
   -2.7001    0.0998   -0.0010 C   0  0  0  0  0  0
   -3.4705    1.3448   -0.0005 C   0  0  0  0  0  0
   -2.8420    2.5719   -0.0011 N   0  0  0  0  0  0
   -1.3706    0.0926   -0.0007 N   0  0  0  0  0  0
   -0.6982   -1.0346   -0.0001 C   0  0  0  0  0  0
   -1.3423   -2.2699   -0.0004 C   0  0  0  0  0  0
   -2.7080   -2.3284   -0.0007 C   0  0  0  0  0  0
    0.8082   -0.9915    0.0002 C   0  0  0  0  0  0
    1.2569    0.4031   -0.0001 N   0  0  0  0  0  0
    2.6222    0.6975    0.0001 C   0  0  0  0  0  0
    3.0492    2.0197   -0.0002 C   0  0  0  0  0  0
    4.3997    2.3080    0.0000 C   0  0  0  0  0  0
    5.3275    1.2825    0.0001 C   0  0  0  0  0  0
    4.9062   -0.0356   -0.0001 C   0  0  0  0  0  0
    3.5556   -0.3307    0.0064 C   0  0  0  0  0  0
    6.0745   -1.3196   -0.0012 Cl  0  0  0  0  0  0
   -6.7870    0.0486    0.0014 N   0  0  0  0  0  0
   -3.3686    3.3866   -0.0007 H   0  0  0  0  0  0
   -1.8732    2.6207   -0.0019 H   0  0  0  0  0  0
   -0.7627   -3.1812   -0.0003 H   0  0  0  0  0  0
   -3.2237   -3.2774   -0.0008 H   0  0  0  0  0  0
    1.1859   -1.4945    0.8905 H   0  0  0  0  0  0
    1.1863   -1.4950   -0.8895 H   0  0  0  0  0  0
    0.6057    1.1220   -0.0005 H   0  0  0  0  0  0
    2.3255    2.8213   -0.0009 H   0  0  0  0  0  0
    4.7317    3.3357   -0.0002 H   0  0  0  0  0  0
    6.3831    1.5109   -0.0002 H   0  0  0  0  0  0
    3.2269   -1.3594    0.0067 H   0  0  0  0  0  0
   -7.2858    0.8805    0.0021 H   0  0  0  0  0  0
   -7.2581   -0.7993    0.0016 H   0  0  0  0  0  0
  1  2  1  0  0  0
  1  6  2  0  0  0
  2  3  2  0  0  0
  2 21  1  0  0  0
  3  4  1  0  0  0
  4  5  2  0  0  0
  4 11  1  0  0  0
  5  6  1  0  0  0
  5  8  1  0  0  0
  6  7  1  0  0  0
  7 22  1  0  0  0
  7 23  1  0  0  0
  8  9  2  0  0  0
  9 10  1  0  0  0
  9 12  1  0  0  0
 10 11  2  0  0  0
 10 24  1  0  0  0
 11 25  1  0  0  0
 12 13  1  0  0  0
 12 26  1  0  0  0
 12 27  1  0  0  0
 13 14  1  0  0  0
 13 28  1  0  0  0
 14 15  1  0  0  0
 14 19  2  0  0  0
 15 16  2  0  0  0
 15 29  1  0  0  0
 16 17  1  0  0  0
 16 30  1  0  0  0
 17 18  2  0  0  0
 17 31  1  0  0  0
 18 19  1  0  0  0
 18 20  1  0  0  0
 19 32  1  0  0  0
 21 33  1  0  0  0
 21 34  1  0  0  0
M  END
>  <ACTIVITY>
6.85387

>  <set_rl>
1

>  <Min_dist>
999.9

>  <Avg_dist>
999.9

>  <PC_uM>
2

>  <TG_uM>
0.13

>  <RL_uM>
0.14

$$$$
21-16
  Cerius2 12110214553D 1   1.00000                          
 
 45 47  0  0  0  0  0  0  0  0999 V2000
   -5.0743    1.1284   -0.6615 N   0  0  0  0  0  0
   -5.7410    0.1350   -0.0815 C   0  0  0  0  0  0
   -5.1523   -0.8949    0.4921 N   0  0  0  0  0  0
   -3.8174   -0.9969    0.5212 C   0  0  0  0  0  0
   -3.0394    0.0229   -0.0762 C   0  0  0  0  0  0
   -3.7496    1.1420   -0.6980 C   0  0  0  0  0  0
   -3.0637    2.1746   -1.3013 N   0  0  0  0  0  0
   -1.7119   -0.0502   -0.0624 N   0  0  0  0  0  0
   -1.0939   -1.0617    0.5012 C   0  0  0  0  0  0
   -1.7958   -2.1011    1.1078 C   0  0  0  0  0  0
   -3.1626   -2.0833    1.1261 C   0  0  0  0  0  0
    0.4126   -1.1000    0.4916 C   0  0  0  0  0  0
    0.9283    0.0904   -0.1976 N   0  0  0  0  0  0
    2.3272   -0.0041   -0.1730 C   0  0  0  0  0  0
    2.9604   -1.0855   -0.7668 C   0  0  0  0  0  0
    4.3393   -1.1789   -0.7421 C   0  0  0  0  0  0
    5.0923   -0.1919   -0.1239 C   0  0  0  0  0  0
    4.4635    0.8918    0.4709 C   0  0  0  0  0  0
    3.0824    0.9911    0.4428 C   0  0  0  0  0  0
    2.4639    2.0533    1.0251 O   0  0  0  0  0  0
    3.4923    2.8806    1.5729 C   0  0  0  0  0  0
    6.4488   -0.2870   -0.1004 O   0  0  0  0  0  0
    6.7900   -1.4948   -0.7836 C   0  0  0  0  0  0
    0.5219   -0.0272   -1.6044 C   0  0  0  0  0  0
   -7.1234    0.1854   -0.0796 N   0  0  0  0  0  0
   -3.5509    2.9081   -1.7083 H   0  0  0  0  0  0
   -2.0939    2.1678   -1.3188 H   0  0  0  0  0  0
   -1.2602   -2.9208    1.5634 H   0  0  0  0  0  0
   -3.7226   -2.8806    1.5919 H   0  0  0  0  0  0
    0.7823   -1.1148    1.5169 H   0  0  0  0  0  0
    0.7500   -1.9961   -0.0293 H   0  0  0  0  0  0
    2.3759   -1.8554   -1.2485 H   0  0  0  0  0  0
    4.8310   -2.0219   -1.2046 H   0  0  0  0  0  0
    5.0508    1.6597    0.9524 H   0  0  0  0  0  0
    3.0424    3.7497    2.0528 H   0  0  0  0  0  0
    4.0616    2.3131    2.3090 H   0  0  0  0  0  0
    4.1573    3.2101    0.7746 H   0  0  0  0  0  0
    7.8734   -1.6147   -0.7905 H   0  0  0  0  0  0
    6.3338   -2.3426   -0.2725 H   0  0  0  0  0  0
    6.4231   -1.4484   -1.8090 H   0  0  0  0  0  0
    0.8833    0.8379   -2.1605 H   0  0  0  0  0  0
    0.9464   -0.9362   -2.0305 H   0  0  0  0  0  0
   -0.5655   -0.0703   -1.6661 H   0  0  0  0  0  0
   -7.5820    0.9326   -0.4947 H   0  0  0  0  0  0
   -7.6341   -0.5264    0.3367 H   0  0  0  0  0  0
  1  2  1  0  0  0
  1  6  2  0  0  0
  2  3  2  0  0  0
  2 25  1  0  0  0
  3  4  1  0  0  0
  4  5  2  0  0  0
  4 11  1  0  0  0
  5  6  1  0  0  0
  5  8  1  0  0  0
  6  7  1  0  0  0
  7 26  1  0  0  0
  7 27  1  0  0  0
  8  9  2  0  0  0
  9 10  1  0  0  0
  9 12  1  0  0  0
 10 11  2  0  0  0
 10 28  1  0  0  0
 11 29  1  0  0  0
 12 13  1  0  0  0
 12 30  1  0  0  0
 12 31  1  0  0  0
 13 14  1  0  0  0
 13 24  1  0  0  0
 14 15  1  0  0  0
 14 19  2  0  0  0
 15 16  2  0  0  0
 15 32  1  0  0  0
 16 17  1  0  0  0
 16 33  1  0  0  0
 17 18  2  0  0  0
 17 22  1  0  0  0
 18 19  1  0  0  0
 18 34  1  0  0  0
 19 20  1  0  0  0
 20 21  1  0  0  0
 21 35  1  0  0  0
 21 36  1  0  0  0
 21 37  1  0  0  0
 22 23  1  0  0  0
 23 38  1  0  0  0
 23 39  1  0  0  0
 23 40  1  0  0  0
 24 41  1  0  0  0
 24 42  1  0  0  0
 24 43  1  0  0  0
 25 44  1  0  0  0
 25 45  1  0  0  0
M  END
>  <ACTIVITY>
7.79588

>  <set_rl>
1

>  <Min_dist>
999.9

>  <Avg_dist>
999.9

>  <PC_uM>
0.16

>  <TG_uM>
0.014

>  <RL_uM>
0.016

$$$$
21-18
  Cerius2 12110214553D 1   1.00000                          
 
 45 47  0  0  0  0  0  0  0  0999 V2000
   -5.0214    0.9414   -0.8338 N   0  0  0  0  0  0
   -5.6616   -0.0016   -0.1492 C   0  0  0  0  0  0
   -5.0461   -0.9283    0.5569 N   0  0  0  0  0  0
   -3.7092   -0.9693    0.6233 C   0  0  0  0  0  0
   -2.9585    0.0025   -0.0798 C   0  0  0  0  0  0
   -3.6978    1.0066   -0.8469 C   0  0  0  0  0  0
   -3.0395    1.9866   -1.5591 N   0  0  0  0  0  0
   -1.6299   -0.0120   -0.0323 N   0  0  0  0  0  0
   -0.9856   -0.9205    0.6622 C   0  0  0  0  0  0
   -1.6598   -1.9073    1.3781 C   0  0  0  0  0  0
   -3.0262   -1.9454    1.3686 C   0  0  0  0  0  0
    0.5210   -0.8957    0.6855 C   0  0  0  0  0  0
    1.0051    0.2230   -0.1344 N   0  0  0  0  0  0
    2.4028    0.1917   -0.0724 C   0  0  0  0  0  0
    3.0932   -0.9259   -0.5175 C   0  0  0  0  0  0
    4.4780   -0.9538   -0.4552 C   0  0  0  0  0  0
    5.1725    0.1345    0.0519 C   0  0  0  0  0  0
    4.4863    1.2495    0.4965 C   0  0  0  0  0  0
    3.1036    1.2853    0.4310 C   0  0  0  0  0  0
    2.4293    2.3834    0.8685 O   0  0  0  0  0  0
    3.4106    3.3139    1.3303 C   0  0  0  0  0  0
    5.1557   -2.0490   -0.8913 O   0  0  0  0  0  0
    6.5456   -1.7779   -0.6998 C   0  0  0  0  0  0
    0.6372   -0.0816   -1.5236 C   0  0  0  0  0  0
   -7.0445   -0.0100   -0.1793 N   0  0  0  0  0  0
   -3.5457    2.6438   -2.0617 H   0  0  0  0  0  0
   -2.0700    2.0188   -1.5575 H   0  0  0  0  0  0
   -1.1029   -2.6422    1.9404 H   0  0  0  0  0  0
   -3.5650   -2.7033    1.9179 H   0  0  0  0  0  0
    0.8666   -0.7702    1.7116 H   0  0  0  0  0  0
    0.9061   -1.8333    0.2845 H   0  0  0  0  0  0
    2.5526   -1.7737   -0.9117 H   0  0  0  0  0  0
    6.2511    0.1107    0.0999 H   0  0  0  0  0  0
    5.0297    2.0954    0.8913 H   0  0  0  0  0  0
    2.9151    4.2146    1.6926 H   0  0  0  0  0  0
    3.9848    2.8643    2.1404 H   0  0  0  0  0  0
    4.0804    3.5725    0.5102 H   0  0  0  0  0  0
    7.1323   -2.6325   -1.0369 H   0  0  0  0  0  0
    6.8262   -0.8952   -1.2745 H   0  0  0  0  0  0
    6.7386   -1.5993    0.3580 H   0  0  0  0  0  0
    0.9770    0.7240   -2.1744 H   0  0  0  0  0  0
    1.1075   -1.0169   -1.8273 H   0  0  0  0  0  0
   -0.4458   -0.1781   -1.5999 H   0  0  0  0  0  0
   -7.5226    0.6611   -0.6912 H   0  0  0  0  0  0
   -7.5362   -0.6870    0.3113 H   0  0  0  0  0  0
  1  2  1  0  0  0
  1  6  2  0  0  0
  2  3  2  0  0  0
  2 25  1  0  0  0
  3  4  1  0  0  0
  4  5  2  0  0  0
  4 11  1  0  0  0
  5  6  1  0  0  0
  5  8  1  0  0  0
  6  7  1  0  0  0
  7 26  1  0  0  0
  7 27  1  0  0  0
  8  9  2  0  0  0
  9 10  1  0  0  0
  9 12  1  0  0  0
 10 11  2  0  0  0
 10 28  1  0  0  0
 11 29  1  0  0  0
 12 13  1  0  0  0
 12 30  1  0  0  0
 12 31  1  0  0  0
 13 14  1  0  0  0
 13 24  1  0  0  0
 14 15  1  0  0  0
 14 19  2  0  0  0
 15 16  2  0  0  0
 15 32  1  0  0  0
 16 17  1  0  0  0
 16 22  1  0  0  0
 17 18  2  0  0  0
 17 33  1  0  0  0
 18 19  1  0  0  0
 18 34  1  0  0  0
 19 20  1  0  0  0
 20 21  1  0  0  0
 21 35  1  0  0  0
 21 36  1  0  0  0
 21 37  1  0  0  0
 22 23  1  0  0  0
 23 38  1  0  0  0
 23 39  1  0  0  0
 23 40  1  0  0  0
 24 41  1  0  0  0
 24 42  1  0  0  0
 24 43  1  0  0  0
 25 44  1  0  0  0
 25 45  1  0  0  0
M  END
>  <ACTIVITY>
7.30103

>  <set_rl>
1

>  <Min_dist>
999.9

>  <Avg_dist>
999.9

>  <PC_uM>
0.21

>  <TG_uM>
0.025

>  <RL_uM>
0.05

$$$$
21-19
  Cerius2 12110214553D 1   1.00000                          
 
 42 44  0  0  0  0  0  0  0  0999 V2000
   -4.9871    1.5652    0.0008 N   0  0  0  0  0  0
   -5.7981    0.5116    0.0010 C   0  0  0  0  0  0
   -5.3677   -0.7338    0.0004 N   0  0  0  0  0  0
   -4.0574   -1.0099   -0.0005 C   0  0  0  0  0  0
   -3.1320    0.0605   -0.0008 C   0  0  0  0  0  0
   -3.6696    1.4223    0.0000 C   0  0  0  0  0  0
   -2.8336    2.5186   -0.0007 N   0  0  0  0  0  0
   -1.8247   -0.1821   -0.0007 N   0  0  0  0  0  0
   -1.3627   -1.4107   -0.0003 C   0  0  0  0  0  0
   -2.2155   -2.5123   -0.0005 C   0  0  0  0  0  0
   -3.5700   -2.3279   -0.0007 C   0  0  0  0  0  0
    0.1275   -1.6352   -0.0002 C   0  0  0  0  0  0
    0.8161   -0.3421   -0.0006 N   0  0  0  0  0  0
    2.2146   -0.2942   -0.0006 C   0  0  0  0  0  0
    2.9497   -1.4723   -0.0002 C   0  0  0  0  0  0
    4.3310   -1.4266    0.0003 C   0  0  0  0  0  0
    4.9852   -0.2054    0.0005 C   0  0  0  0  0  0
    4.2516    0.9768    0.0002 C   0  0  0  0  0  0
    2.8671    0.9311   -0.0066 C   0  0  0  0  0  0
    4.8930    2.1759    0.0013 O   0  0  0  0  0  0
    3.8816    3.1854    0.0006 C   0  0  0  0  0  0
    6.3454   -0.1622    0.0015 O   0  0  0  0  0  0
    6.8017   -1.5164    0.0021 C   0  0  0  0  0  0
   -7.1633    0.7342    0.0024 N   0  0  0  0  0  0
   -3.2076    3.4137   -0.0002 H   0  0  0  0  0  0
   -1.8715    2.3950   -0.0016 H   0  0  0  0  0  0
   -1.8065   -3.5119   -0.0006 H   0  0  0  0  0  0
   -4.2456   -3.1705   -0.0007 H   0  0  0  0  0  0
    0.4102   -2.1971    0.8899 H   0  0  0  0  0  0
    0.4103   -2.1976   -0.8901 H   0  0  0  0  0  0
    0.3027    0.4809   -0.0008 H   0  0  0  0  0  0
    2.4415   -2.4252    0.0000 H   0  0  0  0  0  0
    4.9010   -2.3439    0.0009 H   0  0  0  0  0  0
    2.2960    1.8478   -0.0069 H   0  0  0  0  0  0
    4.3504    4.1694    0.0015 H   0  0  0  0  0  0
    3.2624    3.0787   -0.8901 H   0  0  0  0  0  0
    3.2605    3.0781    0.8899 H   0  0  0  0  0  0
    7.8916   -1.5325    0.0029 H   0  0  0  0  0  0
    6.4302   -2.0245    0.8919 H   0  0  0  0  0  0
    6.4314   -2.0249   -0.8880 H   0  0  0  0  0  0
   -7.5068    1.6413    0.0032 H   0  0  0  0  0  0
   -7.7772   -0.0169    0.0025 H   0  0  0  0  0  0
  1  2  1  0  0  0
  1  6  2  0  0  0
  2  3  2  0  0  0
  2 24  1  0  0  0
  3  4  1  0  0  0
  4  5  2  0  0  0
  4 11  1  0  0  0
  5  6  1  0  0  0
  5  8  1  0  0  0
  6  7  1  0  0  0
  7 25  1  0  0  0
  7 26  1  0  0  0
  8  9  2  0  0  0
  9 10  1  0  0  0
  9 12  1  0  0  0
 10 11  2  0  0  0
 10 27  1  0  0  0
 11 28  1  0  0  0
 12 13  1  0  0  0
 12 29  1  0  0  0
 12 30  1  0  0  0
 13 14  1  0  0  0
 13 31  1  0  0  0
 14 15  1  0  0  0
 14 19  2  0  0  0
 15 16  2  0  0  0
 15 32  1  0  0  0
 16 17  1  0  0  0
 16 33  1  0  0  0
 17 18  2  0  0  0
 17 22  1  0  0  0
 18 19  1  0  0  0
 18 20  1  0  0  0
 19 34  1  0  0  0
 20 21  1  0  0  0
 21 35  1  0  0  0
 21 36  1  0  0  0
 21 37  1  0  0  0
 22 23  1  0  0  0
 23 38  1  0  0  0
 23 39  1  0  0  0
 23 40  1  0  0  0
 24 41  1  0  0  0
 24 42  1  0  0  0
M  END
>  <ACTIVITY>
7.22185

>  <set_rl>
1

>  <Min_dist>
999.9

>  <Avg_dist>
999.9

>  <PC_uM>
0.9

>  <TG_uM>
0.09

>  <RL_uM>
0.06

$$$$
21-21
  Cerius2 12110214553D 1   1.00000                          
 
 34 36  0  0  0  0  0  0  0  0999 V2000
   -4.9078    1.4578    0.0020 N   0  0  0  0  0  0
   -5.7107    0.3979    0.0012 C   0  0  0  0  0  0
   -5.2709   -0.8441   -0.0003 N   0  0  0  0  0  0
   -3.9584   -1.1102   -0.0011 C   0  0  0  0  0  0
   -3.0412   -0.0327   -0.0003 C   0  0  0  0  0  0
   -3.5892    1.3249    0.0014 C   0  0  0  0  0  0
   -2.7617    2.4276    0.0018 N   0  0  0  0  0  0
   -1.7322   -0.2654   -0.0002 N   0  0  0  0  0  0
   -1.2607   -1.4904   -0.0007 C   0  0  0  0  0  0
   -2.1051   -2.5985   -0.0020 C   0  0  0  0  0  0
   -3.4610   -2.4245   -0.0023 C   0  0  0  0  0  0
    0.2311   -1.7034   -0.0005 C   0  0  0  0  0  0
    0.9098   -0.4052    0.0004 N   0  0  0  0  0  0
    2.3068   -0.3466    0.0007 C   0  0  0  0  0  0
    3.0522   -1.5182    0.0003 C   0  0  0  0  0  0
    4.4321   -1.4577    0.0007 C   0  0  0  0  0  0
    5.0725   -0.2309    0.0015 C   0  0  0  0  0  0
    4.3331    0.9386    0.0024 C   0  0  0  0  0  0
    2.9520    0.8843   -0.0042 C   0  0  0  0  0  0
    2.0245    2.3517   -0.0037 Cl  0  0  0  0  0  0
    6.8071   -0.1592    0.0020 Cl  0  0  0  0  0  0
   -7.0776    0.6101    0.0025 N   0  0  0  0  0  0
   -3.1424    3.3198    0.0029 H   0  0  0  0  0  0
   -1.7987    2.3113    0.0009 H   0  0  0  0  0  0
   -1.6885   -3.5949   -0.0028 H   0  0  0  0  0  0
   -4.1302   -3.2721   -0.0031 H   0  0  0  0  0  0
    0.5179   -2.2640    0.8893 H   0  0  0  0  0  0
    0.5184   -2.2630   -0.8907 H   0  0  0  0  0  0
    0.3901    0.4138    0.0007 H   0  0  0  0  0  0
    2.5534   -2.4761    0.0000 H   0  0  0  0  0  0
    5.0120   -2.3688    0.0007 H   0  0  0  0  0  0
    4.8355    1.8947    0.0038 H   0  0  0  0  0  0
   -7.4280    1.5146    0.0039 H   0  0  0  0  0  0
   -7.6857   -0.1456    0.0019 H   0  0  0  0  0  0
  1  2  1  0  0  0
  1  6  2  0  0  0
  2  3  2  0  0  0
  2 22  1  0  0  0
  3  4  1  0  0  0
  4  5  2  0  0  0
  4 11  1  0  0  0
  5  6  1  0  0  0
  5  8  1  0  0  0
  6  7  1  0  0  0
  7 23  1  0  0  0
  7 24  1  0  0  0
  8  9  2  0  0  0
  9 10  1  0  0  0
  9 12  1  0  0  0
 10 11  2  0  0  0
 10 25  1  0  0  0
 11 26  1  0  0  0
 12 13  1  0  0  0
 12 27  1  0  0  0
 12 28  1  0  0  0
 13 14  1  0  0  0
 13 29  1  0  0  0
 14 15  1  0  0  0
 14 19  2  0  0  0
 15 16  2  0  0  0
 15 30  1  0  0  0
 16 17  1  0  0  0
 16 31  1  0  0  0
 17 18  2  0  0  0
 17 21  1  0  0  0
 18 19  1  0  0  0
 18 32  1  0  0  0
 19 20  1  0  0  0
 22 33  1  0  0  0
 22 34  1  0  0  0
M  END
>  <ACTIVITY>
7.05552

>  <set_rl>
1

>  <Min_dist>
999.9

>  <Avg_dist>
999.9

>  <PC_uM>
0.73

>  <TG_uM>
0.05

>  <RL_uM>
0.088

$$$$
21-23
  Cerius2 12110214553D 1   1.00000                          
 
 34 36  0  0  0  0  0  0  0  0999 V2000
   -4.9385    1.1378    0.0017 N   0  0  0  0  0  0
   -5.6033   -0.0137    0.0007 C   0  0  0  0  0  0
   -5.0124   -1.1914   -0.0008 N   0  0  0  0  0  0
   -3.6771   -1.2922   -0.0014 C   0  0  0  0  0  0
   -2.9010   -0.1090   -0.0004 C   0  0  0  0  0  0
   -3.6137    1.1699    0.0013 C   0  0  0  0  0  0
   -2.9297    2.3670    0.0018 N   0  0  0  0  0  0
   -1.5732   -0.1771   -0.0001 N   0  0  0  0  0  0
   -0.9531   -1.3339   -0.0006 C   0  0  0  0  0  0
   -1.6530   -2.5384   -0.0021 C   0  0  0  0  0  0
   -3.0200   -2.5344   -0.0025 C   0  0  0  0  0  0
    0.5537   -1.3598   -0.0002 C   0  0  0  0  0  0
    1.0657    0.0129    0.0009 N   0  0  0  0  0  0
    2.4438    0.2446    0.0014 C   0  0  0  0  0  0
    3.3293   -0.8251    0.0010 C   0  0  0  0  0  0
    4.6918   -0.5924    0.0011 C   0  0  0  0  0  0
    5.1737    0.7050    0.0020 C   0  0  0  0  0  0
    4.2947    1.7722    0.0025 C   0  0  0  0  0  0
    2.9312    1.5463   -0.0034 C   0  0  0  0  0  0
    1.8283    2.8870   -0.0028 Cl  0  0  0  0  0  0
    5.7997   -1.9289    0.0006 Cl  0  0  0  0  0  0
   -6.9860    0.0268    0.0018 N   0  0  0  0  0  0
   -3.4184    3.2048    0.0030 H   0  0  0  0  0  0
   -1.9597    2.3713    0.0012 H   0  0  0  0  0  0
   -1.1157   -3.4753   -0.0028 H   0  0  0  0  0  0
   -3.5786   -3.4587   -0.0036 H   0  0  0  0  0  0
    0.9079   -1.8803    0.8896 H   0  0  0  0  0  0
    0.9084   -1.8792   -0.8904 H   0  0  0  0  0  0
    0.4481    0.7609    0.0011 H   0  0  0  0  0  0
    2.9537   -1.8377    0.0010 H   0  0  0  0  0  0
    6.2388    0.8843    0.0028 H   0  0  0  0  0  0
    4.6739    2.7834    0.0035 H   0  0  0  0  0  0
   -7.4462    0.8807    0.0033 H   0  0  0  0  0  0
   -7.4954   -0.7987    0.0011 H   0  0  0  0  0  0
  1  2  1  0  0  0
  1  6  2  0  0  0
  2  3  2  0  0  0
  2 22  1  0  0  0
  3  4  1  0  0  0
  4  5  2  0  0  0
  4 11  1  0  0  0
  5  6  1  0  0  0
  5  8  1  0  0  0
  6  7  1  0  0  0
  7 23  1  0  0  0
  7 24  1  0  0  0
  8  9  2  0  0  0
  9 10  1  0  0  0
  9 12  1  0  0  0
 10 11  2  0  0  0
 10 25  1  0  0  0
 11 26  1  0  0  0
 12 13  1  0  0  0
 12 27  1  0  0  0
 12 28  1  0  0  0
 13 14  1  0  0  0
 13 29  1  0  0  0
 14 15  1  0  0  0
 14 19  2  0  0  0
 15 16  2  0  0  0
 15 30  1  0  0  0
 16 17  1  0  0  0
 16 21  1  0  0  0
 17 18  2  0  0  0
 17 31  1  0  0  0
 18 19  1  0  0  0
 18 32  1  0  0  0
 19 20  1  0  0  0
 22 33  1  0  0  0
 22 34  1  0  0  0
M  END
>  <ACTIVITY>
6.69897

>  <set_rl>
1

>  <Min_dist>
999.9

>  <Avg_dist>
999.9

>  <PC_uM>
1.6

>  <TG_uM>
0.091

>  <RL_uM>
0.2

$$$$
21-27
  Cerius2 12110214553D 1   1.00000                          
 
 34 36  0  0  0  0  0  0  0  0999 V2000
   -5.4403    1.4159    0.0005 N   0  0  0  0  0  0
   -6.1225    0.2746    0.0004 C   0  0  0  0  0  0
   -5.5495   -0.9119   -0.0003 N   0  0  0  0  0  0
   -4.2158   -1.0329   -0.0010 C   0  0  0  0  0  0
   -3.4220    0.1384   -0.0010 C   0  0  0  0  0  0
   -4.1152    1.4280   -0.0002 C   0  0  0  0  0  0
   -3.4132    2.6146   -0.0005 N   0  0  0  0  0  0
   -2.0953    0.0504   -0.0007 N   0  0  0  0  0  0
   -1.4927   -1.1157   -0.0004 C   0  0  0  0  0  0
   -2.2108   -2.3095   -0.0009 C   0  0  0  0  0  0
   -3.5776   -2.2848   -0.0013 C   0  0  0  0  0  0
    0.0135   -1.1643   -0.0001 C   0  0  0  0  0  0
    0.5461    0.2004   -0.0002 N   0  0  0  0  0  0
    1.9275    0.4113    0.0001 C   0  0  0  0  0  0
    2.4339    1.7049    0.0000 C   0  0  0  0  0  0
    3.7994    1.9111    0.0002 C   0  0  0  0  0  0
    4.6638    0.8306    0.0000 C   0  0  0  0  0  0
    4.1625   -0.4602    0.0001 C   0  0  0  0  0  0
    2.7964   -0.6719    0.0061 C   0  0  0  0  0  0
    5.2500   -1.8133   -0.0002 Cl  0  0  0  0  0  0
    6.3798    1.0937   -0.0008 Cl  0  0  0  0  0  0
   -7.5044    0.3360    0.0016 N   0  0  0  0  0  0
   -3.8892    3.4598    0.0000 H   0  0  0  0  0  0
   -2.4432    2.6043   -0.0013 H   0  0  0  0  0  0
   -1.6877   -3.2544   -0.0011 H   0  0  0  0  0  0
   -4.1501   -3.2006   -0.0015 H   0  0  0  0  0  0
    0.3599   -1.6895    0.8900 H   0  0  0  0  0  0
    0.3602   -1.6897   -0.8900 H   0  0  0  0  0  0
   -0.0601    0.9576   -0.0004 H   0  0  0  0  0  0
    1.7600    2.5489   -0.0005 H   0  0  0  0  0  0
    4.1930    2.9169    0.0002 H   0  0  0  0  0  0
    2.4053   -1.6786    0.0062 H   0  0  0  0  0  0
   -7.9516    1.1967    0.0024 H   0  0  0  0  0  0
   -8.0262   -0.4817    0.0015 H   0  0  0  0  0  0
  1  2  1  0  0  0
  1  6  2  0  0  0
  2  3  2  0  0  0
  2 22  1  0  0  0
  3  4  1  0  0  0
  4  5  2  0  0  0
  4 11  1  0  0  0
  5  6  1  0  0  0
  5  8  1  0  0  0
  6  7  1  0  0  0
  7 23  1  0  0  0
  7 24  1  0  0  0
  8  9  2  0  0  0
  9 10  1  0  0  0
  9 12  1  0  0  0
 10 11  2  0  0  0
 10 25  1  0  0  0
 11 26  1  0  0  0
 12 13  1  0  0  0
 12 27  1  0  0  0
 12 28  1  0  0  0
 13 14  1  0  0  0
 13 29  1  0  0  0
 14 15  1  0  0  0
 14 19  2  0  0  0
 15 16  2  0  0  0
 15 30  1  0  0  0
 16 17  1  0  0  0
 16 31  1  0  0  0
 17 18  2  0  0  0
 17 21  1  0  0  0
 18 19  1  0  0  0
 18 20  1  0  0  0
 19 32  1  0  0  0
 22 33  1  0  0  0
 22 34  1  0  0  0
M  END
>  <ACTIVITY>
7.26761

>  <set_rl>
1

>  <Min_dist>
999.9

>  <Avg_dist>
999.9

>  <PC_uM>
0.41

>  <TG_uM>
0.057

>  <RL_uM>
0.054

$$$$
21-38
  Cerius2 12110214553D 1   1.00000                          
 
 43 46  0  0  0  0  0  0  0  0999 V2000
   -4.7004    1.3831   -0.6252 N   0  0  0  0  0  0
   -5.4410    0.5176    0.0606 C   0  0  0  0  0  0
   -4.9409   -0.5317    0.6810 N   0  0  0  0  0  0
   -3.6267   -0.7874    0.6523 C   0  0  0  0  0  0
   -2.7737    0.0900   -0.0583 C   0  0  0  0  0  0
   -3.3871    1.2386   -0.7276 C   0  0  0  0  0  0
   -2.6243    2.1391   -1.4404 N   0  0  0  0  0  0
   -1.4645   -0.1371   -0.1041 N   0  0  0  0  0  0
   -0.9338   -1.1724    0.5036 C   0  0  0  0  0  0
   -1.7130   -2.0775    1.2209 C   0  0  0  0  0  0
   -3.0656   -1.8982    1.3049 C   0  0  0  0  0  0
    0.5556   -1.3878    0.4229 C   0  0  0  0  0  0
    1.1624   -0.3171   -0.3791 N   0  0  0  0  0  0
    2.5317   -0.5714   -0.4158 C   0  0  0  0  0  0
    3.0063   -1.7497   -0.9518 C   0  0  0  0  0  0
    4.3720   -2.0132   -0.9931 C   0  0  0  0  0  0
    5.2758   -1.1183   -0.5067 C   0  0  0  0  0  0
    4.8337    0.0946    0.0479 C   0  0  0  0  0  0
    3.4461    0.3774    0.0900 C   0  0  0  0  0  0
    3.0060    1.5898    0.6435 C   0  0  0  0  0  0
    3.9157    2.4773    1.1320 C   0  0  0  0  0  0
    5.2808    2.2005    1.0907 C   0  0  0  0  0  0
    5.7439    1.0372    0.5570 C   0  0  0  0  0  0
    0.6651   -0.4839   -1.7513 C   0  0  0  0  0  0
   -6.8063    0.7299    0.1264 N   0  0  0  0  0  0
   -3.0478    2.8944   -1.8775 H   0  0  0  0  0  0
   -1.6641    2.0173   -1.5049 H   0  0  0  0  0  0
   -1.2485   -2.9206    1.7106 H   0  0  0  0  0  0
   -3.6848   -2.5899    1.8568 H   0  0  0  0  0  0
    0.9795   -1.3744    1.4270 H   0  0  0  0  0  0
    0.7586   -2.3514   -0.0444 H   0  0  0  0  0  0
    2.3102   -2.4766   -1.3437 H   0  0  0  0  0  0
    4.7208   -2.9430   -1.4176 H   0  0  0  0  0  0
    6.3319   -1.3410   -0.5469 H   0  0  0  0  0  0
    1.9510    1.8179    0.6814 H   0  0  0  0  0  0
    3.5744    3.4095    1.5573 H   0  0  0  0  0  0
    5.9820    2.9214    1.4846 H   0  0  0  0  0  0
    6.8046    0.8359    0.5321 H   0  0  0  0  0  0
    1.0897    0.2919   -2.3884 H   0  0  0  0  0  0
    0.9585   -1.4639   -2.1274 H   0  0  0  0  0  0
   -0.4219   -0.4034   -1.7561 H   0  0  0  0  0  0
   -7.2003    1.4950   -0.3212 H   0  0  0  0  0  0
   -7.3697    0.1136    0.6201 H   0  0  0  0  0  0
  1  2  1  0  0  0
  1  6  2  0  0  0
  2  3  2  0  0  0
  2 25  1  0  0  0
  3  4  1  0  0  0
  4  5  2  0  0  0
  4 11  1  0  0  0
  5  6  1  0  0  0
  5  8  1  0  0  0
  6  7  1  0  0  0
  7 26  1  0  0  0
  7 27  1  0  0  0
  8  9  2  0  0  0
  9 10  1  0  0  0
  9 12  1  0  0  0
 10 11  2  0  0  0
 10 28  1  0  0  0
 11 29  1  0  0  0
 12 13  1  0  0  0
 12 30  1  0  0  0
 12 31  1  0  0  0
 13 14  1  0  0  0
 13 24  1  0  0  0
 14 15  1  0  0  0
 14 19  2  0  0  0
 15 16  2  0  0  0
 15 32  1  0  0  0
 16 17  1  0  0  0
 16 33  1  0  0  0
 17 18  2  0  0  0
 17 34  1  0  0  0
 18 19  1  0  0  0
 18 23  1  0  0  0
 19 20  1  0  0  0
 20 21  2  0  0  0
 20 35  1  0  0  0
 21 22  1  0  0  0
 21 36  1  0  0  0
 22 23  2  0  0  0
 22 37  1  0  0  0
 23 38  1  0  0  0
 24 39  1  0  0  0
 24 40  1  0  0  0
 24 41  1  0  0  0
 25 42  1  0  0  0
 25 43  1  0  0  0
M  END
>  <ACTIVITY>
8.13668

>  <set_rl>
1

>  <Min_dist>
999.9

>  <Avg_dist>
999.9

>  <PC_uM>
0.04

>  <TG_uM>
0.018

>  <RL_uM>
0.0073

$$$$
21-40
  Cerius2 12110214553D 1   1.00000                          
 
 39 41  0  0  0  0  0  0  0  0999 V2000
   -4.9387    1.5535    0.0008 N   0  0  0  0  0  0
   -5.7014    0.4644    0.0009 C   0  0  0  0  0  0
   -5.2155   -0.7603    0.0000 N   0  0  0  0  0  0
   -3.8940   -0.9772   -0.0009 C   0  0  0  0  0  0
   -3.0177    0.1338   -0.0010 C   0  0  0  0  0  0
   -3.6162    1.4700    0.0000 C   0  0  0  0  0  0
   -2.8304    2.6029   -0.0005 N   0  0  0  0  0  0
   -1.7009   -0.0497   -0.0009 N   0  0  0  0  0  0
   -1.1840   -1.2562   -0.0008 C   0  0  0  0  0  0
   -1.9863   -2.3951   -0.0012 C   0  0  0  0  0  0
   -3.3477   -2.2719   -0.0013 C   0  0  0  0  0  0
    0.3148   -1.4133   -0.0007 C   0  0  0  0  0  0
    0.9445   -0.0905   -0.0009 N   0  0  0  0  0  0
    2.3290    0.0195   -0.0008 C   0  0  0  0  0  0
    2.9257    1.2784   -0.0010 C   0  0  0  0  0  0
    4.2865    1.3911   -0.0005 C   0  0  0  0  0  0
    5.0829    0.2384    0.0001 C   0  0  0  0  0  0
    4.4786   -1.0257    0.0002 C   0  0  0  0  0  0
    3.1171   -1.1293    0.0051 C   0  0  0  0  0  0
    6.5458    0.3546    0.0001 C   0  0  0  0  0  0
    7.0672    1.4500   -0.0004 O   0  0  0  0  0  0
    7.4003   -0.8867    0.0008 C   0  0  0  0  0  0
   -7.0753    0.6253    0.0023 N   0  0  0  0  0  0
   -3.2443    3.4802    0.0001 H   0  0  0  0  0  0
   -1.8637    2.5227   -0.0015 H   0  0  0  0  0  0
   -1.5327   -3.3752   -0.0014 H   0  0  0  0  0  0
   -3.9848   -3.1440   -0.0015 H   0  0  0  0  0  0
    0.6226   -1.9621    0.8893 H   0  0  0  0  0  0
    0.6226   -1.9623   -0.8907 H   0  0  0  0  0  0
    0.3945    0.7085   -0.0010 H   0  0  0  0  0  0
    2.3111    2.1665   -0.0018 H   0  0  0  0  0  0
    4.7483    2.3675   -0.0009 H   0  0  0  0  0  0
    5.0887   -1.9168    0.0003 H   0  0  0  0  0  0
    2.6504   -2.1033    0.0056 H   0  0  0  0  0  0
    8.4528   -0.6032    0.0007 H   0  0  0  0  0  0
    7.1831   -1.4769    0.8910 H   0  0  0  0  0  0
    7.1832   -1.4777   -0.8889 H   0  0  0  0  0  0
   -7.4593    1.5160    0.0032 H   0  0  0  0  0  0
   -7.6548   -0.1526    0.0023 H   0  0  0  0  0  0
  1  2  1  0  0  0
  1  6  2  0  0  0
  2  3  2  0  0  0
  2 23  1  0  0  0
  3  4  1  0  0  0
  4  5  2  0  0  0
  4 11  1  0  0  0
  5  6  1  0  0  0
  5  8  1  0  0  0
  6  7  1  0  0  0
  7 24  1  0  0  0
  7 25  1  0  0  0
  8  9  2  0  0  0
  9 10  1  0  0  0
  9 12  1  0  0  0
 10 11  2  0  0  0
 10 26  1  0  0  0
 11 27  1  0  0  0
 12 13  1  0  0  0
 12 28  1  0  0  0
 12 29  1  0  0  0
 13 14  1  0  0  0
 13 30  1  0  0  0
 14 15  1  0  0  0
 14 19  2  0  0  0
 15 16  2  0  0  0
 15 31  1  0  0  0
 16 17  1  0  0  0
 16 32  1  0  0  0
 17 18  2  0  0  0
 17 20  1  0  0  0
 18 19  1  0  0  0
 18 33  1  0  0  0
 19 34  1  0  0  0
 20 21  2  0  0  0
 20 22  1  0  0  0
 22 35  1  0  0  0
 22 36  1  0  0  0
 22 37  1  0  0  0
 23 38  1  0  0  0
 23 39  1  0  0  0
M  END
>  <ACTIVITY>
8.60206

>  <set_rl>
1

>  <Min_dist>
999.9

>  <Avg_dist>
999.9

>  <PC_uM>
0.41

>  <TG_uM>
0.027

>  <RL_uM>
0.0025

$$$$
21-42
  Cerius2 12110214553D 1   1.00000                          
 
 41 43  0  0  0  0  0  0  0  0999 V2000
   -3.6035    1.7728   -1.1811 N   0  0  0  0  0  0
   -4.5165    1.6525   -0.2219 C   0  0  0  0  0  0
   -4.4076    0.8032    0.7795 N   0  0  0  0  0  0
   -3.3442   -0.0037    0.8859 C   0  0  0  0  0  0
   -2.3298    0.0668   -0.0981 C   0  0  0  0  0  0
   -2.5063    1.0297   -1.1867 C   0  0  0  0  0  0
   -1.5632    1.1585   -2.1842 N   0  0  0  0  0  0
   -1.2617   -0.7209   -0.0188 N   0  0  0  0  0  0
   -1.1217   -1.5773    0.9660 C   0  0  0  0  0  0
   -2.0806   -1.7008    1.9690 C   0  0  0  0  0  0
   -3.2014   -0.9185    1.9430 C   0  0  0  0  0  0
    0.1068   -2.4489    1.0127 C   0  0  0  0  0  0
    0.9648   -2.1453   -0.1353 N   0  0  0  0  0  0
    1.9419   -1.1630   -0.0317 C   0  0  0  0  0  0
    2.7569   -0.8759   -1.1248 C   0  0  0  0  0  0
    3.7183    0.0887   -1.0273 C   0  0  0  0  0  0
    3.8844    0.7906    0.1740 C   0  0  0  0  0  0
    3.0624    0.4990    1.2706 C   0  0  0  0  0  0
    2.1002   -0.4638    1.1630 C   0  0  0  0  0  0
    4.9168    1.8278    0.2834 C   0  0  0  0  0  0
    5.6278    2.0786   -0.6669 O   0  0  0  0  0  0
    5.0936    2.5814    1.5765 C   0  0  0  0  0  0
    0.8055   -2.8226   -1.2980 C   0  0  0  0  0  0
    0.6675   -3.4094   -2.3054 C   0  0  0  0  0  0
   -5.6378    2.4607   -0.2781 N   0  0  0  0  0  0
   -1.6968    1.8018   -2.8978 H   0  0  0  0  0  0
   -0.7662    0.6058   -2.1724 H   0  0  0  0  0  0
   -1.9386   -2.4146    2.7670 H   0  0  0  0  0  0
   -3.9548   -1.0010    2.7124 H   0  0  0  0  0  0
    0.6536   -2.2569    1.9359 H   0  0  0  0  0  0
   -0.1899   -3.4971    0.9775 H   0  0  0  0  0  0
    2.6281   -1.4174   -2.0503 H   0  0  0  0  0  0
    4.3501    0.3101   -1.8749 H   0  0  0  0  0  0
    3.1873    1.0374    2.1984 H   0  0  0  0  0  0
    1.4661   -0.6892    2.0077 H   0  0  0  0  0  0
    5.9014    3.3051    1.4677 H   0  0  0  0  0  0
    4.1688    3.1033    1.8222 H   0  0  0  0  0  0
    5.3385    1.8808    2.3747 H   0  0  0  0  0  0
    0.5441   -3.9342   -3.2064 H   0  0  0  0  0  0
   -5.7426    3.0948   -1.0046 H   0  0  0  0  0  0
   -6.3192    2.3932    0.4089 H   0  0  0  0  0  0
  1  2  1  0  0  0
  1  6  2  0  0  0
  2  3  2  0  0  0
  2 25  1  0  0  0
  3  4  1  0  0  0
  4  5  2  0  0  0
  4 11  1  0  0  0
  5  6  1  0  0  0
  5  8  1  0  0  0
  6  7  1  0  0  0
  7 26  1  0  0  0
  7 27  1  0  0  0
  8  9  2  0  0  0
  9 10  1  0  0  0
  9 12  1  0  0  0
 10 11  2  0  0  0
 10 28  1  0  0  0
 11 29  1  0  0  0
 12 13  1  0  0  0
 12 30  1  0  0  0
 12 31  1  0  0  0
 13 14  1  0  0  0
 13 23  1  0  0  0
 14 15  1  0  0  0
 14 19  2  0  0  0
 15 16  2  0  0  0
 15 32  1  0  0  0
 16 17  1  0  0  0
 16 33  1  0  0  0
 17 18  2  0  0  0
 17 20  1  0  0  0
 18 19  1  0  0  0
 18 34  1  0  0  0
 19 35  1  0  0  0
 20 21  2  0  0  0
 20 22  1  0  0  0
 22 36  1  0  0  0
 22 37  1  0  0  0
 22 38  1  0  0  0
 23 24  3  0  0  0
 24 39  1  0  0  0
 25 40  1  0  0  0
 25 41  1  0  0  0
M  END
>  <ACTIVITY>
7.82391

>  <set_rl>
1

>  <Min_dist>
999.9

>  <Avg_dist>
999.9

>  <PC_uM>
0.22

>  <TG_uM>
0.02

>  <RL_uM>
0.015

$$$$
21-43
  Cerius2 12110214553D 1   1.00000                          
 
 42 44  0  0  0  0  0  0  0  0999 V2000
   -4.1796    1.9049   -1.2542 N   0  0  0  0  0  0
   -4.9925    2.0307   -0.2096 C   0  0  0  0  0  0
   -4.9250    1.2609    0.8577 N   0  0  0  0  0  0
   -4.0104    0.2869    0.9478 C   0  0  0  0  0  0
   -3.1094    0.0920   -0.1257 C   0  0  0  0  0  0
   -3.2330    0.9780   -1.2846 C   0  0  0  0  0  0
   -2.3933    0.8521   -2.3709 N   0  0  0  0  0  0
   -2.1899   -0.8663   -0.0649 N   0  0  0  0  0  0
   -2.0948   -1.6499    0.9839 C   0  0  0  0  0  0
   -2.9486   -1.5154    2.0765 C   0  0  0  0  0  0
   -3.9149   -0.5486    2.0737 C   0  0  0  0  0  0
   -1.0360   -2.7221    1.0064 C   0  0  0  0  0  0
   -0.2656   -2.6738   -0.2388 N   0  0  0  0  0  0
    0.8703   -1.8791   -0.3222 C   0  0  0  0  0  0
    1.6014   -1.8347   -1.5073 C   0  0  0  0  0  0
    2.7186   -1.0544   -1.5938 C   0  0  0  0  0  0
    3.1294   -0.2977   -0.4885 C   0  0  0  0  0  0
    2.3911   -0.3453    0.7014 C   0  0  0  0  0  0
    1.2722   -1.1242    0.7775 C   0  0  0  0  0  0
    4.3297    0.5420   -0.5766 C   0  0  0  0  0  0
    4.9678    0.5817   -1.6075 O   0  0  0  0  0  0
    4.7696    1.3551    0.6136 C   0  0  0  0  0  0
    5.9291    2.0673    0.2890 F   0  0  0  0  0  0
    3.7551    2.2515    0.9666 F   0  0  0  0  0  0
    5.0327    0.5012    1.6901 F   0  0  0  0  0  0
   -0.6935   -3.4638   -1.3960 C   0  0  0  0  0  0
   -5.9582    3.0205   -0.2448 N   0  0  0  0  0  0
   -2.4897    1.4481   -3.1301 H   0  0  0  0  0  0
   -1.7061    0.1676   -2.3759 H   0  0  0  0  0  0
   -2.8470   -2.1750    2.9256 H   0  0  0  0  0  0
   -4.5852   -0.4302    2.9122 H   0  0  0  0  0  0
   -0.3694   -2.5567    1.8527 H   0  0  0  0  0  0
   -1.5100   -3.6988    1.1027 H   0  0  0  0  0  0
    1.2843   -2.4186   -2.3587 H   0  0  0  0  0  0
    3.2850   -1.0208   -2.5127 H   0  0  0  0  0  0
    2.7045    0.2361    1.5559 H   0  0  0  0  0  0
    0.7023   -1.1612    1.6942 H   0  0  0  0  0  0
   -1.5969   -4.0188   -1.1430 H   0  0  0  0  0  0
   -0.8987   -2.7983   -2.2344 H   0  0  0  0  0  0
    0.0967   -4.1622   -1.6714 H   0  0  0  0  0  0
   -6.0294    3.6013   -1.0184 H   0  0  0  0  0  0
   -6.5641    3.1338    0.5041 H   0  0  0  0  0  0
  1  2  1  0  0  0
  1  6  2  0  0  0
  2  3  2  0  0  0
  2 27  1  0  0  0
  3  4  1  0  0  0
  4  5  2  0  0  0
  4 11  1  0  0  0
  5  6  1  0  0  0
  5  8  1  0  0  0
  6  7  1  0  0  0
  7 28  1  0  0  0
  7 29  1  0  0  0
  8  9  2  0  0  0
  9 10  1  0  0  0
  9 12  1  0  0  0
 10 11  2  0  0  0
 10 30  1  0  0  0
 11 31  1  0  0  0
 12 13  1  0  0  0
 12 32  1  0  0  0
 12 33  1  0  0  0
 13 14  1  0  0  0
 13 26  1  0  0  0
 14 15  1  0  0  0
 14 19  2  0  0  0
 15 16  2  0  0  0
 15 34  1  0  0  0
 16 17  1  0  0  0
 16 35  1  0  0  0
 17 18  2  0  0  0
 17 20  1  0  0  0
 18 19  1  0  0  0
 18 36  1  0  0  0
 19 37  1  0  0  0
 20 21  2  0  0  0
 20 22  1  0  0  0
 22 23  1  0  0  0
 22 24  1  0  0  0
 22 25  1  0  0  0
 26 38  1  0  0  0
 26 39  1  0  0  0
 26 40  1  0  0  0
 27 41  1  0  0  0
 27 42  1  0  0  0
M  END
>  <ACTIVITY>
7.49485

>  <set_rl>
1

>  <Min_dist>
999.9

>  <Avg_dist>
999.9

>  <PC_uM>
0.25

>  <TG_uM>
0.046

>  <RL_uM>
0.032

$$$$
22-6
  Cerius2 12110214553D 1   1.00000                          
 
 38 40  0  0  0  0  0  0  0  0999 V2000
   -3.2763    2.1260    0.0026 N   0  0  0  0  0  0
   -4.4037    1.4351   -0.1417 C   0  0  0  0  0  0
   -4.4320    0.1164   -0.1582 N   0  0  0  0  0  0
   -3.2996   -0.5883   -0.0275 C   0  0  0  0  0  0
   -2.0761    0.1014    0.1281 C   0  0  0  0  0  0
   -2.1072    1.5205    0.1388 C   0  0  0  0  0  0
   -0.9460    2.2514    0.2867 N   0  0  0  0  0  0
   -0.9356   -0.5755    0.2605 N   0  0  0  0  0  0
   -0.9205   -1.8938    0.2497 C   0  0  0  0  0  0
   -2.0995   -2.6376    0.0991 C   0  0  0  0  0  0
   -3.2945   -1.9959   -0.0403 C   0  0  0  0  0  0
    0.6150   -2.7395    0.4280 S   0  0  0  0  0  0
    1.7245   -1.3713    0.3868 C   0  0  0  0  0  0
    2.1480   -0.7845    1.5726 C   0  0  0  0  0  0
    3.0180    0.2885    1.5418 C   0  0  0  0  0  0
    3.4699    0.7816    0.3283 C   0  0  0  0  0  0
    3.0476    0.1962   -0.8614 C   0  0  0  0  0  0
    2.1801   -0.8830   -0.8308 C   0  0  0  0  0  0
    3.4900    0.6803   -2.0528 O   0  0  0  0  0  0
    2.8876   -0.1190   -3.0727 C   0  0  0  0  0  0
    4.3263    1.8387    0.2999 O   0  0  0  0  0  0
    4.5682    2.2109    1.6582 C   0  0  0  0  0  0
   -5.5945    2.1273   -0.2796 N   0  0  0  0  0  0
   -0.9805    3.2208    0.2924 H   0  0  0  0  0  0
   -0.0953    1.7958    0.3850 H   0  0  0  0  0  0
   -2.0611   -3.7169    0.0930 H   0  0  0  0  0  0
   -4.2125   -2.5527   -0.1570 H   0  0  0  0  0  0
    1.7967   -1.1672    2.5194 H   0  0  0  0  0  0
    3.3460    0.7436    2.4647 H   0  0  0  0  0  0
    1.8515   -1.3388   -1.7531 H   0  0  0  0  0  0
    3.2144    0.2335   -4.0510 H   0  0  0  0  0  0
    3.1861   -1.1593   -2.9429 H   0  0  0  0  0  0
    1.8027   -0.0408   -3.0022 H   0  0  0  0  0  0
    5.2528    3.0586    1.6863 H   0  0  0  0  0  0
    3.6266    2.4884    2.1321 H   0  0  0  0  0  0
    5.0096    1.3696    2.1924 H   0  0  0  0  0  0
   -5.5956    3.0973   -0.2698 H   0  0  0  0  0  0
   -6.4279    1.6424   -0.3860 H   0  0  0  0  0  0
  1  2  1  0  0  0
  1  6  2  0  0  0
  2  3  2  0  0  0
  2 23  1  0  0  0
  3  4  1  0  0  0
  4  5  2  0  0  0
  4 11  1  0  0  0
  5  6  1  0  0  0
  5  8  1  0  0  0
  6  7  1  0  0  0
  7 24  1  0  0  0
  7 25  1  0  0  0
  8  9  2  0  0  0
  9 10  1  0  0  0
  9 12  1  0  0  0
 10 11  2  0  0  0
 10 26  1  0  0  0
 11 27  1  0  0  0
 12 13  1  0  0  0
 13 14  1  0  0  0
 13 18  2  0  0  0
 14 15  2  0  0  0
 14 28  1  0  0  0
 15 16  1  0  0  0
 15 29  1  0  0  0
 16 17  2  0  0  0
 16 21  1  0  0  0
 17 18  1  0  0  0
 17 19  1  0  0  0
 18 30  1  0  0  0
 19 20  1  0  0  0
 20 31  1  0  0  0
 20 32  1  0  0  0
 20 33  1  0  0  0
 21 22  1  0  0  0
 22 34  1  0  0  0
 22 35  1  0  0  0
 22 36  1  0  0  0
 23 37  1  0  0  0
 23 38  1  0  0  0
M  END
>  <ACTIVITY>
7.74473

>  <set_rl>
1

>  <Min_dist>
999.9

>  <Avg_dist>
999.9

>  <PC_uM>
0.086

>  <TG_uM>
0.019

>  <RL_uM>
0.018

$$$$
22-7
  Cerius2 12110214553D 1   1.00000                          
 
 36 38  0  0  0  0  0  0  0  0999 V2000
   -4.1458    1.0446   -0.2149 N   0  0  0  0  0  0
   -4.5365    0.1446    0.6826 C   0  0  0  0  0  0
   -3.7608   -0.8266    1.1195 N   0  0  0  0  0  0
   -2.5062   -0.9611    0.6709 C   0  0  0  0  0  0
   -2.0189   -0.0401   -0.2864 C   0  0  0  0  0  0
   -2.9269    1.0175   -0.7341 C   0  0  0  0  0  0
   -2.5276    1.9532   -1.6647 N   0  0  0  0  0  0
   -0.7774   -0.1473   -0.7500 N   0  0  0  0  0  0
    0.0217   -1.1024   -0.3350 C   0  0  0  0  0  0
   -0.3913   -2.0439    0.6051 C   0  0  0  0  0  0
   -1.6566   -1.9866    1.1193 C   0  0  0  0  0  0
    1.6572   -1.1964   -0.9837 S   0  0  0  0  0  0
    2.0701   -2.5431   -0.7962 O   0  0  0  0  0  0
    1.6183   -0.5140   -2.2295 O   0  0  0  0  0  0
    2.6946   -0.2278    0.0605 C   0  0  0  0  0  0
    3.7585   -0.8167    0.7165 C   0  0  0  0  0  0
    4.5727   -0.0573    1.5359 C   0  0  0  0  0  0
    4.3251    1.2932    1.7008 C   0  0  0  0  0  0
    3.2628    1.8866    1.0472 C   0  0  0  0  0  0
    2.4472    1.1277    0.2201 C   0  0  0  0  0  0
    1.4017    1.7093   -0.4244 O   0  0  0  0  0  0
    1.4039    3.0893   -0.0535 C   0  0  0  0  0  0
   -5.8229    0.2328    1.1833 N   0  0  0  0  0  0
   -3.1427    2.6469   -1.9497 H   0  0  0  0  0  0
   -1.6315    1.9177   -2.0344 H   0  0  0  0  0  0
    0.2882   -2.8190    0.9276 H   0  0  0  0  0  0
   -1.9932   -2.7082    1.8490 H   0  0  0  0  0  0
    3.9539   -1.8712    0.5893 H   0  0  0  0  0  0
    5.4034   -0.5196    2.0483 H   0  0  0  0  0  0
    4.9627    1.8843    2.3415 H   0  0  0  0  0  0
    3.0696    2.9413    1.1766 H   0  0  0  0  0  0
    0.5781    3.6000   -0.5489 H   0  0  0  0  0  0
    1.2886    3.1754    1.0269 H   0  0  0  0  0  0
    2.3467    3.5453   -0.3558 H   0  0  0  0  0  0
   -6.4147    0.9385    0.8788 H   0  0  0  0  0  0
   -6.1333   -0.4111    1.8391 H   0  0  0  0  0  0
  1  2  1  0  0  0
  1  6  2  0  0  0
  2  3  2  0  0  0
  2 23  1  0  0  0
  3  4  1  0  0  0
  4  5  2  0  0  0
  4 11  1  0  0  0
  5  6  1  0  0  0
  5  8  1  0  0  0
  6  7  1  0  0  0
  7 24  1  0  0  0
  7 25  1  0  0  0
  8  9  2  0  0  0
  9 10  1  0  0  0
  9 12  1  0  0  0
 10 11  2  0  0  0
 10 26  1  0  0  0
 11 27  1  0  0  0
 12 13  2  0  0  0
 12 14  2  0  0  0
 12 15  1  0  0  0
 15 16  1  0  0  0
 15 20  2  0  0  0
 16 17  2  0  0  0
 16 28  1  0  0  0
 17 18  1  0  0  0
 17 29  1  0  0  0
 18 19  2  0  0  0
 18 30  1  0  0  0
 19 20  1  0  0  0
 19 31  1  0  0  0
 20 21  1  0  0  0
 21 22  1  0  0  0
 22 32  1  0  0  0
 22 33  1  0  0  0
 22 34  1  0  0  0
 23 35  1  0  0  0
 23 36  1  0  0  0
M  END
>  <ACTIVITY>
5.85387

>  <set_rl>
1

>  <Min_dist>
999.9

>  <Avg_dist>
999.9

>  <PC_uM>
3.2

>  <TG_uM>
0.21

>  <RL_uM>
1.4

$$$$
22-11
  Cerius2 12110214553D 1   1.00000                          
 
 35 37  0  0  0  0  0  0  0  0999 V2000
   -3.7129    1.3318   -0.3837 N   0  0  0  0  0  0
   -4.4541    0.2381   -0.2300 C   0  0  0  0  0  0
   -3.9298   -0.9472    0.0153 N   0  0  0  0  0  0
   -2.6017   -1.0931    0.1202 C   0  0  0  0  0  0
   -1.7723    0.0403   -0.0355 C   0  0  0  0  0  0
   -2.3928    1.2898   -0.2980 C   0  0  0  0  0  0
   -1.6376    2.4333   -0.4600 N   0  0  0  0  0  0
   -0.4484   -0.0773    0.0645 N   0  0  0  0  0  0
    0.1154   -1.2431    0.3090 C   0  0  0  0  0  0
   -0.6504   -2.4057    0.4738 C   0  0  0  0  0  0
   -2.0096   -2.3429    0.3816 C   0  0  0  0  0  0
    1.4996   -1.3218    0.4051 N   0  0  0  0  0  0
    2.2704   -0.1533    0.3822 C   0  0  0  0  0  0
    1.7531    1.0313    0.8864 C   0  0  0  0  0  0
    2.5161    2.1834    0.8625 C   0  0  0  0  0  0
    3.7949    2.1592    0.3372 C   0  0  0  0  0  0
    4.3171    0.9823   -0.1670 C   0  0  0  0  0  0
    3.5612   -0.1782   -0.1417 C   0  0  0  0  0  0
    4.0737   -1.3365   -0.6368 O   0  0  0  0  0  0
    5.3908   -1.0387   -1.1045 C   0  0  0  0  0  0
   -5.8304    0.3481   -0.3308 N   0  0  0  0  0  0
   -2.0735    3.2811   -0.6390 H   0  0  0  0  0  0
   -0.6708    2.3893   -0.3948 H   0  0  0  0  0  0
   -0.1648   -3.3496    0.6731 H   0  0  0  0  0  0
   -2.6153   -3.2283    0.5061 H   0  0  0  0  0  0
    1.9316   -2.1863    0.4881 H   0  0  0  0  0  0
    0.7545    1.0531    1.2969 H   0  0  0  0  0  0
    2.1123    3.1051    1.2549 H   0  0  0  0  0  0
    4.3873    3.0620    0.3204 H   0  0  0  0  0  0
    5.3163    0.9669   -0.5766 H   0  0  0  0  0  0
    5.8443   -1.9419   -1.5127 H   0  0  0  0  0  0
    5.3366   -0.2763   -1.8816 H   0  0  0  0  0  0
    5.9960   -0.6708   -0.2760 H   0  0  0  0  0  0
   -6.2361    1.2107   -0.5104 H   0  0  0  0  0  0
   -6.3890   -0.4374   -0.2219 H   0  0  0  0  0  0
  1  2  1  0  0  0
  1  6  2  0  0  0
  2  3  2  0  0  0
  2 21  1  0  0  0
  3  4  1  0  0  0
  4  5  2  0  0  0
  4 11  1  0  0  0
  5  6  1  0  0  0
  5  8  1  0  0  0
  6  7  1  0  0  0
  7 22  1  0  0  0
  7 23  1  0  0  0
  8  9  2  0  0  0
  9 10  1  0  0  0
  9 12  1  0  0  0
 10 11  2  0  0  0
 10 24  1  0  0  0
 11 25  1  0  0  0
 12 13  1  0  0  0
 12 26  1  0  0  0
 13 14  1  0  0  0
 13 18  2  0  0  0
 14 15  2  0  0  0
 14 27  1  0  0  0
 15 16  1  0  0  0
 15 28  1  0  0  0
 16 17  2  0  0  0
 16 29  1  0  0  0
 17 18  1  0  0  0
 17 30  1  0  0  0
 18 19  1  0  0  0
 19 20  1  0  0  0
 20 31  1  0  0  0
 20 32  1  0  0  0
 20 33  1  0  0  0
 21 34  1  0  0  0
 21 35  1  0  0  0
M  END
>  <ACTIVITY>
6.58503

>  <set_rl>
1

>  <Min_dist>
999.9

>  <Avg_dist>
999.9

>  <PC_uM>
8.7

>  <TG_uM>
0.46

>  <RL_uM>
0.26

$$$$
22-15
  Cerius2 12110214553D 1   1.00000                          
 
 39 41  0  0  0  0  0  0  0  0999 V2000
   -3.9222   -1.6450    0.5223 N   0  0  0  0  0  0
   -4.8762   -0.7417    0.3139 C   0  0  0  0  0  0
   -4.6121    0.5081   -0.0148 N   0  0  0  0  0  0
   -3.3442    0.9201   -0.1526 C   0  0  0  0  0  0
   -2.2957   -0.0033    0.0590 C   0  0  0  0  0  0
   -2.6403   -1.3348    0.4102 C   0  0  0  0  0  0
   -1.6622   -2.2830    0.6305 N   0  0  0  0  0  0
   -1.0260    0.3805   -0.0721 N   0  0  0  0  0  0
   -0.7193    1.6197   -0.3995 C   0  0  0  0  0  0
   -1.7117    2.5841   -0.6232 C   0  0  0  0  0  0
   -3.0274    2.2460   -0.5027 C   0  0  0  0  0  0
    0.6176    1.9783   -0.5254 N   0  0  0  0  0  0
    1.6163    1.0027   -0.4256 C   0  0  0  0  0  0
    1.4173   -0.2541   -0.9820 C   0  0  0  0  0  0
    2.4026   -1.2183   -0.8847 C   0  0  0  0  0  0
    3.5908   -0.9333   -0.2316 C   0  0  0  0  0  0
    3.7931    0.3248    0.3273 C   0  0  0  0  0  0
    2.8082    1.2932    0.2245 C   0  0  0  0  0  0
    4.9590    0.6051    0.9688 O   0  0  0  0  0  0
    4.8648    1.9560    1.4253 C   0  0  0  0  0  0
    4.5598   -1.8840   -0.1364 O   0  0  0  0  0  0
    4.0616   -3.0492   -0.7968 C   0  0  0  0  0  0
   -6.1986   -1.1289    0.4468 N   0  0  0  0  0  0
   -1.9107   -3.1895    0.8700 H   0  0  0  0  0  0
   -0.7262   -2.0429    0.5459 H   0  0  0  0  0  0
   -1.4348    3.5933   -0.8902 H   0  0  0  0  0  0
   -3.8053    2.9760   -0.6713 H   0  0  0  0  0  0
    0.8585    2.9047   -0.6823 H   0  0  0  0  0  0
    0.4915   -0.4784   -1.4908 H   0  0  0  0  0  0
    2.2460   -2.1951   -1.3180 H   0  0  0  0  0  0
    2.9634    2.2703    0.6577 H   0  0  0  0  0  0
    5.7816    2.2274    1.9486 H   0  0  0  0  0  0
    4.7239    2.6190    0.5716 H   0  0  0  0  0  0
    4.0171    2.0520    2.1037 H   0  0  0  0  0  0
    4.8075   -3.8424   -0.7462 H   0  0  0  0  0  0
    3.1454   -3.3802   -0.3078 H   0  0  0  0  0  0
    3.8518   -2.8137   -1.8402 H   0  0  0  0  0  0
   -6.4144   -2.0434    0.6875 H   0  0  0  0  0  0
   -6.9094   -0.4856    0.2991 H   0  0  0  0  0  0
  1  2  1  0  0  0
  1  6  2  0  0  0
  2  3  2  0  0  0
  2 23  1  0  0  0
  3  4  1  0  0  0
  4  5  2  0  0  0
  4 11  1  0  0  0
  5  6  1  0  0  0
  5  8  1  0  0  0
  6  7  1  0  0  0
  7 24  1  0  0  0
  7 25  1  0  0  0
  8  9  2  0  0  0
  9 10  1  0  0  0
  9 12  1  0  0  0
 10 11  2  0  0  0
 10 26  1  0  0  0
 11 27  1  0  0  0
 12 13  1  0  0  0
 12 28  1  0  0  0
 13 14  1  0  0  0
 13 18  2  0  0  0
 14 15  2  0  0  0
 14 29  1  0  0  0
 15 16  1  0  0  0
 15 30  1  0  0  0
 16 17  2  0  0  0
 16 21  1  0  0  0
 17 18  1  0  0  0
 17 19  1  0  0  0
 18 31  1  0  0  0
 19 20  1  0  0  0
 20 32  1  0  0  0
 20 33  1  0  0  0
 20 34  1  0  0  0
 21 22  1  0  0  0
 22 35  1  0  0  0
 22 36  1  0  0  0
 22 37  1  0  0  0
 23 38  1  0  0  0
 23 39  1  0  0  0
M  END
>  <ACTIVITY>
5.95861

>  <set_rl>
1

>  <Min_dist>
999.9

>  <Avg_dist>
999.9

>  <PC_uM>
40.4

>  <TG_uM>
0.68

>  <RL_uM>
1.1

$$$$
22-10
  Cerius2 12110214553D 1   1.00000                          
 
 31 33  0  0  0  0  0  0  0  0999 V2000
   -3.0241    1.5413    0.1448 N   0  0  0  0  0  0
   -3.8664    0.5165    0.0464 C   0  0  0  0  0  0
   -3.4567   -0.7338   -0.0475 N   0  0  0  0  0  0
   -2.1476   -1.0208   -0.0469 C   0  0  0  0  0  0
   -1.2137    0.0347    0.0556 C   0  0  0  0  0  0
   -1.7130    1.3599    0.1540 C   0  0  0  0  0  0
   -0.8521    2.4334    0.2562 N   0  0  0  0  0  0
    0.0939   -0.2234    0.0589 N   0  0  0  0  0  0
    0.5447   -1.4583   -0.0326 C   0  0  0  0  0  0
   -0.3285   -2.5499   -0.1369 C   0  0  0  0  0  0
   -1.6766   -2.3434   -0.1451 C   0  0  0  0  0  0
    1.9165   -1.6834   -0.0259 N   0  0  0  0  0  0
    2.8021   -0.6025   -0.0445 C   0  0  0  0  0  0
    4.0187   -0.6877    0.6206 C   0  0  0  0  0  0
    4.8917    0.3822    0.5998 C   0  0  0  0  0  0
    4.5559    1.5374   -0.0823 C   0  0  0  0  0  0
    3.3455    1.6257   -0.7451 C   0  0  0  0  0  0
    2.4703    0.5575   -0.7331 C   0  0  0  0  0  0
   -5.2269    0.7722    0.0429 N   0  0  0  0  0  0
   -1.2058    3.3341    0.3228 H   0  0  0  0  0  0
    0.1068    2.2873    0.2615 H   0  0  0  0  0  0
    0.0656   -3.5527   -0.2110 H   0  0  0  0  0  0
   -2.3641   -3.1725   -0.2245 H   0  0  0  0  0  0
    2.2590   -2.5908   -0.0083 H   0  0  0  0  0  0
    4.2813   -1.5895    1.1538 H   0  0  0  0  0  0
    5.8375    0.3167    1.1170 H   0  0  0  0  0  0
    5.2405    2.3726   -0.0970 H   0  0  0  0  0  0
    3.0860    2.5296   -1.2762 H   0  0  0  0  0  0
    1.5252    0.6270   -1.2512 H   0  0  0  0  0  0
   -5.5490    1.6846    0.1113 H   0  0  0  0  0  0
   -5.8580    0.0391   -0.0280 H   0  0  0  0  0  0
  1  2  1  0  0  0
  1  6  2  0  0  0
  2  3  2  0  0  0
  2 19  1  0  0  0
  3  4  1  0  0  0
  4  5  2  0  0  0
  4 11  1  0  0  0
  5  6  1  0  0  0
  5  8  1  0  0  0
  6  7  1  0  0  0
  7 20  1  0  0  0
  7 21  1  0  0  0
  8  9  2  0  0  0
  9 10  1  0  0  0
  9 12  1  0  0  0
 10 11  2  0  0  0
 10 22  1  0  0  0
 11 23  1  0  0  0
 12 13  1  0  0  0
 12 24  1  0  0  0
 13 14  1  0  0  0
 13 18  2  0  0  0
 14 15  2  0  0  0
 14 25  1  0  0  0
 15 16  1  0  0  0
 15 26  1  0  0  0
 16 17  2  0  0  0
 16 27  1  0  0  0
 17 18  1  0  0  0
 17 28  1  0  0  0
 18 29  1  0  0  0
 19 30  1  0  0  0
 19 31  1  0  0  0
M  END
>  <ACTIVITY>
6.36653

>  <set_rl>
1

>  <Min_dist>
999.9

>  <Avg_dist>
999.9

>  <PC_uM>
8.3

>  <TG_uM>
0.3

>  <RL_uM>
0.43

$$$$
22-18
  Cerius2 12110214553D 1   1.00000                          
 
 34 36  0  0  0  0  0  0  0  0999 V2000
   -3.6767    1.1415   -0.3722 N   0  0  0  0  0  0
   -4.1178    0.1932    0.4497 C   0  0  0  0  0  0
   -3.3474   -0.7850    0.8849 N   0  0  0  0  0  0
   -2.0643   -0.8585    0.5050 C   0  0  0  0  0  0
   -1.5495    0.1265   -0.3677 C   0  0  0  0  0  0
   -2.4254    1.1552   -0.8033 C   0  0  0  0  0  0
   -1.9829    2.1456   -1.6561 N   0  0  0  0  0  0
   -0.2768    0.0769   -0.7606 N   0  0  0  0  0  0
    0.5263   -0.8833   -0.3487 C   0  0  0  0  0  0
    0.0783   -1.8903    0.5174 C   0  0  0  0  0  0
   -1.2148   -1.8883    0.9508 C   0  0  0  0  0  0
    1.8468   -0.8980   -0.7829 N   0  0  0  0  0  0
    2.8124   -0.1451   -0.1091 C   0  0  0  0  0  0
    4.1079   -0.0706   -0.6050 C   0  0  0  0  0  0
    5.0595    0.6746    0.0631 C   0  0  0  0  0  0
    4.7239    1.3462    1.2244 C   0  0  0  0  0  0
    3.4353    1.2738    1.7211 C   0  0  0  0  0  0
    2.4774    0.5350    1.0549 C   0  0  0  0  0  0
    2.2262   -1.7027   -1.9468 C   0  0  0  0  0  0
   -5.4376    0.2348    0.8652 N   0  0  0  0  0  0
   -2.5913    2.8431   -1.9465 H   0  0  0  0  0  0
   -1.0635    2.1444   -1.9653 H   0  0  0  0  0  0
    0.7559   -2.6668    0.8405 H   0  0  0  0  0  0
   -1.5771   -2.6560    1.6184 H   0  0  0  0  0  0
    4.3707   -0.5952   -1.5117 H   0  0  0  0  0  0
    6.0669    0.7326   -0.3217 H   0  0  0  0  0  0
    5.4700    1.9283    1.7449 H   0  0  0  0  0  0
    3.1768    1.7990    2.6287 H   0  0  0  0  0  0
    1.4711    0.4792    1.4431 H   0  0  0  0  0  0
    1.3341   -2.1489   -2.3864 H   0  0  0  0  0  0
    2.7155   -1.0666   -2.6844 H   0  0  0  0  0  0
    2.9113   -2.4913   -1.6356 H   0  0  0  0  0  0
   -6.0209    0.9460    0.5570 H   0  0  0  0  0  0
   -5.7792   -0.4471    1.4645 H   0  0  0  0  0  0
  1  2  1  0  0  0
  1  6  2  0  0  0
  2  3  2  0  0  0
  2 20  1  0  0  0
  3  4  1  0  0  0
  4  5  2  0  0  0
  4 11  1  0  0  0
  5  6  1  0  0  0
  5  8  1  0  0  0
  6  7  1  0  0  0
  7 21  1  0  0  0
  7 22  1  0  0  0
  8  9  2  0  0  0
  9 10  1  0  0  0
  9 12  1  0  0  0
 10 11  2  0  0  0
 10 23  1  0  0  0
 11 24  1  0  0  0
 12 13  1  0  0  0
 12 19  1  0  0  0
 13 14  1  0  0  0
 13 18  2  0  0  0
 14 15  2  0  0  0
 14 25  1  0  0  0
 15 16  1  0  0  0
 15 26  1  0  0  0
 16 17  2  0  0  0
 16 27  1  0  0  0
 17 18  1  0  0  0
 17 28  1  0  0  0
 18 29  1  0  0  0
 19 30  1  0  0  0
 19 31  1  0  0  0
 19 32  1  0  0  0
 20 33  1  0  0  0
 20 34  1  0  0  0
M  END
>  <ACTIVITY>
8.88606

>  <set_rl>
1

>  <Min_dist>
999.9

>  <Avg_dist>
999.9

>  <PC_uM>
0.0995

>  <TG_uM>
0.0022

>  <RL_uM>
0.0013

$$$$
22-13
  Cerius2 12110214553D 1   1.00000                          
 
 31 33  0  0  0  0  0  0  0  0999 V2000
   -3.4112   -1.8754   -0.1530 N   0  0  0  0  0  0
   -4.4326   -1.0305   -0.0418 C   0  0  0  0  0  0
   -4.2678    0.2741    0.0619 N   0  0  0  0  0  0
   -3.0372    0.8050    0.0588 C   0  0  0  0  0  0
   -1.9201   -0.0526   -0.0572 C   0  0  0  0  0  0
   -2.1587   -1.4477   -0.1657 C   0  0  0  0  0  0
   -1.1098   -2.3369   -0.2813 N   0  0  0  0  0  0
   -0.6855    0.4497   -0.0634 N   0  0  0  0  0  0
   -0.4774    1.7470    0.0376 C   0  0  0  0  0  0
   -1.5417    2.6515    0.1560 C   0  0  0  0  0  0
   -2.8258    2.1922    0.1672 C   0  0  0  0  0  0
    0.8263    2.2292    0.0271 N   0  0  0  0  0  0
    1.9020    1.3361    0.0318 C   0  0  0  0  0  0
    3.0759    1.6571   -0.6378 C   0  0  0  0  0  0
    4.1370    0.7732   -0.6311 C   0  0  0  0  0  0
    4.0316   -0.4314    0.0419 C   0  0  0  0  0  0
    2.8633   -0.7538    0.7099 C   0  0  0  0  0  0
    1.8009    0.1286    0.7109 C   0  0  0  0  0  0
    5.3672   -1.5403    0.0478 Cl  0  0  0  0  0  0
   -5.7194   -1.5405   -0.0352 N   0  0  0  0  0  0
   -1.2860   -3.2879   -0.3547 H   0  0  0  0  0  0
   -0.1962   -2.0109   -0.2890 H   0  0  0  0  0  0
   -1.3452    3.7103    0.2381 H   0  0  0  0  0  0
   -3.6581    2.8746    0.2573 H   0  0  0  0  0  0
    0.9898    3.1852    0.0164 H   0  0  0  0  0  0
    3.1586    2.5969   -1.1635 H   0  0  0  0  0  0
    5.0498    1.0222   -1.1518 H   0  0  0  0  0  0
    2.7836   -1.6947    1.2340 H   0  0  0  0  0  0
    0.8895   -0.1234    1.2327 H   0  0  0  0  0  0
   -5.8625   -2.4969   -0.1107 H   0  0  0  0  0  0
   -6.4781   -0.9415    0.0450 H   0  0  0  0  0  0
  1  2  1  0  0  0
  1  6  2  0  0  0
  2  3  2  0  0  0
  2 20  1  0  0  0
  3  4  1  0  0  0
  4  5  2  0  0  0
  4 11  1  0  0  0
  5  6  1  0  0  0
  5  8  1  0  0  0
  6  7  1  0  0  0
  7 21  1  0  0  0
  7 22  1  0  0  0
  8  9  2  0  0  0
  9 10  1  0  0  0
  9 12  1  0  0  0
 10 11  2  0  0  0
 10 23  1  0  0  0
 11 24  1  0  0  0
 12 13  1  0  0  0
 12 25  1  0  0  0
 13 14  1  0  0  0
 13 18  2  0  0  0
 14 15  2  0  0  0
 14 26  1  0  0  0
 15 16  1  0  0  0
 15 27  1  0  0  0
 16 17  2  0  0  0
 16 19  1  0  0  0
 17 18  1  0  0  0
 17 28  1  0  0  0
 18 29  1  0  0  0
 20 30  1  0  0  0
 20 31  1  0  0  0
M  END
>  <ACTIVITY>
6.08619

>  <set_rl>
1

>  <Min_dist>
999.9

>  <Avg_dist>
999.9

>  <PC_uM>
14.6

>  <TG_uM>
0.83

>  <RL_uM>
0.82

$$$$
14-5
  Cerius2 12110214553D 1   1.00000                          
 
 42 44  0  0  0  0  0  0  0  0999 V2000
   -4.8827    1.2984    0.0010 N   0  0  0  0  0  0
   -5.6014    0.1797    0.0007 C   0  0  0  0  0  0
   -5.0671   -1.0247   -0.0003 N   0  0  0  0  0  0
   -3.7381   -1.1887   -0.0009 C   0  0  0  0  0  0
   -2.9067   -0.0437   -0.0006 C   0  0  0  0  0  0
   -3.5579    1.2676    0.0005 C   0  0  0  0  0  0
   -2.8178    2.4309    0.0004 N   0  0  0  0  0  0
   -1.5836   -0.1746   -0.0003 N   0  0  0  0  0  0
   -1.0191   -1.3596   -0.0003 C   0  0  0  0  0  0
   -1.7754   -2.5295   -0.0011 C   0  0  0  0  0  0
   -3.1406   -2.4607   -0.0015 C   0  0  0  0  0  0
    0.4848   -1.4569    0.0001 C   0  0  0  0  0  0
    1.0613   -0.1101    0.0004 N   0  0  0  0  0  0
    2.4509    0.0562    0.0008 C   0  0  0  0  0  0
    3.2834   -1.0531    0.0009 C   0  0  0  0  0  0
    4.6596   -0.8852    0.0008 C   0  0  0  0  0  0
    5.2036    0.3907    0.0010 C   0  0  0  0  0  0
    4.3756    1.4981    0.0014 C   0  0  0  0  0  0
    3.0004    1.3362   -0.0048 C   0  0  0  0  0  0
    2.1863    2.4268   -0.0048 O   0  0  0  0  0  0
    3.0355    3.5761    0.0022 C   0  0  0  0  0  0
    5.4767   -1.9721    0.0009 O   0  0  0  0  0  0
    6.8184   -1.4802    0.0007 C   0  0  0  0  0  0
   -6.9806    0.2858    0.0018 N   0  0  0  0  0  0
   -3.2663    3.2910    0.0011 H   0  0  0  0  0  0
   -1.8487    2.3892   -0.0003 H   0  0  0  0  0  0
   -1.2831   -3.4908   -0.0014 H   0  0  0  0  0  0
   -3.7424   -3.3575   -0.0020 H   0  0  0  0  0  0
    0.8140   -1.9932    0.8901 H   0  0  0  0  0  0
    0.8144   -1.9930   -0.8899 H   0  0  0  0  0  0
    0.4799    0.6663    0.0003 H   0  0  0  0  0  0
    2.8601   -2.0467    0.0014 H   0  0  0  0  0  0
    6.2759    0.5195    0.0013 H   0  0  0  0  0  0
    4.8020    2.4904    0.0020 H   0  0  0  0  0  0
    2.4249    4.4790    0.0025 H   0  0  0  0  0  0
    3.6610    3.5602    0.8947 H   0  0  0  0  0  0
    3.6683    3.5657   -0.8852 H   0  0  0  0  0  0
    7.5132   -2.3200    0.0008 H   0  0  0  0  0  0
    6.9826   -0.8728   -0.8894 H   0  0  0  0  0  0
    6.9827   -0.8726    0.8906 H   0  0  0  0  0  0
   -7.3998    1.1605    0.0028 H   0  0  0  0  0  0
   -7.5286   -0.5146    0.0015 H   0  0  0  0  0  0
  1  2  1  0  0  0
  1  6  2  0  0  0
  2  3  2  0  0  0
  2 24  1  0  0  0
  3  4  1  0  0  0
  4  5  2  0  0  0
  4 11  1  0  0  0
  5  6  1  0  0  0
  5  8  1  0  0  0
  6  7  1  0  0  0
  7 25  1  0  0  0
  7 26  1  0  0  0
  8  9  2  0  0  0
  9 10  1  0  0  0
  9 12  1  0  0  0
 10 11  2  0  0  0
 10 27  1  0  0  0
 11 28  1  0  0  0
 12 13  1  0  0  0
 12 29  1  0  0  0
 12 30  1  0  0  0
 13 14  1  0  0  0
 13 31  1  0  0  0
 14 15  1  0  0  0
 14 19  2  0  0  0
 15 16  2  0  0  0
 15 32  1  0  0  0
 16 17  1  0  0  0
 16 22  1  0  0  0
 17 18  2  0  0  0
 17 33  1  0  0  0
 18 19  1  0  0  0
 18 34  1  0  0  0
 19 20  1  0  0  0
 20 21  1  0  0  0
 21 35  1  0  0  0
 21 36  1  0  0  0
 21 37  1  0  0  0
 22 23  1  0  0  0
 23 38  1  0  0  0
 23 39  1  0  0  0
 23 40  1  0  0  0
 24 41  1  0  0  0
 24 42  1  0  0  0
M  END
>  <ACTIVITY>
6.36653

>  <set_rl>
1

>  <Min_dist>
999.9

>  <Avg_dist>
999.9

>  <PC_uM>
1.4

>  <TG_uM>
0.1

>  <RL_uM>
0.43

$$$$
14-10
  Cerius2 12110214553D 1   1.00000                          
 
 37 39  0  0  0  0  0  0  0  0999 V2000
   -3.8795    1.6806   -1.1283 N   0  0  0  0  0  0
   -4.7061    1.5492   -0.0950 C   0  0  0  0  0  0
   -4.5217    0.6752    0.8735 N   0  0  0  0  0  0
   -3.4649   -0.1473    0.8674 C   0  0  0  0  0  0
   -2.5404   -0.0664   -0.2007 C   0  0  0  0  0  0
   -2.7981    0.9241   -1.2477 C   0  0  0  0  0  0
   -1.9449    1.0646   -2.3215 N   0  0  0  0  0  0
   -1.4810   -0.8691   -0.2340 N   0  0  0  0  0  0
   -1.2672   -1.7501    0.7151 C   0  0  0  0  0  0
   -2.1356   -1.8852    1.7961 C   0  0  0  0  0  0
   -3.2428   -1.0886    1.8869 C   0  0  0  0  0  0
   -0.0522   -2.6379    0.6334 C   0  0  0  0  0  0
    0.7056   -2.3181   -0.5790 N   0  0  0  0  0  0
    1.7080   -1.3453   -0.5401 C   0  0  0  0  0  0
    2.4273   -1.0411   -1.6891 C   0  0  0  0  0  0
    3.4175   -0.0794   -1.6485 C   0  0  0  0  0  0
    3.6944    0.5813   -0.4646 C   0  0  0  0  0  0
    2.9793    0.2806    0.6825 C   0  0  0  0  0  0
    1.9829   -0.6769    0.6456 C   0  0  0  0  0  0
    3.3294    1.1116    2.1659 Cl  0  0  0  0  0  0
    4.9407    1.7889   -0.4172 Cl  0  0  0  0  0  0
    0.4125   -3.0183   -1.8320 C   0  0  0  0  0  0
   -5.8160    2.3724   -0.0336 N   0  0  0  0  0  0
   -2.1315    1.7262   -3.0059 H   0  0  0  0  0  0
   -1.1580    0.5019   -2.3927 H   0  0  0  0  0  0
   -1.9342   -2.6194    2.5621 H   0  0  0  0  0  0
   -3.9265   -1.1798    2.7179 H   0  0  0  0  0  0
    0.5767   -2.4747    1.5086 H   0  0  0  0  0  0
   -0.3661   -3.6812    0.6010 H   0  0  0  0  0  0
    2.2124   -1.5568   -2.6134 H   0  0  0  0  0  0
    3.9767    0.1570   -2.5417 H   0  0  0  0  0  0
    1.4251   -0.9115    1.5402 H   0  0  0  0  0  0
   -0.3927   -3.7345   -1.6683 H   0  0  0  0  0  0
    0.1078   -2.2958   -2.5892 H   0  0  0  0  0  0
    1.3043   -3.5454   -2.1709 H   0  0  0  0  0  0
   -5.9753    3.0249   -0.7336 H   0  0  0  0  0  0
   -6.4351    2.2973    0.7093 H   0  0  0  0  0  0
  1  2  1  0  0  0
  1  6  2  0  0  0
  2  3  2  0  0  0
  2 23  1  0  0  0
  3  4  1  0  0  0
  4  5  2  0  0  0
  4 11  1  0  0  0
  5  6  1  0  0  0
  5  8  1  0  0  0
  6  7  1  0  0  0
  7 24  1  0  0  0
  7 25  1  0  0  0
  8  9  2  0  0  0
  9 10  1  0  0  0
  9 12  1  0  0  0
 10 11  2  0  0  0
 10 26  1  0  0  0
 11 27  1  0  0  0
 12 13  1  0  0  0
 12 28  1  0  0  0
 12 29  1  0  0  0
 13 14  1  0  0  0
 13 22  1  0  0  0
 14 15  1  0  0  0
 14 19  2  0  0  0
 15 16  2  0  0  0
 15 30  1  0  0  0
 16 17  1  0  0  0
 16 31  1  0  0  0
 17 18  2  0  0  0
 17 21  1  0  0  0
 18 19  1  0  0  0
 18 20  1  0  0  0
 19 32  1  0  0  0
 22 33  1  0  0  0
 22 34  1  0  0  0
 22 35  1  0  0  0
 23 36  1  0  0  0
 23 37  1  0  0  0
M  END
>  <ACTIVITY>
7.49485

>  <set_rl>
1

>  <Min_dist>
999.9

>  <Avg_dist>
999.9

>  <PC_uM>
0.022

>  <TG_uM>
0.098

>  <RL_uM>
0.032

$$$$
21-5
  Cerius2 12110214553D 1   1.00000                          
 
 37 39  0  0  0  0  0  0  0  0999 V2000
   -3.2088    1.6634   -0.3369 N   0  0  0  0  0  0
   -4.0661    0.8184    0.2279 C   0  0  0  0  0  0
   -3.7443   -0.4078    0.5872 N   0  0  0  0  0  0
   -2.5051   -0.8785    0.3974 C   0  0  0  0  0  0
   -1.5366   -0.0367   -0.1989 C   0  0  0  0  0  0
   -1.9529    1.3151   -0.5769 C   0  0  0  0  0  0
   -1.0686    2.1955   -1.1632 N   0  0  0  0  0  0
   -0.2977   -0.4755   -0.3994 N   0  0  0  0  0  0
    0.0561   -1.6909   -0.0523 C   0  0  0  0  0  0
   -0.8450   -2.5738    0.5388 C   0  0  0  0  0  0
   -2.1336   -2.1813    0.7710 C   0  0  0  0  0  0
    1.4723   -2.1429   -0.3000 C   0  0  0  0  0  0
    2.2295   -1.0557   -0.9253 N   0  0  0  0  0  0
    2.9112   -0.1319   -0.1298 C   0  0  0  0  0  0
    3.6296    0.8995   -0.7210 C   0  0  0  0  0  0
    4.3021    1.8115    0.0685 C   0  0  0  0  0  0
    4.2607    1.6988    1.4461 C   0  0  0  0  0  0
    3.5465    0.6733    2.0379 C   0  0  0  0  0  0
    2.8674   -0.2391    1.2545 C   0  0  0  0  0  0
    2.2718   -0.9376   -2.3849 C   0  0  0  0  0  0
   -5.3618    1.2486    0.4499 N   0  0  0  0  0  0
   -1.3620    3.0873   -1.4071 H   0  0  0  0  0  0
   -0.1530    1.9231   -1.3318 H   0  0  0  0  0  0
   -0.5255   -3.5682    0.8135 H   0  0  0  0  0  0
   -2.8453   -2.8526    1.2285 H   0  0  0  0  0  0
    1.9387   -2.4123    0.6476 H   0  0  0  0  0  0
    1.4668   -3.0091   -0.9615 H   0  0  0  0  0  0
    3.6626    0.9879   -1.7969 H   0  0  0  0  0  0
    4.8612    2.6135   -0.3906 H   0  0  0  0  0  0
    4.7878    2.4132    2.0612 H   0  0  0  0  0  0
    3.5162    0.5881    3.1142 H   0  0  0  0  0  0
    2.3094   -1.0396    1.7173 H   0  0  0  0  0  0
    1.6860   -1.7410   -2.8316 H   0  0  0  0  0  0
    1.8560    0.0247   -2.6837 H   0  0  0  0  0  0
    3.3048   -1.0085   -2.7254 H   0  0  0  0  0  0
   -5.6250    2.1468    0.1951 H   0  0  0  0  0  0
   -6.0073    0.6522    0.8604 H   0  0  0  0  0  0
  1  2  1  0  0  0
  1  6  2  0  0  0
  2  3  2  0  0  0
  2 21  1  0  0  0
  3  4  1  0  0  0
  4  5  2  0  0  0
  4 11  1  0  0  0
  5  6  1  0  0  0
  5  8  1  0  0  0
  6  7  1  0  0  0
  7 22  1  0  0  0
  7 23  1  0  0  0
  8  9  2  0  0  0
  9 10  1  0  0  0
  9 12  1  0  0  0
 10 11  2  0  0  0
 10 24  1  0  0  0
 11 25  1  0  0  0
 12 13  1  0  0  0
 12 26  1  0  0  0
 12 27  1  0  0  0
 13 14  1  0  0  0
 13 20  1  0  0  0
 14 15  1  0  0  0
 14 19  2  0  0  0
 15 16  2  0  0  0
 15 28  1  0  0  0
 16 17  1  0  0  0
 16 29  1  0  0  0
 17 18  2  0  0  0
 17 30  1  0  0  0
 18 19  1  0  0  0
 18 31  1  0  0  0
 19 32  1  0  0  0
 20 33  1  0  0  0
 20 34  1  0  0  0
 20 35  1  0  0  0
 21 36  1  0  0  0
 21 37  1  0  0  0
M  END
>  <ACTIVITY>
7.61979

>  <set_rl>
1

>  <Min_dist>
999.9

>  <Avg_dist>
999.9

>  <PC_uM>
0.29

>  <TG_uM>
0.0084

>  <RL_uM>
0.024

$$$$
22-16
  Cerius2 12110214553D 1   1.00000                          
 
 43 45  0  0  0  0  0  0  0  0999 V2000
   -5.5771    0.4139    0.2600 N   0  0  0  0  0  0
   -5.5105   -0.6771   -0.4981 C   0  0  0  0  0  0
   -4.3662   -1.1875   -0.9102 N   0  0  0  0  0  0
   -3.2048   -0.6108   -0.5713 C   0  0  0  0  0  0
   -3.2243    0.5507    0.2331 C   0  0  0  0  0  0
   -4.4853    1.0545    0.6467 C   0  0  0  0  0  0
   -4.5709    2.1854    1.4328 N   0  0  0  0  0  0
   -2.0834    1.1435    0.5847 N   0  0  0  0  0  0
   -0.9189    0.6655    0.1945 C   0  0  0  0  0  0
   -0.8304   -0.4827   -0.6048 C   0  0  0  0  0  0
   -1.9664   -1.1295   -0.9935 C   0  0  0  0  0  0
    0.2470    1.3143    0.5836 N   0  0  0  0  0  0
    1.4925    0.7320    0.3221 C   0  0  0  0  0  0
    2.5392    1.5141   -0.1476 C   0  0  0  0  0  0
    3.7730    0.9381   -0.4068 C   0  0  0  0  0  0
    3.9622   -0.4226   -0.1965 C   0  0  0  0  0  0
    2.9141   -1.2048    0.2735 C   0  0  0  0  0  0
    1.6825   -0.6264    0.5377 C   0  0  0  0  0  0
    3.0983   -2.5363    0.4796 O   0  0  0  0  0  0
    1.8558   -3.0563    0.9568 C   0  0  0  0  0  0
    5.1740   -0.9892   -0.4514 O   0  0  0  0  0  0
    5.9305   -0.9081    0.7582 C   0  0  0  0  0  0
    4.7980    1.7041   -0.8672 O   0  0  0  0  0  0
    4.2986    3.0383   -0.9790 C   0  0  0  0  0  0
   -6.6889   -1.3018   -0.8688 N   0  0  0  0  0  0
   -5.4386    2.5197    1.7088 H   0  0  0  0  0  0
   -3.7633    2.6461    1.7093 H   0  0  0  0  0  0
    0.1359   -0.8547   -0.9120 H   0  0  0  0  0  0
   -1.9170   -2.0156   -1.6089 H   0  0  0  0  0  0
    0.1974    2.1707    1.0364 H   0  0  0  0  0  0
    2.3919    2.5714   -0.3113 H   0  0  0  0  0  0
    0.8679   -1.2340    0.9034 H   0  0  0  0  0  0
    1.9551   -4.1266    1.1372 H   0  0  0  0  0  0
    1.5850   -2.5548    1.8860 H   0  0  0  0  0  0
    1.0795   -2.8839    0.2113 H   0  0  0  0  0  0
    6.9138   -1.3518    0.6022 H   0  0  0  0  0  0
    6.0449    0.1370    1.0458 H   0  0  0  0  0  0
    5.4098   -1.4477    1.5492 H   0  0  0  0  0  0
    5.0891    3.6926   -1.3466 H   0  0  0  0  0  0
    3.4599    3.0552   -1.6751 H   0  0  0  0  0  0
    3.9657    3.3849   -0.0007 H   0  0  0  0  0  0
   -7.5411   -0.9428   -0.5760 H   0  0  0  0  0  0
   -6.6624   -2.0987   -1.4213 H   0  0  0  0  0  0
  1  2  1  0  0  0
  1  6  2  0  0  0
  2  3  2  0  0  0
  2 25  1  0  0  0
  3  4  1  0  0  0
  4  5  2  0  0  0
  4 11  1  0  0  0
  5  6  1  0  0  0
  5  8  1  0  0  0
  6  7  1  0  0  0
  7 26  1  0  0  0
  7 27  1  0  0  0
  8  9  2  0  0  0
  9 10  1  0  0  0
  9 12  1  0  0  0
 10 11  2  0  0  0
 10 28  1  0  0  0
 11 29  1  0  0  0
 12 13  1  0  0  0
 12 30  1  0  0  0
 13 14  1  0  0  0
 13 18  2  0  0  0
 14 15  2  0  0  0
 14 31  1  0  0  0
 15 16  1  0  0  0
 15 23  1  0  0  0
 16 17  2  0  0  0
 16 21  1  0  0  0
 17 18  1  0  0  0
 17 19  1  0  0  0
 18 32  1  0  0  0
 19 20  1  0  0  0
 20 33  1  0  0  0
 20 34  1  0  0  0
 20 35  1  0  0  0
 21 22  1  0  0  0
 22 36  1  0  0  0
 22 37  1  0  0  0
 22 38  1  0  0  0
 23 24  1  0  0  0
 24 39  1  0  0  0
 24 40  1  0  0  0
 24 41  1  0  0  0
 25 42  1  0  0  0
 25 43  1  0  0  0
M  END
>  <ACTIVITY>
5.49485

>  <set_rl>
1

>  <Min_dist>
999.9

>  <Avg_dist>
999.9

>  <PC_uM>
25.9

>  <TG_uM>
2.4

>  <RL_uM>
3.2

$$$$
21-9
  Cerius2 12110214553D 1   1.00000                          
 
 41 43  0  0  0  0  0  0  0  0999 V2000
   -3.4039   -2.0225    0.3604 N   0  0  0  0  0  0
   -4.4023   -1.3636   -0.2203 C   0  0  0  0  0  0
   -4.3154   -0.1050   -0.6004 N   0  0  0  0  0  0
   -3.1880    0.5938   -0.4170 C   0  0  0  0  0  0
   -2.0811   -0.0404    0.1953 C   0  0  0  0  0  0
   -2.2373   -1.4398    0.5962 C   0  0  0  0  0  0
   -1.2058   -2.1280    1.1990 N   0  0  0  0  0  0
   -0.9480    0.6272    0.3900 N   0  0  0  0  0  0
   -0.8277    1.8815    0.0224 C   0  0  0  0  0  0
   -1.8761    2.5688   -0.5854 C   0  0  0  0  0  0
   -3.0667    1.9367   -0.8127 C   0  0  0  0  0  0
    0.4769    2.5962    0.2643 C   0  0  0  0  0  0
    1.4223    1.6818    0.9095 N   0  0  0  0  0  0
    2.2694    0.8897    0.1313 C   0  0  0  0  0  0
    2.2163    0.9681   -1.2552 C   0  0  0  0  0  0
    3.0544    0.1851   -2.0245 C   0  0  0  0  0  0
    3.9473   -0.6785   -1.4183 C   0  0  0  0  0  0
    4.0048   -0.7611   -0.0343 C   0  0  0  0  0  0
    3.1694    0.0273    0.7416 C   0  0  0  0  0  0
    4.8831   -1.6109    0.5601 O   0  0  0  0  0  0
    5.5953   -2.2694   -0.4892 C   0  0  0  0  0  0
    1.4791    1.5983    2.3710 C   0  0  0  0  0  0
   -5.5928   -2.0339   -0.4367 N   0  0  0  0  0  0
   -1.3272   -3.0548    1.4580 H   0  0  0  0  0  0
   -0.3587   -1.6852    1.3642 H   0  0  0  0  0  0
   -1.7482    3.6008   -0.8769 H   0  0  0  0  0  0
   -3.8899    2.4542   -1.2828 H   0  0  0  0  0  0
    0.8887    2.9327   -0.6872 H   0  0  0  0  0  0
    0.3052    3.4569    0.9106 H   0  0  0  0  0  0
    1.5190    1.6415   -1.7314 H   0  0  0  0  0  0
    3.0118    0.2473   -3.1019 H   0  0  0  0  0  0
    4.6009   -1.2900   -2.0227 H   0  0  0  0  0  0
    3.2128   -0.0357    1.8189 H   0  0  0  0  0  0
    6.3154   -2.9651   -0.0586 H   0  0  0  0  0  0
    4.8925   -2.8165   -1.1176 H   0  0  0  0  0  0
    6.1211   -1.5288   -1.0918 H   0  0  0  0  0  0
    0.7504    2.2844    2.8028 H   0  0  0  0  0  0
    1.2505    0.5801    2.6859 H   0  0  0  0  0  0
    2.4787    1.8682    2.7118 H   0  0  0  0  0  0
   -5.6834   -2.9612   -0.1667 H   0  0  0  0  0  0
   -6.3371   -1.5767   -0.8585 H   0  0  0  0  0  0
  1  2  1  0  0  0
  1  6  2  0  0  0
  2  3  2  0  0  0
  2 23  1  0  0  0
  3  4  1  0  0  0
  4  5  2  0  0  0
  4 11  1  0  0  0
  5  6  1  0  0  0
  5  8  1  0  0  0
  6  7  1  0  0  0
  7 24  1  0  0  0
  7 25  1  0  0  0
  8  9  2  0  0  0
  9 10  1  0  0  0
  9 12  1  0  0  0
 10 11  2  0  0  0
 10 26  1  0  0  0
 11 27  1  0  0  0
 12 13  1  0  0  0
 12 28  1  0  0  0
 12 29  1  0  0  0
 13 14  1  0  0  0
 13 22  1  0  0  0
 14 15  1  0  0  0
 14 19  2  0  0  0
 15 16  2  0  0  0
 15 30  1  0  0  0
 16 17  1  0  0  0
 16 31  1  0  0  0
 17 18  2  0  0  0
 17 32  1  0  0  0
 18 19  1  0  0  0
 18 20  1  0  0  0
 19 33  1  0  0  0
 20 21  1  0  0  0
 21 34  1  0  0  0
 21 35  1  0  0  0
 21 36  1  0  0  0
 22 37  1  0  0  0
 22 38  1  0  0  0
 22 39  1  0  0  0
 23 40  1  0  0  0
 23 41  1  0  0  0
M  END
>  <ACTIVITY>
7.45593

>  <set_rl>
1

>  <Min_dist>
999.9

>  <Avg_dist>
999.9

>  <PC_uM>
0.097

>  <TG_uM>
0.015

>  <RL_uM>
0.035

$$$$
21-15
  Cerius2 12110214553D 1   1.00000                          
 
 42 44  0  0  0  0  0  0  0  0999 V2000
   -4.8702    1.4393    0.0018 N   0  0  0  0  0  0
   -5.6528    0.3643    0.0013 C   0  0  0  0  0  0
   -5.1894   -0.8691    0.0000 N   0  0  0  0  0  0
   -3.8721   -1.1101   -0.0009 C   0  0  0  0  0  0
   -2.9756   -0.0154   -0.0005 C   0  0  0  0  0  0
   -3.5494    1.3316    0.0009 C   0  0  0  0  0  0
   -2.7430    2.4499    0.0010 N   0  0  0  0  0  0
   -1.6624   -0.2230   -0.0004 N   0  0  0  0  0  0
   -1.1676   -1.4388   -0.0007 C   0  0  0  0  0  0
   -1.9907   -2.5628   -0.0016 C   0  0  0  0  0  0
   -3.3496   -2.4146   -0.0018 C   0  0  0  0  0  0
    0.3280   -1.6233   -0.0007 C   0  0  0  0  0  0
    0.9819   -0.3123   -0.0002 N   0  0  0  0  0  0
    2.3815   -0.2269   -0.0001 C   0  0  0  0  0  0
    3.1475   -1.3829   -0.0003 C   0  0  0  0  0  0
    4.5272   -1.2987    0.0004 C   0  0  0  0  0  0
    5.1484   -0.0587    0.0013 C   0  0  0  0  0  0
    4.3865    1.1002    0.0011 C   0  0  0  0  0  0
    3.0039    1.0191   -0.0054 C   0  0  0  0  0  0
    2.2551    2.1545   -0.0060 O   0  0  0  0  0  0
    3.1696    3.2524    0.0008 C   0  0  0  0  0  0
    6.5060    0.0210    0.0028 O   0  0  0  0  0  0
    6.9984   -1.3205    0.0031 C   0  0  0  0  0  0
   -7.0235    0.5504    0.0027 N   0  0  0  0  0  0
   -3.1407    3.3346    0.0019 H   0  0  0  0  0  0
   -1.7780    2.3520    0.0000 H   0  0  0  0  0  0
   -1.5552   -3.5511   -0.0022 H   0  0  0  0  0  0
   -4.0026   -3.2749   -0.0023 H   0  0  0  0  0  0
    0.6256   -2.1781    0.8892 H   0  0  0  0  0  0
    0.6258   -2.1775   -0.8908 H   0  0  0  0  0  0
    0.4466    0.4966    0.0000 H   0  0  0  0  0  0
    2.6658   -2.3496   -0.0007 H   0  0  0  0  0  0
    5.1224   -2.1998    0.0005 H   0  0  0  0  0  0
    4.8711    2.0653    0.0021 H   0  0  0  0  0  0
    2.6126    4.1893    0.0005 H   0  0  0  0  0  0
    3.7929    3.2006    0.8934 H   0  0  0  0  0  0
    3.8010    3.2049   -0.8865 H   0  0  0  0  0  0
    8.0884   -1.3075    0.0044 H   0  0  0  0  0  0
    6.6403   -1.8388    0.8926 H   0  0  0  0  0  0
    6.6423   -1.8385   -0.8873 H   0  0  0  0  0  0
   -7.3911    1.4481    0.0039 H   0  0  0  0  0  0
   -7.6171   -0.2168    0.0024 H   0  0  0  0  0  0
  1  2  1  0  0  0
  1  6  2  0  0  0
  2  3  2  0  0  0
  2 24  1  0  0  0
  3  4  1  0  0  0
  4  5  2  0  0  0
  4 11  1  0  0  0
  5  6  1  0  0  0
  5  8  1  0  0  0
  6  7  1  0  0  0
  7 25  1  0  0  0
  7 26  1  0  0  0
  8  9  2  0  0  0
  9 10  1  0  0  0
  9 12  1  0  0  0
 10 11  2  0  0  0
 10 27  1  0  0  0
 11 28  1  0  0  0
 12 13  1  0  0  0
 12 29  1  0  0  0
 12 30  1  0  0  0
 13 14  1  0  0  0
 13 31  1  0  0  0
 14 15  1  0  0  0
 14 19  2  0  0  0
 15 16  2  0  0  0
 15 32  1  0  0  0
 16 17  1  0  0  0
 16 33  1  0  0  0
 17 18  2  0  0  0
 17 22  1  0  0  0
 18 19  1  0  0  0
 18 34  1  0  0  0
 19 20  1  0  0  0
 20 21  1  0  0  0
 21 35  1  0  0  0
 21 36  1  0  0  0
 21 37  1  0  0  0
 22 23  1  0  0  0
 23 38  1  0  0  0
 23 39  1  0  0  0
 23 40  1  0  0  0
 24 41  1  0  0  0
 24 42  1  0  0  0
M  END
>  <ACTIVITY>
6.49485

>  <set_rl>
1

>  <Min_dist>
999.9

>  <Avg_dist>
999.9

>  <PC_uM>
5.5

>  <TG_uM>
0.14

>  <RL_uM>
0.32

$$$$
21-22
  Cerius2 12110214553D 1   1.00000                          
 
 37 39  0  0  0  0  0  0  0  0999 V2000
   -5.1344    1.1711   -0.5762 N   0  0  0  0  0  0
   -5.8095    0.1471   -0.0628 C   0  0  0  0  0  0
   -5.2297   -0.9282    0.4311 N   0  0  0  0  0  0
   -3.8960   -1.0483    0.4418 C   0  0  0  0  0  0
   -3.1095    0.0019   -0.0879 C   0  0  0  0  0  0
   -3.8100    1.1711   -0.6225 C   0  0  0  0  0  0
   -3.1154    2.2357   -1.1564 N   0  0  0  0  0  0
   -1.7830   -0.0881   -0.0903 N   0  0  0  0  0  0
   -1.1738   -1.1447    0.3948 C   0  0  0  0  0  0
   -1.8844   -2.2160    0.9315 C   0  0  0  0  0  0
   -3.2507   -2.1829    0.9623 C   0  0  0  0  0  0
    0.3320   -1.2006    0.3699 C   0  0  0  0  0  0
    0.8577    0.0296   -0.2370 N   0  0  0  0  0  0
    2.2513   -0.0831   -0.2308 C   0  0  0  0  0  0
    2.8678   -1.1283   -0.9060 C   0  0  0  0  0  0
    4.2447   -1.2374   -0.8982 C   0  0  0  0  0  0
    5.0104   -0.3065   -0.2185 C   0  0  0  0  0  0
    4.3997    0.7361    0.4558 C   0  0  0  0  0  0
    3.0226    0.8539    0.4464 C   0  0  0  0  0  0
    2.2565    2.1623    1.2919 Cl  0  0  0  0  0  0
    6.7407   -0.4472   -0.2113 Cl  0  0  0  0  0  0
    0.4395    0.0176   -1.6452 C   0  0  0  0  0  0
   -7.1910    0.2141   -0.0460 N   0  0  0  0  0  0
   -3.5963    3.0022   -1.5061 H   0  0  0  0  0  0
   -2.1459    2.2183   -1.1824 H   0  0  0  0  0  0
   -1.3560   -3.0726    1.3231 H   0  0  0  0  0  0
   -3.8174   -3.0045    1.3748 H   0  0  0  0  0  0
    0.7090   -1.2930    1.3885 H   0  0  0  0  0  0
    0.6540   -2.0613   -0.2162 H   0  0  0  0  0  0
    2.2710   -1.8556   -1.4365 H   0  0  0  0  0  0
    4.7242   -2.0505   -1.4230 H   0  0  0  0  0  0
    4.9996    1.4608    0.9860 H   0  0  0  0  0  0
    0.8078    0.9156   -2.1412 H   0  0  0  0  0  0
    0.8492   -0.8639   -2.1384 H   0  0  0  0  0  0
   -0.6488   -0.0078   -1.7008 H   0  0  0  0  0  0
   -7.6431    0.9945   -0.4030 H   0  0  0  0  0  0
   -7.7077   -0.5193    0.3228 H   0  0  0  0  0  0
  1  2  1  0  0  0
  1  6  2  0  0  0
  2  3  2  0  0  0
  2 23  1  0  0  0
  3  4  1  0  0  0
  4  5  2  0  0  0
  4 11  1  0  0  0
  5  6  1  0  0  0
  5  8  1  0  0  0
  6  7  1  0  0  0
  7 24  1  0  0  0
  7 25  1  0  0  0
  8  9  2  0  0  0
  9 10  1  0  0  0
  9 12  1  0  0  0
 10 11  2  0  0  0
 10 26  1  0  0  0
 11 27  1  0  0  0
 12 13  1  0  0  0
 12 28  1  0  0  0
 12 29  1  0  0  0
 13 14  1  0  0  0
 13 22  1  0  0  0
 14 15  1  0  0  0
 14 19  2  0  0  0
 15 16  2  0  0  0
 15 30  1  0  0  0
 16 17  1  0  0  0
 16 31  1  0  0  0
 17 18  2  0  0  0
 17 21  1  0  0  0
 18 19  1  0  0  0
 18 32  1  0  0  0
 19 20  1  0  0  0
 22 33  1  0  0  0
 22 34  1  0  0  0
 22 35  1  0  0  0
 23 36  1  0  0  0
 23 37  1  0  0  0
M  END
>  <ACTIVITY>
7.23657

>  <set_rl>
1

>  <Min_dist>
999.9

>  <Avg_dist>
999.9

>  <PC_uM>
0.5

>  <TG_uM>
0.05

>  <RL_uM>
0.058

$$$$
21-44
  Cerius2 12110214553D 1   1.00000                          
 
 41 43  0  0  0  0  0  0  0  0999 V2000
   -4.1365    1.8708   -1.4507 N   0  0  0  0  0  0
   -4.9417    2.1545   -0.4314 C   0  0  0  0  0  0
   -4.8766    1.5445    0.7347 N   0  0  0  0  0  0
   -3.9726    0.5824    0.9595 C   0  0  0  0  0  0
   -3.0803    0.2251   -0.0789 C   0  0  0  0  0  0
   -3.2006    0.9377   -1.3522 C   0  0  0  0  0  0
   -2.3688    0.6475   -2.4127 N   0  0  0  0  0  0
   -2.1713   -0.7257    0.1146 N   0  0  0  0  0  0
   -2.0789   -1.3523    1.2642 C   0  0  0  0  0  0
   -2.9246   -1.0526    2.3300 C   0  0  0  0  0  0
   -3.8800   -0.0845    2.1929 C   0  0  0  0  0  0
   -1.0323   -2.4229    1.4354 C   0  0  0  0  0  0
   -0.2688   -2.5626    0.1929 N   0  0  0  0  0  0
    0.8761   -1.8015   -0.0083 C   0  0  0  0  0  0
    1.6007   -1.9359   -1.1907 C   0  0  0  0  0  0
    2.7263   -1.1899   -1.3925 C   0  0  0  0  0  0
    3.1522   -0.2878   -0.4085 C   0  0  0  0  0  0
    2.4202   -0.1554    0.7790 C   0  0  0  0  0  0
    1.2930   -0.9018    0.9706 C   0  0  0  0  0  0
    4.3616    0.5157   -0.6207 C   0  0  0  0  0  0
    4.9943    0.3995   -1.6493 O   0  0  0  0  0  0
    4.8177    1.4853    0.4390 C   0  0  0  0  0  0
    5.9836    2.1293    0.0111 F   0  0  0  0  0  0
    3.8159    2.4355    0.6640 F   0  0  0  0  0  0
    5.0771    0.7912    1.6256 F   0  0  0  0  0  0
   -0.6791   -3.4340   -0.7601 C   0  0  0  0  0  0
   -1.0347   -4.1891   -1.5858 C   0  0  0  0  0  0
   -5.8962    3.1406   -0.6038 N   0  0  0  0  0  0
   -2.4630    1.1299   -3.2490 H   0  0  0  0  0  0
   -1.6895   -0.0390   -2.3226 H   0  0  0  0  0  0
   -2.8255   -1.5851    3.2643 H   0  0  0  0  0  0
   -4.5439    0.1607    3.0087 H   0  0  0  0  0  0
   -0.3588   -2.1462    2.2466 H   0  0  0  0  0  0
   -1.5168   -3.3701    1.6726 H   0  0  0  0  0  0
    1.2717   -2.6314   -1.9486 H   0  0  0  0  0  0
    3.2878   -1.2952   -2.3090 H   0  0  0  0  0  0
    2.7452    0.5385    1.5401 H   0  0  0  0  0  0
    0.7282   -0.8004    1.8855 H   0  0  0  0  0  0
   -1.3526   -4.8644   -2.3243 H   0  0  0  0  0  0
   -5.9655    3.6056   -1.4523 H   0  0  0  0  0  0
   -6.4964    3.3672    0.1237 H   0  0  0  0  0  0
  1  2  1  0  0  0
  1  6  2  0  0  0
  2  3  2  0  0  0
  2 28  1  0  0  0
  3  4  1  0  0  0
  4  5  2  0  0  0
  4 11  1  0  0  0
  5  6  1  0  0  0
  5  8  1  0  0  0
  6  7  1  0  0  0
  7 29  1  0  0  0
  7 30  1  0  0  0
  8  9  2  0  0  0
  9 10  1  0  0  0
  9 12  1  0  0  0
 10 11  2  0  0  0
 10 31  1  0  0  0
 11 32  1  0  0  0
 12 13  1  0  0  0
 12 33  1  0  0  0
 12 34  1  0  0  0
 13 14  1  0  0  0
 13 26  1  0  0  0
 14 15  1  0  0  0
 14 19  2  0  0  0
 15 16  2  0  0  0
 15 35  1  0  0  0
 16 17  1  0  0  0
 16 36  1  0  0  0
 17 18  2  0  0  0
 17 20  1  0  0  0
 18 19  1  0  0  0
 18 37  1  0  0  0
 19 38  1  0  0  0
 20 21  2  0  0  0
 20 22  1  0  0  0
 22 23  1  0  0  0
 22 24  1  0  0  0
 22 25  1  0  0  0
 26 27  3  0  0  0
 27 39  1  0  0  0
 28 40  1  0  0  0
 28 41  1  0  0  0
M  END
>  <ACTIVITY>
8.12494

>  <set_rl>
1

>  <Min_dist>
999.9

>  <Avg_dist>
999.9

>  <PC_uM>
0.12

>  <TG_uM>
0.054

>  <RL_uM>
0.0075

$$$$
22-4
  Cerius2 12110214553D 1   1.00000                          
 
 34 36  0  0  0  0  0  0  0  0999 V2000
   -3.2034   -1.6832   -0.1755 N   0  0  0  0  0  0
   -4.1213   -0.7483    0.0535 C   0  0  0  0  0  0
   -3.8210    0.5317    0.1604 N   0  0  0  0  0  0
   -2.5514    0.9432    0.0390 C   0  0  0  0  0  0
   -1.5403   -0.0133   -0.2049 C   0  0  0  0  0  0
   -1.9229   -1.3762   -0.3104 C   0  0  0  0  0  0
   -0.9822   -2.3577   -0.5474 N   0  0  0  0  0  0
   -0.2696    0.3694   -0.3298 N   0  0  0  0  0  0
    0.0727    1.6387   -0.2297 C   0  0  0  0  0  0
   -0.8820    2.6368    0.0120 C   0  0  0  0  0  0
   -2.1966    2.3012    0.1471 C   0  0  0  0  0  0
    1.7669    2.0906   -0.4029 S   0  0  0  0  0  0
    2.5030    0.4919   -0.4867 C   0  0  0  0  0  0
    2.9372   -0.0114   -1.7051 C   0  0  0  0  0  0
    3.5145   -1.2653   -1.7679 C   0  0  0  0  0  0
    3.6607   -2.0213   -0.6193 C   0  0  0  0  0  0
    3.2305   -1.5266    0.5983 C   0  0  0  0  0  0
    2.6560   -0.2685    0.6711 C   0  0  0  0  0  0
    2.2329    0.2194    1.8679 O   0  0  0  0  0  0
    2.5136   -0.7843    2.8456 C   0  0  0  0  0  0
   -5.4444   -1.1338    0.1846 N   0  0  0  0  0  0
   -1.2564   -3.2855   -0.6174 H   0  0  0  0  0  0
   -0.0468   -2.1198   -0.6440 H   0  0  0  0  0  0
   -0.5767    3.6698    0.0902 H   0  0  0  0  0  0
   -2.9455    3.0567    0.3335 H   0  0  0  0  0  0
    2.8235    0.5767   -2.6038 H   0  0  0  0  0  0
    3.8521   -1.6559   -2.7165 H   0  0  0  0  0  0
    4.1119   -3.0011   -0.6734 H   0  0  0  0  0  0
    3.3463   -2.1199    1.4933 H   0  0  0  0  0  0
    2.1900   -0.4364    3.8267 H   0  0  0  0  0  0
    1.9796   -1.6996    2.5904 H   0  0  0  0  0  0
    3.5853   -0.9823    2.8657 H   0  0  0  0  0  0
   -5.6866   -2.0701    0.1090 H   0  0  0  0  0  0
   -6.1294   -0.4677    0.3519 H   0  0  0  0  0  0
  1  2  1  0  0  0
  1  6  2  0  0  0
  2  3  2  0  0  0
  2 21  1  0  0  0
  3  4  1  0  0  0
  4  5  2  0  0  0
  4 11  1  0  0  0
  5  6  1  0  0  0
  5  8  1  0  0  0
  6  7  1  0  0  0
  7 22  1  0  0  0
  7 23  1  0  0  0
  8  9  2  0  0  0
  9 10  1  0  0  0
  9 12  1  0  0  0
 10 11  2  0  0  0
 10 24  1  0  0  0
 11 25  1  0  0  0
 12 13  1  0  0  0
 13 14  1  0  0  0
 13 18  2  0  0  0
 14 15  2  0  0  0
 14 26  1  0  0  0
 15 16  1  0  0  0
 15 27  1  0  0  0
 16 17  2  0  0  0
 16 28  1  0  0  0
 17 18  1  0  0  0
 17 29  1  0  0  0
 18 19  1  0  0  0
 19 20  1  0  0  0
 20 30  1  0  0  0
 20 31  1  0  0  0
 20 32  1  0  0  0
 21 33  1  0  0  0
 21 34  1  0  0  0
M  END
>  <ACTIVITY>
6.63827

>  <set_rl>
1

>  <Min_dist>
999.9

>  <Avg_dist>
999.9

>  <PC_uM>
2.2

>  <TG_uM>
0.058

>  <RL_uM>
0.23

$$$$
22-8
  Cerius2 12110214553D 1   1.00000                          
 
 36 38  0  0  0  0  0  0  0  0999 V2000
   -4.3457    1.4443   -0.6000 N   0  0  0  0  0  0
   -4.7430    1.0573    0.6085 C   0  0  0  0  0  0
   -4.0491    0.2369    1.3710 N   0  0  0  0  0  0
   -2.8774   -0.2627    0.9577 C   0  0  0  0  0  0
   -2.3887    0.1039   -0.3187 C   0  0  0  0  0  0
   -3.2037    1.0185   -1.1203 C   0  0  0  0  0  0
   -2.7971    1.4229   -2.3741 N   0  0  0  0  0  0
   -1.2281   -0.3751   -0.7562 N   0  0  0  0  0  0
   -0.5116   -1.1935   -0.0216 C   0  0  0  0  0  0
   -0.9313   -1.5971    1.2441 C   0  0  0  0  0  0
   -2.1159   -1.1389    1.7495 C   0  0  0  0  0  0
    1.0189   -1.7972   -0.6521 S   0  0  0  0  0  0
    1.2815   -2.9998    0.0579 O   0  0  0  0  0  0
    0.9276   -1.6796   -2.0653 O   0  0  0  0  0  0
    2.2755   -0.6653   -0.1578 C   0  0  0  0  0  0
    2.9357   -0.8483    1.0432 C   0  0  0  0  0  0
    3.9212    0.0378    1.4330 C   0  0  0  0  0  0
    4.2484    1.1119    0.6183 C   0  0  0  0  0  0
    3.5846    1.2933   -0.5863 C   0  0  0  0  0  0
    2.6037    0.4013   -0.9742 C   0  0  0  0  0  0
    5.2173    1.9852    0.9998 O   0  0  0  0  0  0
    5.3202    2.9657   -0.0347 C   0  0  0  0  0  0
   -5.9461    1.5411    1.0900 N   0  0  0  0  0  0
   -3.3500    2.0294   -2.8911 H   0  0  0  0  0  0
   -1.9581    1.1008   -2.7392 H   0  0  0  0  0  0
   -0.3208   -2.2718    1.8258 H   0  0  0  0  0  0
   -2.4565   -1.4414    2.7288 H   0  0  0  0  0  0
    2.6803   -1.6845    1.6773 H   0  0  0  0  0  0
    4.4363   -0.1054    2.3714 H   0  0  0  0  0  0
    3.8375    2.1288   -1.2223 H   0  0  0  0  0  0
    2.0868    0.5419   -1.9120 H   0  0  0  0  0  0
    6.0893    3.6919    0.2282 H   0  0  0  0  0  0
    5.5863    2.4779   -0.9724 H   0  0  0  0  0  0
    4.3633    3.4751   -0.1489 H   0  0  0  0  0  0
   -6.4766    2.1469    0.5491 H   0  0  0  0  0  0
   -6.2593    1.2747    1.9685 H   0  0  0  0  0  0
  1  2  1  0  0  0
  1  6  2  0  0  0
  2  3  2  0  0  0
  2 23  1  0  0  0
  3  4  1  0  0  0
  4  5  2  0  0  0
  4 11  1  0  0  0
  5  6  1  0  0  0
  5  8  1  0  0  0
  6  7  1  0  0  0
  7 24  1  0  0  0
  7 25  1  0  0  0
  8  9  2  0  0  0
  9 10  1  0  0  0
  9 12  1  0  0  0
 10 11  2  0  0  0
 10 26  1  0  0  0
 11 27  1  0  0  0
 12 13  2  0  0  0
 12 14  2  0  0  0
 12 15  1  0  0  0
 15 16  1  0  0  0
 15 20  2  0  0  0
 16 17  2  0  0  0
 16 28  1  0  0  0
 17 18  1  0  0  0
 17 29  1  0  0  0
 18 19  2  0  0  0
 18 21  1  0  0  0
 19 20  1  0  0  0
 19 30  1  0  0  0
 20 31  1  0  0  0
 21 22  1  0  0  0
 22 32  1  0  0  0
 22 33  1  0  0  0
 22 34  1  0  0  0
 23 35  1  0  0  0
 23 36  1  0  0  0
M  END
>  <ACTIVITY>
5.69897

>  <set_rl>
1

>  <Min_dist>
999.9

>  <Avg_dist>
999.9

>  <PC_uM>
10.5

>  <TG_uM>
1

>  <RL_uM>
2

$$$$
22-12
  Cerius2 12110214553D 1   1.00000                          
 
 35 37  0  0  0  0  0  0  0  0999 V2000
   -3.2851   -1.8383   -0.2164 N   0  0  0  0  0  0
   -4.3000   -0.9951   -0.0482 C   0  0  0  0  0  0
   -4.1270    0.3029    0.1105 N   0  0  0  0  0  0
   -2.8941    0.8284    0.1077 C   0  0  0  0  0  0
   -1.7836   -0.0275   -0.0677 C   0  0  0  0  0  0
   -2.0309   -1.4154   -0.2338 C   0  0  0  0  0  0
   -0.9887   -2.3027   -0.4089 N   0  0  0  0  0  0
   -0.5469    0.4696   -0.0748 N   0  0  0  0  0  0
   -0.3306    1.7603    0.0801 C   0  0  0  0  0  0
   -1.3883    2.6629    0.2584 C   0  0  0  0  0  0
   -2.6741    2.2086    0.2740 C   0  0  0  0  0  0
    0.9748    2.2371    0.0667 N   0  0  0  0  0  0
    2.0474    1.3393    0.0115 C   0  0  0  0  0  0
    3.2095    1.6860   -0.6650 C   0  0  0  0  0  0
    4.2673    0.7998   -0.7186 C   0  0  0  0  0  0
    4.1692   -0.4363   -0.0968 C   0  0  0  0  0  0
    3.0088   -0.7834    0.5792 C   0  0  0  0  0  0
    1.9520    0.1036    0.6382 C   0  0  0  0  0  0
    5.2112   -1.3085   -0.1505 O   0  0  0  0  0  0
    4.8113   -2.4746    0.5723 C   0  0  0  0  0  0
   -5.5890   -1.4998   -0.0399 N   0  0  0  0  0  0
   -1.1709   -3.2488   -0.5214 H   0  0  0  0  0  0
   -0.0739   -1.9804   -0.4194 H   0  0  0  0  0  0
   -1.1852    3.7162    0.3836 H   0  0  0  0  0  0
   -3.5012    2.8896    0.4099 H   0  0  0  0  0  0
    1.1426    3.1921    0.0957 H   0  0  0  0  0  0
    3.2859    2.6482   -1.1495 H   0  0  0  0  0  0
    5.1710    1.0691   -1.2450 H   0  0  0  0  0  0
    2.9331   -1.7461    1.0627 H   0  0  0  0  0  0
    1.0486   -0.1668    1.1645 H   0  0  0  0  0  0
    5.6190   -3.2064    0.5568 H   0  0  0  0  0  0
    4.5864   -2.2034    1.6038 H   0  0  0  0  0  0
    3.9235   -2.9034    0.1075 H   0  0  0  0  0  0
   -5.7381   -2.4513   -0.1554 H   0  0  0  0  0  0
   -6.3432   -0.9019    0.0813 H   0  0  0  0  0  0
  1  2  1  0  0  0
  1  6  2  0  0  0
  2  3  2  0  0  0
  2 21  1  0  0  0
  3  4  1  0  0  0
  4  5  2  0  0  0
  4 11  1  0  0  0
  5  6  1  0  0  0
  5  8  1  0  0  0
  6  7  1  0  0  0
  7 22  1  0  0  0
  7 23  1  0  0  0
  8  9  2  0  0  0
  9 10  1  0  0  0
  9 12  1  0  0  0
 10 11  2  0  0  0
 10 24  1  0  0  0
 11 25  1  0  0  0
 12 13  1  0  0  0
 12 26  1  0  0  0
 13 14  1  0  0  0
 13 18  2  0  0  0
 14 15  2  0  0  0
 14 27  1  0  0  0
 15 16  1  0  0  0
 15 28  1  0  0  0
 16 17  2  0  0  0
 16 19  1  0  0  0
 17 18  1  0  0  0
 17 29  1  0  0  0
 18 30  1  0  0  0
 19 20  1  0  0  0
 20 31  1  0  0  0
 20 32  1  0  0  0
 20 33  1  0  0  0
 21 34  1  0  0  0
 21 35  1  0  0  0
M  END
>  <ACTIVITY>
5.42022

>  <set_rl>
1

>  <Min_dist>
999.9

>  <Avg_dist>
999.9

>  <PC_uM>
90.4

>  <TG_uM>
2.8

>  <RL_uM>
3.8

$$$$
22-14
  Cerius2 12110214553D 1   1.00000                          
 
 39 41  0  0  0  0  0  0  0  0999 V2000
   -3.8401   -1.3686   -0.4909 N   0  0  0  0  0  0
   -4.6951   -0.3870   -0.2174 C   0  0  0  0  0  0
   -4.3009    0.8248    0.1232 N   0  0  0  0  0  0
   -2.9952    1.1149    0.2077 C   0  0  0  0  0  0
   -2.0481    0.1045   -0.0733 C   0  0  0  0  0  0
   -2.5311   -1.1804   -0.4350 C   0  0  0  0  0  0
   -1.6567   -2.2090   -0.7208 N   0  0  0  0  0  0
   -0.7435    0.3667    0.0029 N   0  0  0  0  0  0
   -0.3079    1.5643    0.3391 C   0  0  0  0  0  0
   -1.1948    2.6100    0.6306 C   0  0  0  0  0  0
   -2.5404    2.3973    0.5677 C   0  0  0  0  0  0
    1.0608    1.7953    0.4067 N   0  0  0  0  0  0
    1.9587    0.7329    0.2494 C   0  0  0  0  0  0
    1.5584   -0.5637    0.5377 C   0  0  0  0  0  0
    2.4498   -1.6138    0.3809 C   0  0  0  0  0  0
    3.7408   -1.3686   -0.0633 C   0  0  0  0  0  0
    4.1421   -0.0772   -0.3513 C   0  0  0  0  0  0
    3.2540    0.9749   -0.2025 C   0  0  0  0  0  0
    3.6499    2.2455   -0.4863 O   0  0  0  0  0  0
    5.0134    2.1690   -0.9071 C   0  0  0  0  0  0
    2.0584   -2.8850    0.6633 O   0  0  0  0  0  0
    3.1821   -3.7297    0.4067 C   0  0  0  0  0  0
   -6.0525   -0.6475   -0.2936 N   0  0  0  0  0  0
   -1.9993   -3.0825   -0.9668 H   0  0  0  0  0  0
   -0.6995   -2.0586   -0.6757 H   0  0  0  0  0  0
   -0.8132    3.5825    0.9044 H   0  0  0  0  0  0
   -3.2383    3.1913    0.7886 H   0  0  0  0  0  0
    1.3941    2.6928    0.5629 H   0  0  0  0  0  0
    0.5535   -0.7548    0.8843 H   0  0  0  0  0  0
    4.4339   -2.1880   -0.1841 H   0  0  0  0  0  0
    5.1480    0.1107   -0.6967 H   0  0  0  0  0  0
    5.3763    3.1685   -1.1466 H   0  0  0  0  0  0
    5.6179    1.7454   -0.1051 H   0  0  0  0  0  0
    5.0859    1.5347   -1.7906 H   0  0  0  0  0  0
    2.9149   -4.7647    0.6200 H   0  0  0  0  0  0
    3.4741   -3.6382   -0.6395 H   0  0  0  0  0  0
    4.0145   -3.4307    1.0437 H   0  0  0  0  0  0
   -6.3634   -1.5320   -0.5426 H   0  0  0  0  0  0
   -6.6928    0.0544   -0.0981 H   0  0  0  0  0  0
  1  2  1  0  0  0
  1  6  2  0  0  0
  2  3  2  0  0  0
  2 23  1  0  0  0
  3  4  1  0  0  0
  4  5  2  0  0  0
  4 11  1  0  0  0
  5  6  1  0  0  0
  5  8  1  0  0  0
  6  7  1  0  0  0
  7 24  1  0  0  0
  7 25  1  0  0  0
  8  9  2  0  0  0
  9 10  1  0  0  0
  9 12  1  0  0  0
 10 11  2  0  0  0
 10 26  1  0  0  0
 11 27  1  0  0  0
 12 13  1  0  0  0
 12 28  1  0  0  0
 13 14  1  0  0  0
 13 18  2  0  0  0
 14 15  2  0  0  0
 14 29  1  0  0  0
 15 16  1  0  0  0
 15 21  1  0  0  0
 16 17  2  0  0  0
 16 30  1  0  0  0
 17 18  1  0  0  0
 17 31  1  0  0  0
 18 19  1  0  0  0
 19 20  1  0  0  0
 20 32  1  0  0  0
 20 33  1  0  0  0
 20 34  1  0  0  0
 21 22  1  0  0  0
 22 35  1  0  0  0
 22 36  1  0  0  0
 22 37  1  0  0  0
 23 38  1  0  0  0
 23 39  1  0  0  0
M  END
>  <ACTIVITY>
5.4437

>  <set_rl>
1

>  <Min_dist>
999.9

>  <Avg_dist>
999.9

>  <PC_uM>
16.1

>  <TG_uM>
0.73

>  <RL_uM>
3.6

$$$$
21-34
  Cerius2 12110214553D 1   1.00000                          
 
 39 42  0  0  0  0  0  0  0  0999 V2000
   -5.3871    0.7424   -1.0818 N   0  0  0  0  0  0
   -5.8545    0.5186    0.1427 C   0  0  0  0  0  0
   -5.1232    0.0162    1.1168 N   0  0  0  0  0  0
   -3.8379   -0.3034    0.9188 C   0  0  0  0  0  0
   -3.2691   -0.0935   -0.3597 C   0  0  0  0  0  0
   -4.1309    0.4674   -1.4020 C   0  0  0  0  0  0
   -3.6518    0.7012   -2.6735 N   0  0  0  0  0  0
   -1.9954   -0.4001   -0.5865 N   0  0  0  0  0  0
   -1.2390   -0.9013    0.3619 C   0  0  0  0  0  0
   -1.7324   -1.1348    1.6436 C   0  0  0  0  0  0
   -3.0341   -0.8402    1.9389 C   0  0  0  0  0  0
    0.1990   -1.2329    0.0565 C   0  0  0  0  0  0
    1.2390    0.2133    0.3992 S   0  0  0  0  0  0
    2.8189   -0.4369   -0.0319 C   0  0  0  0  0  0
    2.9382   -1.7357   -0.4822 C   0  0  0  0  0  0
    4.1810   -2.2580   -0.8249 C   0  0  0  0  0  0
    5.3120   -1.5056   -0.7259 C   0  0  0  0  0  0
    5.2345   -0.1780   -0.2716 C   0  0  0  0  0  0
    3.9740    0.3681    0.0746 C   0  0  0  0  0  0
    3.8982    1.6940    0.5277 C   0  0  0  0  0  0
    5.0343    2.4380    0.6288 C   0  0  0  0  0  0
    6.2746    1.9020    0.2886 C   0  0  0  0  0  0
    6.3853    0.6215   -0.1595 C   0  0  0  0  0  0
   -7.1761    0.8296    0.4077 N   0  0  0  0  0  0
   -4.2372    1.0734   -3.3515 H   0  0  0  0  0  0
   -2.7294    0.4935   -2.8901 H   0  0  0  0  0  0
   -1.0864   -1.5485    2.4039 H   0  0  0  0  0  0
   -3.4331   -1.0146    2.9272 H   0  0  0  0  0  0
    0.5199   -2.0672    0.6802 H   0  0  0  0  0  0
    0.2933   -1.5075   -0.9942 H   0  0  0  0  0  0
    2.0568   -2.3537   -0.5693 H   0  0  0  0  0  0
    4.2504   -3.2773   -1.1751 H   0  0  0  0  0  0
    6.2680   -1.9291   -0.9960 H   0  0  0  0  0  0
    2.9434    2.1225    0.7946 H   0  0  0  0  0  0
    4.9730    3.4583    0.9774 H   0  0  0  0  0  0
    7.1607    2.5131    0.3773 H   0  0  0  0  0  0
    7.3532    0.2191   -0.4192 H   0  0  0  0  0  0
   -7.7365    1.2011   -0.2915 H   0  0  0  0  0  0
   -7.5424    0.6763    1.2927 H   0  0  0  0  0  0
  1  2  1  0  0  0
  1  6  2  0  0  0
  2  3  2  0  0  0
  2 24  1  0  0  0
  3  4  1  0  0  0
  4  5  2  0  0  0
  4 11  1  0  0  0
  5  6  1  0  0  0
  5  8  1  0  0  0
  6  7  1  0  0  0
  7 25  1  0  0  0
  7 26  1  0  0  0
  8  9  2  0  0  0
  9 10  1  0  0  0
  9 12  1  0  0  0
 10 11  2  0  0  0
 10 27  1  0  0  0
 11 28  1  0  0  0
 12 13  1  0  0  0
 12 29  1  0  0  0
 12 30  1  0  0  0
 13 14  1  0  0  0
 14 15  1  0  0  0
 14 19  2  0  0  0
 15 16  2  0  0  0
 15 31  1  0  0  0
 16 17  1  0  0  0
 16 32  1  0  0  0
 17 18  2  0  0  0
 17 33  1  0  0  0
 18 19  1  0  0  0
 18 23  1  0  0  0
 19 20  1  0  0  0
 20 21  2  0  0  0
 20 34  1  0  0  0
 21 22  1  0  0  0
 21 35  1  0  0  0
 22 23  2  0  0  0
 22 36  1  0  0  0
 23 37  1  0  0  0
 24 38  1  0  0  0
 24 39  1  0  0  0
M  END
>  <ACTIVITY>
6.79588

>  <set_rl>
1

>  <Min_dist>
999.9

>  <Avg_dist>
999.9

>  <PC_uM>
0.47

>  <TG_uM>
0.049

>  <RL_uM>
0.16

$$$$
22-22
  Cerius2 12110214553D 1   1.00000                          
 
 46 48  0  0  0  0  0  0  0  0999 V2000
   -4.8974   -0.4647   -1.1452 N   0  0  0  0  0  0
   -5.3279   -0.5999    0.1061 C   0  0  0  0  0  0
   -4.5915   -0.2727    1.1504 N   0  0  0  0  0  0
   -3.3560    0.2186    0.9823 C   0  0  0  0  0  0
   -2.8543    0.3807   -0.3287 C   0  0  0  0  0  0
   -3.6920    0.0115   -1.4137 C   0  0  0  0  0  0
   -3.2596    0.1455   -2.7173 N   0  0  0  0  0  0
   -1.6290    0.8675   -0.5236 N   0  0  0  0  0  0
   -0.8613    1.2070    0.4923 C   0  0  0  0  0  0
   -1.2987    1.0707    1.8172 C   0  0  0  0  0  0
   -2.5441    0.5781    2.0744 C   0  0  0  0  0  0
    0.4102    1.7108    0.2449 N   0  0  0  0  0  0
    1.4906    0.8357    0.0838 C   0  0  0  0  0  0
    2.7688    1.3404   -0.1137 C   0  0  0  0  0  0
    3.8392    0.4744   -0.2733 C   0  0  0  0  0  0
    3.6327   -0.8994   -0.2356 C   0  0  0  0  0  0
    2.3529   -1.4039   -0.0379 C   0  0  0  0  0  0
    1.2844   -0.5366    0.1272 C   0  0  0  0  0  0
    2.1499   -2.7480   -0.0008 O   0  0  0  0  0  0
    0.7381   -2.9502    0.0881 C   0  0  0  0  0  0
    4.6838   -1.7508   -0.3927 O   0  0  0  0  0  0
    5.2096   -2.0031    0.9119 C   0  0  0  0  0  0
    5.0911    0.9689   -0.4671 O   0  0  0  0  0  0
    4.9787    2.3935   -0.4567 C   0  0  0  0  0  0
    0.6196    3.1578    0.1526 C   0  0  0  0  0  0
   -6.5993   -1.1037    0.3209 N   0  0  0  0  0  0
   -3.8098   -0.1803   -3.4466 H   0  0  0  0  0  0
   -2.4055    0.5655   -2.9042 H   0  0  0  0  0  0
   -0.6506    1.3556    2.6328 H   0  0  0  0  0  0
   -2.8978    0.4666    3.0887 H   0  0  0  0  0  0
    2.9291    2.4081   -0.1433 H   0  0  0  0  0  0
    0.2898   -0.9285    0.2812 H   0  0  0  0  0  0
    0.5211   -4.0178    0.0532 H   0  0  0  0  0  0
    0.3700   -2.5351    1.0263 H   0  0  0  0  0  0
    0.2464   -2.4520   -0.7475 H   0  0  0  0  0  0
    6.0577   -2.6836    0.8364 H   0  0  0  0  0  0
    5.5357   -1.0645    1.3599 H   0  0  0  0  0  0
    4.4365   -2.4536    1.5343 H   0  0  0  0  0  0
    5.9627    2.8367   -0.6094 H   0  0  0  0  0  0
    4.3092    2.7109   -1.2562 H   0  0  0  0  0  0
    4.5784    2.7193    0.5033 H   0  0  0  0  0  0
   -0.3410    3.6688    0.2181 H   0  0  0  0  0  0
    1.2617    3.4849    0.9703 H   0  0  0  0  0  0
    1.0938    3.3963   -0.7995 H   0  0  0  0  0  0
   -7.1571   -1.3502   -0.4334 H   0  0  0  0  0  0
   -6.9323   -1.2102    1.2257 H   0  0  0  0  0  0
  1  2  1  0  0  0
  1  6  2  0  0  0
  2  3  2  0  0  0
  2 26  1  0  0  0
  3  4  1  0  0  0
  4  5  2  0  0  0
  4 11  1  0  0  0
  5  6  1  0  0  0
  5  8  1  0  0  0
  6  7  1  0  0  0
  7 27  1  0  0  0
  7 28  1  0  0  0
  8  9  2  0  0  0
  9 10  1  0  0  0
  9 12  1  0  0  0
 10 11  2  0  0  0
 10 29  1  0  0  0
 11 30  1  0  0  0
 12 13  1  0  0  0
 12 25  1  0  0  0
 13 14  1  0  0  0
 13 18  2  0  0  0
 14 15  2  0  0  0
 14 31  1  0  0  0
 15 16  1  0  0  0
 15 23  1  0  0  0
 16 17  2  0  0  0
 16 21  1  0  0  0
 17 18  1  0  0  0
 17 19  1  0  0  0
 18 32  1  0  0  0
 19 20  1  0  0  0
 20 33  1  0  0  0
 20 34  1  0  0  0
 20 35  1  0  0  0
 21 22  1  0  0  0
 22 36  1  0  0  0
 22 37  1  0  0  0
 22 38  1  0  0  0
 23 24  1  0  0  0
 24 39  1  0  0  0
 24 40  1  0  0  0
 24 41  1  0  0  0
 25 42  1  0  0  0
 25 43  1  0  0  0
 25 44  1  0  0  0
 26 45  1  0  0  0
 26 46  1  0  0  0
M  END
>  <ACTIVITY>
8.4318

>  <set_rl>
1

>  <Min_dist>
999.9

>  <Avg_dist>
999.9

>  <PC_uM>
0.021

>  <TG_uM>
0.0076

>  <RL_uM>
0.0037

$$$$
22-23
  Cerius2 12110214553D 1   1.00000                          
 
 40 43  0  0  0  0  0  0  0  0999 V2000
   -4.8098    0.2507    0.4877 N   0  0  0  0  0  0
   -4.8043   -1.0030    0.0435 C   0  0  0  0  0  0
   -3.7130   -1.5939   -0.4036 N   0  0  0  0  0  0
   -2.5457   -0.9360   -0.4259 C   0  0  0  0  0  0
   -2.5012    0.3988    0.0361 C   0  0  0  0  0  0
   -3.7070    0.9825    0.5056 C   0  0  0  0  0  0
   -3.7291    2.2820    0.9691 N   0  0  0  0  0  0
   -1.3531    1.0755    0.0251 N   0  0  0  0  0  0
   -0.2402    0.5219   -0.4130 C   0  0  0  0  0  0
   -0.2164   -0.7978   -0.8851 C   0  0  0  0  0  0
   -1.3627   -1.5365   -0.8959 C   0  0  0  0  0  0
    0.9357    1.2631   -0.4073 N   0  0  0  0  0  0
    2.1472    0.6505   -0.7233 C   0  0  0  0  0  0
    2.5883    0.6133   -2.0293 C   0  0  0  0  0  0
    3.7961    0.0041   -2.3551 C   0  0  0  0  0  0
    4.5745   -0.5712   -1.3971 C   0  0  0  0  0  0
    4.1614   -0.5550   -0.0541 C   0  0  0  0  0  0
    2.9366    0.0677    0.2913 C   0  0  0  0  0  0
    2.5256    0.0835    1.6332 C   0  0  0  0  0  0
    3.3070   -0.4984    2.5844 C   0  0  0  0  0  0
    4.5121   -1.1108    2.2460 C   0  0  0  0  0  0
    4.9446   -1.1405    0.9558 C   0  0  0  0  0  0
    0.9017    2.6881   -0.0692 C   0  0  0  0  0  0
   -5.9907   -1.7161    0.0510 N   0  0  0  0  0  0
   -4.5595    2.6695    1.2873 H   0  0  0  0  0  0
   -2.9141    2.8081    0.9768 H   0  0  0  0  0  0
    0.7082   -1.2288   -1.2396 H   0  0  0  0  0  0
   -1.3629   -2.5548   -1.2557 H   0  0  0  0  0  0
    1.9893    1.0616   -2.8081 H   0  0  0  0  0  0
    4.1215   -0.0130   -3.3847 H   0  0  0  0  0  0
    5.5085   -1.0399   -1.6695 H   0  0  0  0  0  0
    1.5942    0.5551    1.9099 H   0  0  0  0  0  0
    2.9883   -0.4848    3.6162 H   0  0  0  0  0  0
    5.1139   -1.5645    3.0194 H   0  0  0  0  0  0
    5.8808   -1.6186    0.7081 H   0  0  0  0  0  0
   -0.1067    2.9646    0.2387 H   0  0  0  0  0  0
    1.5974    2.8847    0.7466 H   0  0  0  0  0  0
    1.1891    3.2755   -0.9413 H   0  0  0  0  0  0
   -6.8045   -1.3002    0.3760 H   0  0  0  0  0  0
   -6.0083   -2.6317   -0.2688 H   0  0  0  0  0  0
  1  2  1  0  0  0
  1  6  2  0  0  0
  2  3  2  0  0  0
  2 24  1  0  0  0
  3  4  1  0  0  0
  4  5  2  0  0  0
  4 11  1  0  0  0
  5  6  1  0  0  0
  5  8  1  0  0  0
  6  7  1  0  0  0
  7 25  1  0  0  0
  7 26  1  0  0  0
  8  9  2  0  0  0
  9 10  1  0  0  0
  9 12  1  0  0  0
 10 11  2  0  0  0
 10 27  1  0  0  0
 11 28  1  0  0  0
 12 13  1  0  0  0
 12 23  1  0  0  0
 13 14  1  0  0  0
 13 18  2  0  0  0
 14 15  2  0  0  0
 14 29  1  0  0  0
 15 16  1  0  0  0
 15 30  1  0  0  0
 16 17  2  0  0  0
 16 31  1  0  0  0
 17 18  1  0  0  0
 17 22  1  0  0  0
 18 19  1  0  0  0
 19 20  2  0  0  0
 19 32  1  0  0  0
 20 21  1  0  0  0
 20 33  1  0  0  0
 21 22  2  0  0  0
 21 34  1  0  0  0
 22 35  1  0  0  0
 23 36  1  0  0  0
 23 37  1  0  0  0
 23 38  1  0  0  0
 24 39  1  0  0  0
 24 40  1  0  0  0
M  END
>  <ACTIVITY>
5.48149

>  <set_rl>
1

>  <Min_dist>
999.9

>  <Avg_dist>
999.9

>  <PC_uM>
5.1

>  <TG_uM>
2.1

>  <RL_uM>
3.3

$$$$
8-3
  Cerius2 12110214553D 1   1.00000                          
 
 33 35  0  0  0  0  0  0  0  0999 V2000
   -4.5736    1.1346    0.1055 N   0  0  0  0  0  0
   -4.9834   -0.1278    0.1892 C   0  0  0  0  0  0
   -4.1607   -1.1554    0.0940 N   0  0  0  0  0  0
   -2.8478   -0.9616   -0.0957 C   0  0  0  0  0  0
   -2.3676    0.3677   -0.1912 C   0  0  0  0  0  0
   -3.2957    1.4326   -0.0815 C   0  0  0  0  0  0
   -2.8809    2.7434   -0.1678 N   0  0  0  0  0  0
   -0.9997    0.5897   -0.3889 C   0  0  0  0  0  0
   -0.1770   -0.5020   -0.4823 C   0  0  0  0  0  0
   -0.7103   -1.7813   -0.3804 C   0  0  0  0  0  0
   -1.9957   -1.9825   -0.1948 N   0  0  0  0  0  0
    1.3031   -0.3158   -0.6955 C   0  0  0  0  0  0
    2.1365   -0.2054    0.9119 S   0  0  0  0  0  0
    3.8029    0.0032    0.3789 C   0  0  0  0  0  0
    4.8222    0.1349    1.3145 C   0  0  0  0  0  0
    6.1269    0.2983    0.8931 C   0  0  0  0  0  0
    6.4200    0.3314   -0.4581 C   0  0  0  0  0  0
    5.4082    0.2012   -1.3920 C   0  0  0  0  0  0
    4.1020    0.0308   -0.9780 C   0  0  0  0  0  0
   -6.3289   -0.3743    0.3847 N   0  0  0  0  0  0
   -3.5271    3.4627   -0.0909 H   0  0  0  0  0  0
   -1.9425    2.9471   -0.3054 H   0  0  0  0  0  0
   -0.6046    1.5918   -0.4659 H   0  0  0  0  0  0
   -0.0507   -2.6331   -0.4561 H   0  0  0  0  0  0
    1.6995   -1.1646   -1.2528 H   0  0  0  0  0  0
    1.4766    0.6013   -1.2585 H   0  0  0  0  0  0
    4.5940    0.1098    2.3698 H   0  0  0  0  0  0
    6.9195    0.4006    1.6196 H   0  0  0  0  0  0
    7.4414    0.4597   -0.7848 H   0  0  0  0  0  0
    5.6407    0.2279   -2.4463 H   0  0  0  0  0  0
    3.3124   -0.0708   -1.7078 H   0  0  0  0  0  0
   -6.9519    0.3655    0.4579 H   0  0  0  0  0  0
   -6.6504   -1.2872    0.4488 H   0  0  0  0  0  0
  1  2  1  0  0  0
  1  6  2  0  0  0
  2  3  2  0  0  0
  2 20  1  0  0  0
  3  4  1  0  0  0
  4  5  2  0  0  0
  4 11  1  0  0  0
  5  6  1  0  0  0
  5  8  1  0  0  0
  6  7  1  0  0  0
  7 21  1  0  0  0
  7 22  1  0  0  0
  8  9  2  0  0  0
  8 23  1  0  0  0
  9 10  1  0  0  0
  9 12  1  0  0  0
 10 11  2  0  0  0
 10 24  1  0  0  0
 12 13  1  0  0  0
 12 25  1  0  0  0
 12 26  1  0  0  0
 13 14  1  0  0  0
 14 15  1  0  0  0
 14 19  2  0  0  0
 15 16  2  0  0  0
 15 27  1  0  0  0
 16 17  1  0  0  0
 16 28  1  0  0  0
 17 18  2  0  0  0
 17 29  1  0  0  0
 18 19  1  0  0  0
 18 30  1  0  0  0
 19 31  1  0  0  0
 20 32  1  0  0  0
 20 33  1  0  0  0
M  END
>  <ACTIVITY>
5.72125

>  <set_rl>
1

>  <Min_dist>
999.9

>  <Avg_dist>
999.9

>  <PC_uM>
1.3

>  <TG_uM>
0.47

>  <RL_uM>
1.9

$$$$
24-5B
  Cerius2 12110214553D 1   1.00000                          
 
 47 50  0  0  0  0  0  0  0  0999 V2000
   -5.5337   -0.8229   -0.9066 N   0  0  0  0  0  0
   -6.0473   -0.3925    0.2421 C   0  0  0  0  0  0
   -5.3486    0.2949    1.1259 N   0  0  0  0  0  0
   -4.0621    0.5927    0.8943 C   0  0  0  0  0  0
   -3.4741    0.1533   -0.3172 C   0  0  0  0  0  0
   -4.2713   -0.5807   -1.2299 C   0  0  0  0  0  0
   -3.7479   -1.0315   -2.4218 N   0  0  0  0  0  0
   -2.1320    0.4552   -0.5766 C   0  0  0  0  0  0
   -1.4394    1.1709    0.3643 C   0  0  0  0  0  0
   -2.0741    1.5731    1.5335 C   0  0  0  0  0  0
   -3.3345    1.2861    1.7706 N   0  0  0  0  0  0
    0.0079    1.5208    0.1322 C   0  0  0  0  0  0
    0.8354    0.3267    0.3212 N   0  0  0  0  0  0
    2.2191    0.4008    0.1450 C   0  0  0  0  0  0
    2.8111    1.5944   -0.2065 C   0  0  0  0  0  0
    4.1887    1.6815   -0.3851 C   0  0  0  0  0  0
    4.9906    0.5887   -0.2173 C   0  0  0  0  0  0
    4.4225   -0.6493    0.1426 C   0  0  0  0  0  0
    3.0216   -0.7445    0.3313 C   0  0  0  0  0  0
    2.4567   -1.9787    0.6903 C   0  0  0  0  0  0
    3.2601   -3.0659    0.8521 C   0  0  0  0  0  0
    4.6382   -2.9727    0.6670 C   0  0  0  0  0  0
    5.2205   -1.7914    0.3230 C   0  0  0  0  0  0
    6.3340    0.6952   -0.3975 O   0  0  0  0  0  0
    6.5967    2.0545   -0.7515 C   0  0  0  0  0  0
   -1.4685    0.0060   -1.8529 C   0  0  0  0  0  0
   -7.3702   -0.6768    0.5223 N   0  0  0  0  0  0
   -2.8528   -1.4041   -2.4483 H   0  0  0  0  0  0
   -4.2746   -0.9763   -3.2345 H   0  0  0  0  0  0
   -1.5165    2.1364    2.2671 H   0  0  0  0  0  0
    0.1332    1.8925   -0.8848 H   0  0  0  0  0  0
    0.3137    2.2906    0.8407 H   0  0  0  0  0  0
    0.4224   -0.5154    0.5686 H   0  0  0  0  0  0
    2.1987    2.4730   -0.3455 H   0  0  0  0  0  0
    4.6304    2.6277   -0.6610 H   0  0  0  0  0  0
    1.3903   -2.0651    0.8377 H   0  0  0  0  0  0
    2.8231   -4.0141    1.1283 H   0  0  0  0  0  0
    5.2537   -3.8498    0.8022 H   0  0  0  0  0  0
    6.2898   -1.7340    0.1825 H   0  0  0  0  0  0
    7.6671    2.1891   -0.9070 H   0  0  0  0  0  0
    6.0625    2.3007   -1.6692 H   0  0  0  0  0  0
    6.2609    2.7105    0.0515 H   0  0  0  0  0  0
   -1.1358   -1.0264   -1.7456 H   0  0  0  0  0  0
   -2.1799    0.0748   -2.6759 H   0  0  0  0  0  0
   -0.6100    0.6447   -2.0604 H   0  0  0  0  0  0
   -7.9031   -1.1804   -0.1128 H   0  0  0  0  0  0
   -7.7660   -0.3728    1.3541 H   0  0  0  0  0  0
  1  2  1  0  0  0
  1  6  2  0  0  0
  2  3  2  0  0  0
  2 27  1  0  0  0
  3  4  1  0  0  0
  4  5  2  0  0  0
  4 11  1  0  0  0
  5  6  1  0  0  0
  5  8  1  0  0  0
  6  7  1  0  0  0
  7 28  1  0  0  0
  7 29  1  0  0  0
  8  9  2  0  0  0
  8 26  1  0  0  0
  9 10  1  0  0  0
  9 12  1  0  0  0
 10 11  2  0  0  0
 10 30  1  0  0  0
 12 13  1  0  0  0
 12 31  1  0  0  0
 12 32  1  0  0  0
 13 14  1  0  0  0
 13 33  1  0  0  0
 14 15  1  0  0  0
 14 19  2  0  0  0
 15 16  2  0  0  0
 15 34  1  0  0  0
 16 17  1  0  0  0
 16 35  1  0  0  0
 17 18  2  0  0  0
 17 24  1  0  0  0
 18 19  1  0  0  0
 18 23  1  0  0  0
 19 20  1  0  0  0
 20 21  2  0  0  0
 20 36  1  0  0  0
 21 22  1  0  0  0
 21 37  1  0  0  0
 22 23  2  0  0  0
 22 38  1  0  0  0
 23 39  1  0  0  0
 24 25  1  0  0  0
 25 40  1  0  0  0
 25 41  1  0  0  0
 25 42  1  0  0  0
 26 43  1  0  0  0
 26 44  1  0  0  0
 26 45  1  0  0  0
 27 46  1  0  0  0
 27 47  1  0  0  0
M  END
>  <ACTIVITY>
7.26761

>  <set_rl>
1

>  <Min_dist>
999.9

>  <Avg_dist>
999.9

>  <PC_uM>
0.041

>  <TG_uM>
0.023

>  <RL_uM>
0.054

$$$$
14-22
  Cerius2 12110214553D 1   1.00000                          
 
 40 42  0  0  0  0  0  0  0  0999 V2000
   -5.2039   -1.0362   -0.2197 N   0  0  0  0  0  0
   -4.9849   -1.3224    1.0604 C   0  0  0  0  0  0
   -3.8973   -0.9409    1.7034 N   0  0  0  0  0  0
   -2.9477   -0.2330    1.0753 C   0  0  0  0  0  0
   -3.1398    0.0939   -0.2895 C   0  0  0  0  0  0
   -4.3265   -0.3412   -0.9297 C   0  0  0  0  0  0
   -4.5619   -0.0504   -2.2555 N   0  0  0  0  0  0
   -2.1593    0.8329   -0.9618 C   0  0  0  0  0  0
   -1.0445    1.2113   -0.2609 C   0  0  0  0  0  0
   -0.9156    0.8589    1.0773 C   0  0  0  0  0  0
   -1.8401    0.1649    1.7023 N   0  0  0  0  0  0
    0.0399    2.0077   -0.9397 C   0  0  0  0  0  0
    1.1145    2.2840    0.0169 N   0  0  0  0  0  0
    2.1790    1.3885    0.1498 C   0  0  0  0  0  0
    3.1986    1.6494    1.0566 C   0  0  0  0  0  0
    4.2497    0.7631    1.1863 C   0  0  0  0  0  0
    4.2887   -0.3843    0.4138 C   0  0  0  0  0  0
    3.2740   -0.6473   -0.4910 C   0  0  0  0  0  0
    2.2165    0.2336   -0.6202 C   0  0  0  0  0  0
    3.3263   -2.0878   -1.4585 Cl  0  0  0  0  0  0
    5.6122   -1.4955    0.5789 Cl  0  0  0  0  0  0
    1.0731    3.4991    0.8342 C   0  0  0  0  0  0
   -2.3248    1.2010   -2.4137 C   0  0  0  0  0  0
   -5.9375   -2.0505    1.7473 N   0  0  0  0  0  0
   -5.4494    0.2144   -2.5438 H   0  0  0  0  0  0
   -3.8401   -0.1104   -2.9007 H   0  0  0  0  0  0
   -0.0316    1.1632    1.6180 H   0  0  0  0  0  0
    0.4382    1.4374   -1.7789 H   0  0  0  0  0  0
   -0.3736    2.9484   -1.3033 H   0  0  0  0  0  0
    3.1694    2.5450    1.6595 H   0  0  0  0  0  0
    5.0424    0.9659    1.8913 H   0  0  0  0  0  0
    1.4251    0.0284   -1.3259 H   0  0  0  0  0  0
    0.1756    4.0688    0.5930 H   0  0  0  0  0  0
    1.0579    3.2268    1.8895 H   0  0  0  0  0  0
    1.9549    4.1058    0.6281 H   0  0  0  0  0  0
   -2.0139    0.3637   -3.0386 H   0  0  0  0  0  0
   -3.3708    1.4340   -2.6126 H   0  0  0  0  0  0
   -1.7092    2.0716   -2.6403 H   0  0  0  0  0  0
   -6.7449   -2.3412    1.2950 H   0  0  0  0  0  0
   -5.7989   -2.2708    2.6817 H   0  0  0  0  0  0
  1  2  1  0  0  0
  1  6  2  0  0  0
  2  3  2  0  0  0
  2 24  1  0  0  0
  3  4  1  0  0  0
  4  5  2  0  0  0
  4 11  1  0  0  0
  5  6  1  0  0  0
  5  8  1  0  0  0
  6  7  1  0  0  0
  7 25  1  0  0  0
  7 26  1  0  0  0
  8  9  2  0  0  0
  8 23  1  0  0  0
  9 10  1  0  0  0
  9 12  1  0  0  0
 10 11  2  0  0  0
 10 27  1  0  0  0
 12 13  1  0  0  0
 12 28  1  0  0  0
 12 29  1  0  0  0
 13 14  1  0  0  0
 13 22  1  0  0  0
 14 15  1  0  0  0
 14 19  2  0  0  0
 15 16  2  0  0  0
 15 30  1  0  0  0
 16 17  1  0  0  0
 16 31  1  0  0  0
 17 18  2  0  0  0
 17 21  1  0  0  0
 18 19  1  0  0  0
 18 20  1  0  0  0
 19 32  1  0  0  0
 22 33  1  0  0  0
 22 34  1  0  0  0
 22 35  1  0  0  0
 23 36  1  0  0  0
 23 37  1  0  0  0
 23 38  1  0  0  0
 24 39  1  0  0  0
 24 40  1  0  0  0
M  END
>  <ACTIVITY>
7.37675

>  <set_rl>
1

>  <Min_dist>
999.9

>  <Avg_dist>
999.9

>  <PC_uM>
0.1

>  <TG_uM>
0.027

>  <RL_uM>
0.042

$$$$
9-13B
  Cerius2 12110214553D 1   1.00000                          
 
 36 38  0  0  0  0  0  0  0  0999 V2000
   -4.5574    1.0132    0.1899 N   0  0  0  0  0  0
   -4.9633   -0.2532    0.2017 C   0  0  0  0  0  0
   -4.1376   -1.2712    0.0478 N   0  0  0  0  0  0
   -2.8254   -1.0628   -0.1311 C   0  0  0  0  0  0
   -2.3493    0.2711   -0.1509 C   0  0  0  0  0  0
   -3.2805    1.3252    0.0197 C   0  0  0  0  0  0
   -2.8696    2.6401    0.0081 N   0  0  0  0  0  0
   -0.9821    0.5082   -0.3362 C   0  0  0  0  0  0
   -0.1562   -0.5739   -0.4919 C   0  0  0  0  0  0
   -0.6856   -1.8586   -0.4628 C   0  0  0  0  0  0
   -1.9702   -2.0739   -0.2885 N   0  0  0  0  0  0
    1.3233   -0.3714   -0.6948 C   0  0  0  0  0  0
    2.1572   -0.3503    0.9160 S   0  0  0  0  0  0
    3.8227   -0.1065    0.3951 C   0  0  0  0  0  0
    4.8421   -0.0253    1.3362 C   0  0  0  0  0  0
    6.1461    0.1658    0.9244 C   0  0  0  0  0  0
    6.4383    0.2768   -0.4229 C   0  0  0  0  0  0
    5.4264    0.1969   -1.3623 C   0  0  0  0  0  0
    4.1209   -0.0007   -0.9581 C   0  0  0  0  0  0
   -0.4350    1.9120   -0.3640 C   0  0  0  0  0  0
   -6.3080   -0.5145    0.3834 N   0  0  0  0  0  0
   -3.2445    3.2710    0.6424 H   0  0  0  0  0  0
   -2.2055    2.9350   -0.6345 H   0  0  0  0  0  0
   -0.0235   -2.7027   -0.5872 H   0  0  0  0  0  0
    1.7219   -1.1858   -1.2997 H   0  0  0  0  0  0
    1.4936    0.5769   -1.2046 H   0  0  0  0  0  0
    4.6145   -0.1112    2.3885 H   0  0  0  0  0  0
    6.9388    0.2290    1.6552 H   0  0  0  0  0  0
    7.4591    0.4266   -0.7421 H   0  0  0  0  0  0
    5.6582    0.2844   -2.4135 H   0  0  0  0  0  0
    3.3312   -0.0630   -1.6922 H   0  0  0  0  0  0
   -0.5647    2.3328   -1.3611 H   0  0  0  0  0  0
   -0.9700    2.5249    0.3614 H   0  0  0  0  0  0
    0.6254    1.8938   -0.1124 H   0  0  0  0  0  0
   -6.9331    0.2181    0.4988 H   0  0  0  0  0  0
   -6.6267   -1.4306    0.3955 H   0  0  0  0  0  0
  1  2  1  0  0  0
  1  6  2  0  0  0
  2  3  2  0  0  0
  2 21  1  0  0  0
  3  4  1  0  0  0
  4  5  2  0  0  0
  4 11  1  0  0  0
  5  6  1  0  0  0
  5  8  1  0  0  0
  6  7  1  0  0  0
  7 22  1  0  0  0
  7 23  1  0  0  0
  8  9  2  0  0  0
  8 20  1  0  0  0
  9 10  1  0  0  0
  9 12  1  0  0  0
 10 11  2  0  0  0
 10 24  1  0  0  0
 12 13  1  0  0  0
 12 25  1  0  0  0
 12 26  1  0  0  0
 13 14  1  0  0  0
 14 15  1  0  0  0
 14 19  2  0  0  0
 15 16  2  0  0  0
 15 27  1  0  0  0
 16 17  1  0  0  0
 16 28  1  0  0  0
 17 18  2  0  0  0
 17 29  1  0  0  0
 18 19  1  0  0  0
 18 30  1  0  0  0
 19 31  1  0  0  0
 20 32  1  0  0  0
 20 33  1  0  0  0
 20 34  1  0  0  0
 21 35  1  0  0  0
 21 36  1  0  0  0
M  END
>  <ACTIVITY>
6.36653

>  <set_rl>
1

>  <Min_dist>
999.9

>  <Avg_dist>
999.9

>  <PC_uM>
0.44

>  <TG_uM>
0.034

>  <RL_uM>
0.43

$$$$
9-13D
  Cerius2 12110214553D 1   1.00000                          
 
 39 41  0  0  0  0  0  0  0  0999 V2000
   -4.8738    1.0369    0.2682 N   0  0  0  0  0  0
   -5.2860   -0.2258    0.3339 C   0  0  0  0  0  0
   -4.4729   -1.2535    0.1766 N   0  0  0  0  0  0
   -3.1680   -1.0594   -0.0616 C   0  0  0  0  0  0
   -2.6856    0.2702   -0.1401 C   0  0  0  0  0  0
   -3.6032    1.3351    0.0371 C   0  0  0  0  0  0
   -3.1858    2.6463   -0.0300 N   0  0  0  0  0  0
   -1.3259    0.4924   -0.3877 C   0  0  0  0  0  0
   -0.5131   -0.5993   -0.5450 C   0  0  0  0  0  0
   -1.0480   -1.8790   -0.4565 C   0  0  0  0  0  0
   -2.3257   -2.0803   -0.2238 N   0  0  0  0  0  0
    0.9580   -0.4129   -0.8138 C   0  0  0  0  0  0
    1.8571   -0.3504    0.7604 S   0  0  0  0  0  0
    3.5013   -0.1333    0.1653 C   0  0  0  0  0  0
    3.7439   -0.0634   -1.2016 C   0  0  0  0  0  0
    5.0335    0.1067   -1.6643 C   0  0  0  0  0  0
    6.0835    0.2071   -0.7695 C   0  0  0  0  0  0
    5.8460    0.1376    0.5910 C   0  0  0  0  0  0
    4.5578   -0.0258    1.0614 C   0  0  0  0  0  0
    6.9934    0.2470    1.5618 C   0  0  0  0  0  0
   -0.7725    1.8911   -0.4792 C   0  0  0  0  0  0
   -6.6235   -0.4726    0.5777 N   0  0  0  0  0  0
   -3.5309    3.2979    0.6002 H   0  0  0  0  0  0
   -2.5468    2.9178   -0.7074 H   0  0  0  0  0  0
   -0.3963   -2.7308   -0.5828 H   0  0  0  0  0  0
    1.3270   -1.2474   -1.4101 H   0  0  0  0  0  0
    1.1127    0.5189   -1.3578 H   0  0  0  0  0  0
    2.9246   -0.1425   -1.9008 H   0  0  0  0  0  0
    5.2227    0.1610   -2.7262 H   0  0  0  0  0  0
    7.0913    0.3398   -1.1343 H   0  0  0  0  0  0
    4.3731   -0.0800    2.1241 H   0  0  0  0  0  0
    7.1469    1.2932    1.8265 H   0  0  0  0  0  0
    6.7647   -0.3254    2.4608 H   0  0  0  0  0  0
    7.8987   -0.1476    1.1004 H   0  0  0  0  0  0
   -0.9405    2.2835   -1.4821 H   0  0  0  0  0  0
   -1.2740    2.5286    0.2490 H   0  0  0  0  0  0
    0.2972    1.8730   -0.2705 H   0  0  0  0  0  0
   -7.2393    0.2673    0.6969 H   0  0  0  0  0  0
   -6.9466   -1.3857    0.6298 H   0  0  0  0  0  0
  1  2  1  0  0  0
  1  6  2  0  0  0
  2  3  2  0  0  0
  2 22  1  0  0  0
  3  4  1  0  0  0
  4  5  2  0  0  0
  4 11  1  0  0  0
  5  6  1  0  0  0
  5  8  1  0  0  0
  6  7  1  0  0  0
  7 23  1  0  0  0
  7 24  1  0  0  0
  8  9  2  0  0  0
  8 21  1  0  0  0
  9 10  1  0  0  0
  9 12  1  0  0  0
 10 11  2  0  0  0
 10 25  1  0  0  0
 12 13  1  0  0  0
 12 26  1  0  0  0
 12 27  1  0  0  0
 13 14  1  0  0  0
 14 15  1  0  0  0
 14 19  2  0  0  0
 15 16  2  0  0  0
 15 28  1  0  0  0
 16 17  1  0  0  0
 16 29  1  0  0  0
 17 18  2  0  0  0
 17 30  1  0  0  0
 18 19  1  0  0  0
 18 20  1  0  0  0
 19 31  1  0  0  0
 20 32  1  0  0  0
 20 33  1  0  0  0
 20 34  1  0  0  0
 21 35  1  0  0  0
 21 36  1  0  0  0
 21 37  1  0  0  0
 22 38  1  0  0  0
 22 39  1  0  0  0
M  END
>  <ACTIVITY>
6.48149

>  <set_rl>
1

>  <Min_dist>
999.9

>  <Avg_dist>
999.9

>  <PC_uM>
0.17

>  <TG_uM>
0.065

>  <RL_uM>
0.33

$$$$
9-13F
  Cerius2 12110214553D 1   1.00000                          
 
 40 42  0  0  0  0  0  0  0  0999 V2000
   -5.2478    1.0669    0.2868 N   0  0  0  0  0  0
   -5.6701   -0.1911    0.3749 C   0  0  0  0  0  0
   -4.8678   -1.2279    0.2230 N   0  0  0  0  0  0
   -3.5640   -1.0486   -0.0327 C   0  0  0  0  0  0
   -3.0712    0.2754   -0.1354 C   0  0  0  0  0  0
   -3.9774    1.3508    0.0371 C   0  0  0  0  0  0
   -3.5496    2.6571   -0.0532 N   0  0  0  0  0  0
   -1.7125    0.4823   -0.4015 C   0  0  0  0  0  0
   -0.9110   -0.6186   -0.5525 C   0  0  0  0  0  0
   -1.4558   -1.8922   -0.4399 C   0  0  0  0  0  0
   -2.7324   -2.0791   -0.1899 N   0  0  0  0  0  0
    0.5585   -0.4488   -0.8405 C   0  0  0  0  0  0
    1.4761   -0.3721    0.7224 S   0  0  0  0  0  0
    3.1151   -0.1778    0.1057 C   0  0  0  0  0  0
    3.3421   -0.1293   -1.2652 C   0  0  0  0  0  0
    4.6268    0.0235   -1.7480 C   0  0  0  0  0  0
    5.6900    0.1281   -0.8708 C   0  0  0  0  0  0
    5.4698    0.0804    0.4987 C   0  0  0  0  0  0
    4.1816   -0.0671    0.9881 C   0  0  0  0  0  0
    6.5165    0.1829    1.3594 O   0  0  0  0  0  0
    7.6938    0.3280    0.5627 C   0  0  0  0  0  0
   -1.1482    1.8747   -0.5189 C   0  0  0  0  0  0
   -7.0068   -0.4227    0.6374 N   0  0  0  0  0  0
   -3.8818    3.3206    0.5716 H   0  0  0  0  0  0
   -2.9161    2.9135   -0.7415 H   0  0  0  0  0  0
   -0.8129   -2.7514   -0.5615 H   0  0  0  0  0  0
    0.9134   -1.2948   -1.4291 H   0  0  0  0  0  0
    0.7150    0.4738   -1.3994 H   0  0  0  0  0  0
    2.5133   -0.2115   -1.9527 H   0  0  0  0  0  0
    4.8012    0.0610   -2.8132 H   0  0  0  0  0  0
    6.6936    0.2468   -1.2517 H   0  0  0  0  0  0
    4.0084   -0.1041    2.0535 H   0  0  0  0  0  0
    8.5643    0.4144    1.2130 H   0  0  0  0  0  0
    7.8065   -0.5442   -0.0813 H   0  0  0  0  0  0
    7.6087    1.2245   -0.0515 H   0  0  0  0  0  0
   -1.3243    2.2544   -1.5253 H   0  0  0  0  0  0
   -1.6358    2.5267    0.2059 H   0  0  0  0  0  0
   -0.0764    1.8502   -0.3221 H   0  0  0  0  0  0
   -7.6149    0.3242    0.7530 H   0  0  0  0  0  0
   -7.3371   -1.3321    0.7060 H   0  0  0  0  0  0
  1  2  1  0  0  0
  1  6  2  0  0  0
  2  3  2  0  0  0
  2 23  1  0  0  0
  3  4  1  0  0  0
  4  5  2  0  0  0
  4 11  1  0  0  0
  5  6  1  0  0  0
  5  8  1  0  0  0
  6  7  1  0  0  0
  7 24  1  0  0  0
  7 25  1  0  0  0
  8  9  2  0  0  0
  8 22  1  0  0  0
  9 10  1  0  0  0
  9 12  1  0  0  0
 10 11  2  0  0  0
 10 26  1  0  0  0
 12 13  1  0  0  0
 12 27  1  0  0  0
 12 28  1  0  0  0
 13 14  1  0  0  0
 14 15  1  0  0  0
 14 19  2  0  0  0
 15 16  2  0  0  0
 15 29  1  0  0  0
 16 17  1  0  0  0
 16 30  1  0  0  0
 17 18  2  0  0  0
 17 31  1  0  0  0
 18 19  1  0  0  0
 18 20  1  0  0  0
 19 32  1  0  0  0
 20 21  1  0  0  0
 21 33  1  0  0  0
 21 34  1  0  0  0
 21 35  1  0  0  0
 22 36  1  0  0  0
 22 37  1  0  0  0
 22 38  1  0  0  0
 23 39  1  0  0  0
 23 40  1  0  0  0
M  END
>  <ACTIVITY>
6.22185

>  <set_rl>
1

>  <Min_dist>
999.9

>  <Avg_dist>
999.9

>  <PC_uM>
0.34

>  <TG_uM>
0.11

>  <RL_uM>
0.6

$$$$
9-13G
  Cerius2 12110214553D 1   1.00000                          
 
 40 42  0  0  0  0  0  0  0  0999 V2000
   -5.2565    1.0620    0.1222 N   0  0  0  0  0  0
   -5.6868   -0.1903   -0.0007 C   0  0  0  0  0  0
   -4.8733   -1.2109   -0.1972 N   0  0  0  0  0  0
   -3.5492   -1.0197   -0.2830 C   0  0  0  0  0  0
   -3.0471    0.2990   -0.1581 C   0  0  0  0  0  0
   -3.9661    1.3566    0.0522 C   0  0  0  0  0  0
   -3.5300    2.6571    0.1798 N   0  0  0  0  0  0
   -1.6672    0.5180   -0.2446 C   0  0  0  0  0  0
   -0.8546   -0.5662   -0.4485 C   0  0  0  0  0  0
   -1.4094   -1.8353   -0.5628 C   0  0  0  0  0  0
   -2.7060   -2.0336   -0.4806 N   0  0  0  0  0  0
    0.6378   -0.3828   -0.5492 C   0  0  0  0  0  0
    1.3769   -0.5222    1.1015 S   0  0  0  0  0  0
    3.0743   -0.2746    0.6986 C   0  0  0  0  0  0
    4.0373   -0.3006    1.6996 C   0  0  0  0  0  0
    5.3673   -0.1069    1.3826 C   0  0  0  0  0  0
    5.7419    0.1136    0.0653 C   0  0  0  0  0  0
    4.7812    0.1397   -0.9349 C   0  0  0  0  0  0
    3.4512   -0.0590   -0.6210 C   0  0  0  0  0  0
    7.0520    0.3047   -0.2456 O   0  0  0  0  0  0
    7.1163    0.5028   -1.6594 C   0  0  0  0  0  0
   -1.0924    1.9053   -0.1176 C   0  0  0  0  0  0
   -7.0445   -0.4337    0.0813 N   0  0  0  0  0  0
   -3.9289    3.2393    0.8453 H   0  0  0  0  0  0
   -2.8241    2.9906   -0.3958 H   0  0  0  0  0  0
   -0.7576   -2.6812   -0.7237 H   0  0  0  0  0  0
    1.0551   -1.1510   -1.2002 H   0  0  0  0  0  0
    0.8558    0.6018   -0.9630 H   0  0  0  0  0  0
    3.7458   -0.4718    2.7253 H   0  0  0  0  0  0
    6.1160   -0.1267    2.1607 H   0  0  0  0  0  0
    5.0740    0.3118   -1.9602 H   0  0  0  0  0  0
    2.7034   -0.0386   -1.3999 H   0  0  0  0  0  0
    8.1528    0.6610   -1.9573 H   0  0  0  0  0  0
    6.7224   -0.3772   -2.1679 H   0  0  0  0  0  0
    6.5229    1.3757   -1.9313 H   0  0  0  0  0  0
   -1.1557    2.4142   -1.0793 H   0  0  0  0  0  0
   -1.6567    2.4655    0.6279 H   0  0  0  0  0  0
   -0.0489    1.8394    0.1906 H   0  0  0  0  0  0
   -7.6611    0.3011    0.2256 H   0  0  0  0  0  0
   -7.3810   -1.3393   -0.0054 H   0  0  0  0  0  0
  1  2  1  0  0  0
  1  6  2  0  0  0
  2  3  2  0  0  0
  2 23  1  0  0  0
  3  4  1  0  0  0
  4  5  2  0  0  0
  4 11  1  0  0  0
  5  6  1  0  0  0
  5  8  1  0  0  0
  6  7  1  0  0  0
  7 24  1  0  0  0
  7 25  1  0  0  0
  8  9  2  0  0  0
  8 22  1  0  0  0
  9 10  1  0  0  0
  9 12  1  0  0  0
 10 11  2  0  0  0
 10 26  1  0  0  0
 12 13  1  0  0  0
 12 27  1  0  0  0
 12 28  1  0  0  0
 13 14  1  0  0  0
 14 15  1  0  0  0
 14 19  2  0  0  0
 15 16  2  0  0  0
 15 29  1  0  0  0
 16 17  1  0  0  0
 16 30  1  0  0  0
 17 18  2  0  0  0
 17 20  1  0  0  0
 18 19  1  0  0  0
 18 31  1  0  0  0
 19 32  1  0  0  0
 20 21  1  0  0  0
 21 33  1  0  0  0
 21 34  1  0  0  0
 21 35  1  0  0  0
 22 36  1  0  0  0
 22 37  1  0  0  0
 22 38  1  0  0  0
 23 39  1  0  0  0
 23 40  1  0  0  0
M  END
>  <ACTIVITY>
6.284

>  <set_rl>
1

>  <Min_dist>
999.9

>  <Avg_dist>
999.9

>  <PC_uM>
0.56

>  <TG_uM>
0.063

>  <RL_uM>
0.52

$$$$
9-13H
  Cerius2 12110214553D 1   1.00000                          
 
 44 46  0  0  0  0  0  0  0  0999 V2000
   -5.7578   -0.1451   -1.0787 N   0  0  0  0  0  0
   -6.1879    0.2755    0.1073 C   0  0  0  0  0  0
   -5.3848    0.4478    1.1404 N   0  0  0  0  0  0
   -4.0720    0.1990    1.0314 C   0  0  0  0  0  0
   -3.5705   -0.2515   -0.2144 C   0  0  0  0  0  0
   -4.4781   -0.4185   -1.2895 C   0  0  0  0  0  0
   -4.0421   -0.8546   -2.5214 N   0  0  0  0  0  0
   -2.2023   -0.5161   -0.3472 C   0  0  0  0  0  0
   -1.4002   -0.3251    0.7470 C   0  0  0  0  0  0
   -1.9539    0.1190    1.9420 C   0  0  0  0  0  0
   -3.2394    0.3654    2.0596 N   0  0  0  0  0  0
    0.0793   -0.5964    0.6553 C   0  0  0  0  0  0
    0.9403    0.9148    0.1397 S   0  0  0  0  0  0
    2.6013    0.3272    0.1150 C   0  0  0  0  0  0
    2.8763   -0.9927    0.4495 C   0  0  0  0  0  0
    4.1786   -1.4546    0.4310 C   0  0  0  0  0  0
    5.2126   -0.6026    0.0785 C   0  0  0  0  0  0
    4.9407    0.7201   -0.2576 C   0  0  0  0  0  0
    3.6351    1.1822   -0.2444 C   0  0  0  0  0  0
    5.9554    1.5569   -0.6033 O   0  0  0  0  0  0
    5.3647    2.8264   -0.8889 C   0  0  0  0  0  0
    6.4946   -1.0591    0.0613 O   0  0  0  0  0  0
    6.4486   -2.4340    0.4480 C   0  0  0  0  0  0
   -1.6286   -0.9973   -1.6550 C   0  0  0  0  0  0
   -7.5342    0.5443    0.2648 N   0  0  0  0  0  0
   -4.3940   -0.4521   -3.3307 H   0  0  0  0  0  0
   -3.3832   -1.5641   -2.5794 H   0  0  0  0  0  0
   -1.3104    0.2651    2.7970 H   0  0  0  0  0  0
    0.4519   -0.9123    1.6297 H   0  0  0  0  0  0
    0.2595   -1.3846   -0.0757 H   0  0  0  0  0  0
    2.0717   -1.6585    0.7246 H   0  0  0  0  0  0
    4.3906   -2.4809    0.6921 H   0  0  0  0  0  0
    3.4222    2.2083   -0.5053 H   0  0  0  0  0  0
    6.1438    3.5341   -1.1723 H   0  0  0  0  0  0
    4.6544    2.7204   -1.7088 H   0  0  0  0  0  0
    4.8455    3.1930   -0.0034 H   0  0  0  0  0  0
    7.4580   -2.8452    0.4489 H   0  0  0  0  0  0
    6.0220   -2.5162    1.4477 H   0  0  0  0  0  0
    5.8306   -2.9894   -0.2574 H   0  0  0  0  0  0
   -1.7667   -2.0753   -1.7376 H   0  0  0  0  0  0
   -2.1394   -0.5012   -2.4803 H   0  0  0  0  0  0
   -0.5647   -0.7634   -1.6930 H   0  0  0  0  0  0
   -8.1430    0.4250   -0.4808 H   0  0  0  0  0  0
   -7.8704    0.8521    1.1210 H   0  0  0  0  0  0
  1  2  1  0  0  0
  1  6  2  0  0  0
  2  3  2  0  0  0
  2 25  1  0  0  0
  3  4  1  0  0  0
  4  5  2  0  0  0
  4 11  1  0  0  0
  5  6  1  0  0  0
  5  8  1  0  0  0
  6  7  1  0  0  0
  7 26  1  0  0  0
  7 27  1  0  0  0
  8  9  2  0  0  0
  8 24  1  0  0  0
  9 10  1  0  0  0
  9 12  1  0  0  0
 10 11  2  0  0  0
 10 28  1  0  0  0
 12 13  1  0  0  0
 12 29  1  0  0  0
 12 30  1  0  0  0
 13 14  1  0  0  0
 14 15  1  0  0  0
 14 19  2  0  0  0
 15 16  2  0  0  0
 15 31  1  0  0  0
 16 17  1  0  0  0
 16 32  1  0  0  0
 17 18  2  0  0  0
 17 22  1  0  0  0
 18 19  1  0  0  0
 18 20  1  0  0  0
 19 33  1  0  0  0
 20 21  1  0  0  0
 21 34  1  0  0  0
 21 35  1  0  0  0
 21 36  1  0  0  0
 22 23  1  0  0  0
 23 37  1  0  0  0
 23 38  1  0  0  0
 23 39  1  0  0  0
 24 40  1  0  0  0
 24 41  1  0  0  0
 24 42  1  0  0  0
 25 43  1  0  0  0
 25 44  1  0  0  0
M  END
>  <ACTIVITY>
6.74473

>  <set_rl>
1

>  <Min_dist>
999.9

>  <Avg_dist>
999.9

>  <PC_uM>
0.15

>  <TG_uM>
0.03

>  <RL_uM>
0.18

$$$$
9-13I
  Cerius2 12110214553D 1   1.00000                          
 
 36 38  0  0  0  0  0  0  0  0999 V2000
   -5.1717    0.8750    0.5733 N   0  0  0  0  0  0
   -5.5926   -0.1161   -0.2072 C   0  0  0  0  0  0
   -4.7680   -0.9036   -0.8718 N   0  0  0  0  0  0
   -3.4415   -0.7303   -0.7839 C   0  0  0  0  0  0
   -2.9491    0.3144    0.0363 C   0  0  0  0  0  0
   -3.8799    1.1289    0.7273 C   0  0  0  0  0  0
   -3.4536    2.1585    1.5373 N   0  0  0  0  0  0
   -1.5670    0.5102    0.1407 C   0  0  0  0  0  0
   -0.7428   -0.3276   -0.5636 C   0  0  0  0  0  0
   -1.2885   -1.3342   -1.3512 C   0  0  0  0  0  0
   -2.5872   -1.5124   -1.4447 N   0  0  0  0  0  0
    0.7525   -0.1575   -0.4848 C   0  0  0  0  0  0
    1.4039   -1.1594    0.8799 S   0  0  0  0  0  0
    3.1197   -0.7818    0.7447 C   0  0  0  0  0  0
    4.0301   -1.3527    1.6265 C   0  0  0  0  0  0
    5.3739   -1.0549    1.5183 C   0  0  0  0  0  0
    5.8153   -0.1893    0.5341 C   0  0  0  0  0  0
    4.9122    0.3813   -0.3459 C   0  0  0  0  0  0
    3.5663    0.0826   -0.2469 C   0  0  0  0  0  0
    5.4713    1.4672   -1.5795 Cl  0  0  0  0  0  0
   -1.0023    1.6103    1.0020 C   0  0  0  0  0  0
   -6.9523   -0.3310   -0.3272 N   0  0  0  0  0  0
   -3.8880    2.3164    2.3900 H   0  0  0  0  0  0
   -2.7189    2.7254    1.2548 H   0  0  0  0  0  0
   -0.6275   -1.9874   -1.9016 H   0  0  0  0  0  0
    1.2049   -0.4819   -1.4219 H   0  0  0  0  0  0
    0.9901    0.8920   -0.3108 H   0  0  0  0  0  0
    3.6865   -2.0282    2.3959 H   0  0  0  0  0  0
    6.0813   -1.4984    2.2033 H   0  0  0  0  0  0
    6.8670    0.0423    0.4523 H   0  0  0  0  0  0
    2.8617    0.5276   -0.9339 H   0  0  0  0  0  0
   -1.0158    2.5489    0.4479 H   0  0  0  0  0  0
   -1.6061    1.7120    1.9038 H   0  0  0  0  0  0
    0.0236    1.3658    1.2774 H   0  0  0  0  0  0
   -7.5770    0.2353    0.1524 H   0  0  0  0  0  0
   -7.2821   -1.0481   -0.8909 H   0  0  0  0  0  0
  1  2  1  0  0  0
  1  6  2  0  0  0
  2  3  2  0  0  0
  2 22  1  0  0  0
  3  4  1  0  0  0
  4  5  2  0  0  0
  4 11  1  0  0  0
  5  6  1  0  0  0
  5  8  1  0  0  0
  6  7  1  0  0  0
  7 23  1  0  0  0
  7 24  1  0  0  0
  8  9  2  0  0  0
  8 21  1  0  0  0
  9 10  1  0  0  0
  9 12  1  0  0  0
 10 11  2  0  0  0
 10 25  1  0  0  0
 12 13  1  0  0  0
 12 26  1  0  0  0
 12 27  1  0  0  0
 13 14  1  0  0  0
 14 15  1  0  0  0
 14 19  2  0  0  0
 15 16  2  0  0  0
 15 28  1  0  0  0
 16 17  1  0  0  0
 16 29  1  0  0  0
 17 18  2  0  0  0
 17 30  1  0  0  0
 18 19  1  0  0  0
 18 20  1  0  0  0
 19 31  1  0  0  0
 21 32  1  0  0  0
 21 33  1  0  0  0
 21 34  1  0  0  0
 22 35  1  0  0  0
 22 36  1  0  0  0
M  END
>  <ACTIVITY>
6.72125

>  <set_rl>
1

>  <Min_dist>
999.9

>  <Avg_dist>
999.9

>  <PC_uM>
0.068

>  <TG_uM>
0.09

>  <RL_uM>
0.19

$$$$
9-13J
  Cerius2 12110214553D 1   1.00000                          
 
 36 38  0  0  0  0  0  0  0  0999 V2000
   -5.3827    1.0728    0.1279 N   0  0  0  0  0  0
   -5.8164   -0.1830    0.0692 C   0  0  0  0  0  0
   -5.0078   -1.2126   -0.0981 N   0  0  0  0  0  0
   -3.6855   -1.0276   -0.2187 C   0  0  0  0  0  0
   -3.1799    0.2944   -0.1624 C   0  0  0  0  0  0
   -4.0937    1.3618    0.0192 C   0  0  0  0  0  0
   -3.6541    2.6660    0.0804 N   0  0  0  0  0  0
   -1.8018    0.5070   -0.2861 C   0  0  0  0  0  0
   -0.9944   -0.5864   -0.4580 C   0  0  0  0  0  0
   -1.5524   -1.8584   -0.5049 C   0  0  0  0  0  0
   -2.8472   -2.0508   -0.3881 N   0  0  0  0  0  0
    0.4958   -0.4102   -0.5966 C   0  0  0  0  0  0
    1.2678   -0.4777    1.0435 S   0  0  0  0  0  0
    2.9569   -0.2510    0.5962 C   0  0  0  0  0  0
    3.9407   -0.2341    1.5775 C   0  0  0  0  0  0
    5.2637   -0.0568    1.2238 C   0  0  0  0  0  0
    5.6102    0.1041   -0.1064 C   0  0  0  0  0  0
    4.6326    0.0882   -1.0859 C   0  0  0  0  0  0
    3.3086   -0.0945   -0.7390 C   0  0  0  0  0  0
    7.2745    0.3268   -0.5472 Cl  0  0  0  0  0  0
   -1.2235    1.8976   -0.2321 C   0  0  0  0  0  0
   -7.1724   -0.4203    0.1891 N   0  0  0  0  0  0
   -4.0391    3.2777    0.7273 H   0  0  0  0  0  0
   -2.9596    2.9725   -0.5235 H   0  0  0  0  0  0
   -0.9046   -2.7117   -0.6413 H   0  0  0  0  0  0
    0.8994   -1.2071   -1.2212 H   0  0  0  0  0  0
    0.7062    0.5548   -1.0578 H   0  0  0  0  0  0
    3.6709   -0.3593    2.6157 H   0  0  0  0  0  0
    6.0287   -0.0432    1.9860 H   0  0  0  0  0  0
    4.9060    0.2147   -2.1231 H   0  0  0  0  0  0
    2.5462   -0.1071   -1.5038 H   0  0  0  0  0  0
   -1.3058    2.3636   -1.2140 H   0  0  0  0  0  0
   -1.7724    2.4912    0.4990 H   0  0  0  0  0  0
   -0.1742    1.8437    0.0577 H   0  0  0  0  0  0
   -7.7853    0.3212    0.3130 H   0  0  0  0  0  0
   -7.5112   -1.3283    0.1492 H   0  0  0  0  0  0
  1  2  1  0  0  0
  1  6  2  0  0  0
  2  3  2  0  0  0
  2 22  1  0  0  0
  3  4  1  0  0  0
  4  5  2  0  0  0
  4 11  1  0  0  0
  5  6  1  0  0  0
  5  8  1  0  0  0
  6  7  1  0  0  0
  7 23  1  0  0  0
  7 24  1  0  0  0
  8  9  2  0  0  0
  8 21  1  0  0  0
  9 10  1  0  0  0
  9 12  1  0  0  0
 10 11  2  0  0  0
 10 25  1  0  0  0
 12 13  1  0  0  0
 12 26  1  0  0  0
 12 27  1  0  0  0
 13 14  1  0  0  0
 14 15  1  0  0  0
 14 19  2  0  0  0
 15 16  2  0  0  0
 15 28  1  0  0  0
 16 17  1  0  0  0
 16 29  1  0  0  0
 17 18  2  0  0  0
 17 20  1  0  0  0
 18 19  1  0  0  0
 18 30  1  0  0  0
 19 31  1  0  0  0
 21 32  1  0  0  0
 21 33  1  0  0  0
 21 34  1  0  0  0
 22 35  1  0  0  0
 22 36  1  0  0  0
M  END
>  <ACTIVITY>
6.4318

>  <set_rl>
1

>  <Min_dist>
999.9

>  <Avg_dist>
999.9

>  <PC_uM>
0.36

>  <TG_uM>
0.09

>  <RL_uM>
0.37

$$$$
9-13L
  Cerius2 12110214553D 1   1.00000                          
 
 44 46  0  0  0  0  0  0  0  0999 V2000
   -5.0402   -0.9467   -0.5449 N   0  0  0  0  0  0
   -5.5175    0.0460    0.2003 C   0  0  0  0  0  0
   -4.7528    1.0002    0.6968 N   0  0  0  0  0  0
   -3.4326    1.0055    0.4637 C   0  0  0  0  0  0
   -2.8813   -0.0338   -0.3252 C   0  0  0  0  0  0
   -3.7492   -1.0319   -0.8329 C   0  0  0  0  0  0
   -3.2639   -2.0645   -1.6049 N   0  0  0  0  0  0
   -1.5048   -0.0445   -0.5796 C   0  0  0  0  0  0
   -0.7436    0.9629   -0.0477 C   0  0  0  0  0  0
   -1.3452    1.9542    0.7184 C   0  0  0  0  0  0
   -2.6382    1.9582    0.9533 N   0  0  0  0  0  0
    0.7430    0.9957   -0.2924 C   0  0  0  0  0  0
    1.3951   -0.0310    0.5242 N   0  0  0  0  0  0
    2.7796   -0.2024    0.4559 C   0  0  0  0  0  0
    3.5387    0.5997   -0.3855 C   0  0  0  0  0  0
    4.9120    0.4268   -0.4500 C   0  0  0  0  0  0
    5.5255   -0.5470    0.3260 C   0  0  0  0  0  0
    4.7686   -1.3444    1.1629 C   0  0  0  0  0  0
    3.3997   -1.1719    1.2342 C   0  0  0  0  0  0
    2.5774   -2.0431    2.1485 C   0  0  0  0  0  0
    5.6579    1.2100   -1.2729 O   0  0  0  0  0  0
    7.0167    0.7954   -1.1180 C   0  0  0  0  0  0
   -0.8785   -1.1323   -1.4136 C   0  0  0  0  0  0
   -6.8731    0.0801    0.4659 N   0  0  0  0  0  0
   -2.4275   -2.4952   -1.3686 H   0  0  0  0  0  0
   -3.7586   -2.3609   -2.3849 H   0  0  0  0  0  0
   -0.7336    2.7424    1.1321 H   0  0  0  0  0  0
    0.9421    0.8023   -1.3465 H   0  0  0  0  0  0
    1.1340    1.9769   -0.0230 H   0  0  0  0  0  0
    0.8654   -0.5917    1.1123 H   0  0  0  0  0  0
    3.0597    1.3566   -0.9888 H   0  0  0  0  0  0
    6.5958   -0.6818    0.2753 H   0  0  0  0  0  0
    5.2484   -2.1016    1.7653 H   0  0  0  0  0  0
    2.5044   -1.5733    3.1293 H   0  0  0  0  0  0
    1.5786   -2.1678    1.7301 H   0  0  0  0  0  0
    3.0543   -3.0182    2.2471 H   0  0  0  0  0  0
    7.6563    1.3987   -1.7623 H   0  0  0  0  0  0
    7.3203    0.9263   -0.0793 H   0  0  0  0  0  0
    7.1098   -0.2549   -1.3942 H   0  0  0  0  0  0
   -0.6924   -2.0067   -0.7899 H   0  0  0  0  0  0
   -1.5540   -1.4022   -2.2254 H   0  0  0  0  0  0
    0.0639   -0.7749   -1.8287 H   0  0  0  0  0  0
   -7.4544   -0.6106    0.1111 H   0  0  0  0  0  0
   -7.2434    0.7948    1.0072 H   0  0  0  0  0  0
  1  2  1  0  0  0
  1  6  2  0  0  0
  2  3  2  0  0  0
  2 24  1  0  0  0
  3  4  1  0  0  0
  4  5  2  0  0  0
  4 11  1  0  0  0
  5  6  1  0  0  0
  5  8  1  0  0  0
  6  7  1  0  0  0
  7 25  1  0  0  0
  7 26  1  0  0  0
  8  9  2  0  0  0
  8 23  1  0  0  0
  9 10  1  0  0  0
  9 12  1  0  0  0
 10 11  2  0  0  0
 10 27  1  0  0  0
 12 13  1  0  0  0
 12 28  1  0  0  0
 12 29  1  0  0  0
 13 14  1  0  0  0
 13 30  1  0  0  0
 14 15  1  0  0  0
 14 19  2  0  0  0
 15 16  2  0  0  0
 15 31  1  0  0  0
 16 17  1  0  0  0
 16 21  1  0  0  0
 17 18  2  0  0  0
 17 32  1  0  0  0
 18 19  1  0  0  0
 18 33  1  0  0  0
 19 20  1  0  0  0
 20 34  1  0  0  0
 20 35  1  0  0  0
 20 36  1  0  0  0
 21 22  1  0  0  0
 22 37  1  0  0  0
 22 38  1  0  0  0
 22 39  1  0  0  0
 23 40  1  0  0  0
 23 41  1  0  0  0
 23 42  1  0  0  0
 24 43  1  0  0  0
 24 44  1  0  0  0
M  END
>  <ACTIVITY>
6.82391

>  <set_rl>
1

>  <Min_dist>
999.9

>  <Avg_dist>
999.9

>  <PC_uM>
0.038

>  <TG_uM>
0.023

>  <RL_uM>
0.15

$$$$
9-13M
  Cerius2 12110214553D 1   1.00000                          
 
 44 46  0  0  0  0  0  0  0  0999 V2000
   -5.0301    0.6589   -0.3843 N   0  0  0  0  0  0
   -5.2519   -0.4553    0.3072 C   0  0  0  0  0  0
   -4.2787   -1.2308    0.7469 N   0  0  0  0  0  0
   -2.9974   -0.9178    0.5073 C   0  0  0  0  0  0
   -2.7151    0.2607   -0.2263 C   0  0  0  0  0  0
   -3.7990    1.0560   -0.6736 C   0  0  0  0  0  0
   -3.5792    2.2112   -1.3912 N   0  0  0  0  0  0
   -1.3830    0.6039   -0.4858 C   0  0  0  0  0  0
   -0.4004   -0.2255   -0.0127 C   0  0  0  0  0  0
   -0.7430   -1.3678    0.7009 C   0  0  0  0  0  0
   -1.9958   -1.6840    0.9409 N   0  0  0  0  0  0
    1.0490    0.1000   -0.2662 C   0  0  0  0  0  0
    1.8966   -0.9362    0.3388 N   0  0  0  0  0  0
    3.2228   -0.5785    0.0701 C   0  0  0  0  0  0
    3.7259    0.6365    0.5314 C   0  0  0  0  0  0
    5.0388    0.9850    0.2630 C   0  0  0  0  0  0
    5.8478    0.1284   -0.4617 C   0  0  0  0  0  0
    5.3495   -1.0765   -0.9200 C   0  0  0  0  0  0
    4.0414   -1.4347   -0.6510 C   0  0  0  0  0  0
    3.5016   -2.7494   -1.1524 C   0  0  0  0  0  0
    2.9291    1.4781    1.2432 O   0  0  0  0  0  0
    3.7220    2.6217    1.5680 C   0  0  0  0  0  0
   -1.0399    1.8486   -1.2629 C   0  0  0  0  0  0
   -6.5580   -0.8164    0.5773 N   0  0  0  0  0  0
   -4.1435    2.4252   -2.1505 H   0  0  0  0  0  0
   -2.8601    2.8106   -1.1371 H   0  0  0  0  0  0
    0.0414   -2.0132    1.0678 H   0  0  0  0  0  0
    1.2307    0.1366   -1.3403 H   0  0  0  0  0  0
    1.2868    1.0676    0.1757 H   0  0  0  0  0  0
    1.7737   -0.8646    1.3377 H   0  0  0  0  0  0
    5.4312    1.9259    0.6194 H   0  0  0  0  0  0
    6.8715    0.4022   -0.6704 H   0  0  0  0  0  0
    5.9847   -1.7417   -1.4861 H   0  0  0  0  0  0
    3.6752   -3.5225   -0.4039 H   0  0  0  0  0  0
    2.4314   -2.6560   -1.3369 H   0  0  0  0  0  0
    4.0078   -3.0204   -2.0789 H   0  0  0  0  0  0
    3.1226    3.3284    2.1418 H   0  0  0  0  0  0
    4.5828    2.3107    2.1601 H   0  0  0  0  0  0
    4.0656    3.0982    0.6499 H   0  0  0  0  0  0
   -1.0520    2.7093   -0.5942 H   0  0  0  0  0  0
   -0.0471    1.7420   -1.6999 H   0  0  0  0  0  0
   -1.7725    1.9949   -2.0566 H   0  0  0  0  0  0
   -7.2893   -0.2614    0.2642 H   0  0  0  0  0  0
   -6.7436   -1.6250    1.0800 H   0  0  0  0  0  0
  1  2  1  0  0  0
  1  6  2  0  0  0
  2  3  2  0  0  0
  2 24  1  0  0  0
  3  4  1  0  0  0
  4  5  2  0  0  0
  4 11  1  0  0  0
  5  6  1  0  0  0
  5  8  1  0  0  0
  6  7  1  0  0  0
  7 25  1  0  0  0
  7 26  1  0  0  0
  8  9  2  0  0  0
  8 23  1  0  0  0
  9 10  1  0  0  0
  9 12  1  0  0  0
 10 11  2  0  0  0
 10 27  1  0  0  0
 12 13  1  0  0  0
 12 28  1  0  0  0
 12 29  1  0  0  0
 13 14  1  0  0  0
 13 30  1  0  0  0
 14 15  1  0  0  0
 14 19  2  0  0  0
 15 16  2  0  0  0
 15 21  1  0  0  0
 16 17  1  0  0  0
 16 31  1  0  0  0
 17 18  2  0  0  0
 17 32  1  0  0  0
 18 19  1  0  0  0
 18 33  1  0  0  0
 19 20  1  0  0  0
 20 34  1  0  0  0
 20 35  1  0  0  0
 20 36  1  0  0  0
 21 22  1  0  0  0
 22 37  1  0  0  0
 22 38  1  0  0  0
 22 39  1  0  0  0
 23 40  1  0  0  0
 23 41  1  0  0  0
 23 42  1  0  0  0
 24 43  1  0  0  0
 24 44  1  0  0  0
M  END
>  <ACTIVITY>
6.49485

>  <set_rl>
1

>  <Min_dist>
999.9

>  <Avg_dist>
999.9

>  <PC_uM>
1

>  <TG_uM>
0.1

>  <RL_uM>
0.32

$$$$
9-13R
  Cerius2 12110214553D 1   1.00000                          
 
 44 46  0  0  0  0  0  0  0  0999 V2000
   -5.7747   -0.2377   -1.0212 N   0  0  0  0  0  0
   -6.2403    0.1592    0.1596 C   0  0  0  0  0  0
   -5.4575    0.5996    1.1266 N   0  0  0  0  0  0
   -4.1300    0.6652    0.9517 C   0  0  0  0  0  0
   -3.5907    0.2518   -0.2912 C   0  0  0  0  0  0
   -4.4779   -0.2118   -1.2939 C   0  0  0  0  0  0
   -4.0049   -0.6258   -2.5197 N   0  0  0  0  0  0
   -2.2068    0.3137   -0.4923 C   0  0  0  0  0  0
   -1.4268    0.7768    0.5345 C   0  0  0  0  0  0
   -2.0173    1.1674    1.7304 C   0  0  0  0  0  0
   -3.3174    1.1067    1.9124 N   0  0  0  0  0  0
    0.0685    0.8620    0.3676 C   0  0  0  0  0  0
    0.6449   -0.4831    0.4357 N   0  0  0  0  0  0
    2.0257   -0.6610    0.2910 C   0  0  0  0  0  0
    2.8501    0.4352    0.0831 C   0  0  0  0  0  0
    4.2133    0.2570   -0.0596 C   0  0  0  0  0  0
    4.7584   -1.0120    0.0044 C   0  0  0  0  0  0
    3.9428   -2.1093    0.2114 C   0  0  0  0  0  0
    2.5764   -1.9387    0.3610 C   0  0  0  0  0  0
    1.7730   -3.0171    0.5647 O   0  0  0  0  0  0
    2.6206   -4.1676    0.5745 C   0  0  0  0  0  0
    5.1076    1.4487   -0.2858 C   0  0  0  0  0  0
    6.4348    1.0210   -0.3989 F   0  0  0  0  0  0
    4.7260    2.1012   -1.4630 F   0  0  0  0  0  0
    4.9921    2.3302    0.7944 F   0  0  0  0  0  0
   -1.5928   -0.1169   -1.7995 C   0  0  0  0  0  0
   -7.6029    0.1086    0.3837 N   0  0  0  0  0  0
   -3.1970   -1.1599   -2.5727 H   0  0  0  0  0  0
   -4.4799   -0.3832   -3.3299 H   0  0  0  0  0  0
   -1.3909    1.5302    2.5319 H   0  0  0  0  0  0
    0.3014    1.3086   -0.5990 H   0  0  0  0  0  0
    0.4883    1.4778    1.1630 H   0  0  0  0  0  0
    0.0697   -1.2505    0.5810 H   0  0  0  0  0  0
    2.4268    1.4275    0.0323 H   0  0  0  0  0  0
    5.8241   -1.1466   -0.1079 H   0  0  0  0  0  0
    4.3718   -3.0992    0.2609 H   0  0  0  0  0  0
    2.0180   -5.0615    0.7356 H   0  0  0  0  0  0
    3.1381   -4.2457   -0.3817 H   0  0  0  0  0  0
    3.3522   -4.0731    1.3769 H   0  0  0  0  0  0
   -1.4678   -1.1997   -1.8030 H   0  0  0  0  0  0
   -2.2459    0.1760   -2.6216 H   0  0  0  0  0  0
   -0.6208    0.3615   -1.9195 H   0  0  0  0  0  0
   -8.1974   -0.2113   -0.3128 H   0  0  0  0  0  0
   -7.9649    0.3930    1.2375 H   0  0  0  0  0  0
  1  2  1  0  0  0
  1  6  2  0  0  0
  2  3  2  0  0  0
  2 27  1  0  0  0
  3  4  1  0  0  0
  4  5  2  0  0  0
  4 11  1  0  0  0
  5  6  1  0  0  0
  5  8  1  0  0  0
  6  7  1  0  0  0
  7 28  1  0  0  0
  7 29  1  0  0  0
  8  9  2  0  0  0
  8 26  1  0  0  0
  9 10  1  0  0  0
  9 12  1  0  0  0
 10 11  2  0  0  0
 10 30  1  0  0  0
 12 13  1  0  0  0
 12 31  1  0  0  0
 12 32  1  0  0  0
 13 14  1  0  0  0
 13 33  1  0  0  0
 14 15  1  0  0  0
 14 19  2  0  0  0
 15 16  2  0  0  0
 15 34  1  0  0  0
 16 17  1  0  0  0
 16 22  1  0  0  0
 17 18  2  0  0  0
 17 35  1  0  0  0
 18 19  1  0  0  0
 18 36  1  0  0  0
 19 20  1  0  0  0
 20 21  1  0  0  0
 21 37  1  0  0  0
 21 38  1  0  0  0
 21 39  1  0  0  0
 22 23  1  0  0  0
 22 24  1  0  0  0
 22 25  1  0  0  0
 26 40  1  0  0  0
 26 41  1  0  0  0
 26 42  1  0  0  0
 27 43  1  0  0  0
 27 44  1  0  0  0
M  END
>  <ACTIVITY>
7.69897

>  <set_rl>
1

>  <Min_dist>
999.9

>  <Avg_dist>
999.9

>  <PC_uM>
0.044

>  <TG_uM>
0.022

>  <RL_uM>
0.02

$$$$
9-13U
  Cerius2 12110214553D 1   1.00000                          
 
 46 48  0  0  0  0  0  0  0  0999 V2000
   -5.3558    0.8031   -0.1371 N   0  0  0  0  0  0
   -5.7296   -0.4666   -0.2663 C   0  0  0  0  0  0
   -4.8807   -1.4743   -0.1902 N   0  0  0  0  0  0
   -3.5764   -1.2512    0.0252 C   0  0  0  0  0  0
   -3.1341    0.0869    0.1684 C   0  0  0  0  0  0
   -4.0893    1.1293    0.0782 C   0  0  0  0  0  0
   -3.7116    2.4476    0.2099 N   0  0  0  0  0  0
   -1.7758    0.3392    0.3943 C   0  0  0  0  0  0
   -0.9252   -0.7323    0.4675 C   0  0  0  0  0  0
   -1.4218   -2.0218    0.3185 C   0  0  0  0  0  0
   -2.6983   -2.2515    0.1066 N   0  0  0  0  0  0
    0.5462   -0.5132    0.7087 C   0  0  0  0  0  0
    1.2657   -0.3604   -0.6329 C   0  0  0  0  0  0
    2.7370   -0.1413   -0.3917 C   0  0  0  0  0  0
    3.5935   -1.2228   -0.3181 C   0  0  0  0  0  0
    4.9476   -1.0211   -0.0966 C   0  0  0  0  0  0
    5.4420    0.2666    0.0510 C   0  0  0  0  0  0
    4.5857    1.3477   -0.0225 C   0  0  0  0  0  0
    3.2321    1.1463   -0.2493 C   0  0  0  0  0  0
    2.3891    2.2108   -0.3222 O   0  0  0  0  0  0
    3.1849    3.3818   -0.1285 C   0  0  0  0  0  0
    5.7906   -2.0856   -0.0237 O   0  0  0  0  0  0
    7.0993   -1.5609    0.2083 C   0  0  0  0  0  0
   -1.2642    1.7480    0.5518 C   0  0  0  0  0  0
   -7.0650   -0.7430   -0.4894 N   0  0  0  0  0  0
   -3.0630    2.7011    0.8851 H   0  0  0  0  0  0
   -4.0941    3.1222   -0.3727 H   0  0  0  0  0  0
   -0.7404   -2.8575    0.3780 H   0  0  0  0  0  0
    0.6865    0.3908    1.3013 H   0  0  0  0  0  0
    0.9574   -1.3676    1.2463 H   0  0  0  0  0  0
    1.1253   -1.2644   -1.2255 H   0  0  0  0  0  0
    0.8544    0.4940   -1.1705 H   0  0  0  0  0  0
    3.2085   -2.2253   -0.4327 H   0  0  0  0  0  0
    6.4964    0.4236    0.2239 H   0  0  0  0  0  0
    4.9706    2.3502    0.0928 H   0  0  0  0  0  0
    2.5489    4.2656   -0.1788 H   0  0  0  0  0  0
    3.6668    3.3361    0.8481 H   0  0  0  0  0  0
    3.9458    3.4369   -0.9069 H   0  0  0  0  0  0
    7.8134   -2.3818    0.2745 H   0  0  0  0  0  0
    7.3779   -0.9024   -0.6144 H   0  0  0  0  0  0
    7.1049   -0.9983    1.1419 H   0  0  0  0  0  0
   -1.4177    2.0775    1.5794 H   0  0  0  0  0  0
   -0.2004    1.7766    0.3161 H   0  0  0  0  0  0
   -1.8045    2.4086   -0.1262 H   0  0  0  0  0  0
   -7.7070   -0.0182   -0.5487 H   0  0  0  0  0  0
   -7.3605   -1.6618   -0.5868 H   0  0  0  0  0  0
  1  2  1  0  0  0
  1  6  2  0  0  0
  2  3  2  0  0  0
  2 25  1  0  0  0
  3  4  1  0  0  0
  4  5  2  0  0  0
  4 11  1  0  0  0
  5  6  1  0  0  0
  5  8  1  0  0  0
  6  7  1  0  0  0
  7 26  1  0  0  0
  7 27  1  0  0  0
  8  9  2  0  0  0
  8 24  1  0  0  0
  9 10  1  0  0  0
  9 12  1  0  0  0
 10 11  2  0  0  0
 10 28  1  0  0  0
 12 13  1  0  0  0
 12 29  1  0  0  0
 12 30  1  0  0  0
 13 14  1  0  0  0
 13 31  1  0  0  0
 13 32  1  0  0  0
 14 15  1  0  0  0
 14 19  2  0  0  0
 15 16  2  0  0  0
 15 33  1  0  0  0
 16 17  1  0  0  0
 16 22  1  0  0  0
 17 18  2  0  0  0
 17 34  1  0  0  0
 18 19  1  0  0  0
 18 35  1  0  0  0
 19 20  1  0  0  0
 20 21  1  0  0  0
 21 36  1  0  0  0
 21 37  1  0  0  0
 21 38  1  0  0  0
 22 23  1  0  0  0
 23 39  1  0  0  0
 23 40  1  0  0  0
 23 41  1  0  0  0
 24 42  1  0  0  0
 24 43  1  0  0  0
 24 44  1  0  0  0
 25 45  1  0  0  0
 25 46  1  0  0  0
M  END
>  <ACTIVITY>
6.11351

>  <set_rl>
1

>  <Min_dist>
999.9

>  <Avg_dist>
999.9

>  <PC_uM>
0.34

>  <TG_uM>
0.0079

>  <RL_uM>
0.77

$$$$
9-14A
  Cerius2 12110214553D 1   1.00000                          
 
 43 45  0  0  0  0  0  0  0  0999 V2000
   -4.6783   -1.0389   -0.3809 N   0  0  0  0  0  0
   -5.1545    0.0057    0.2904 C   0  0  0  0  0  0
   -4.3953    1.0118    0.6817 N   0  0  0  0  0  0
   -3.0823    1.0197    0.4112 C   0  0  0  0  0  0
   -2.5324   -0.0738   -0.3019 C   0  0  0  0  0  0
   -3.3942   -1.1264   -0.6976 C   0  0  0  0  0  0
   -2.9100   -2.2129   -1.3926 N   0  0  0  0  0  0
   -1.1634   -0.0827   -0.5939 C   0  0  0  0  0  0
   -0.4079    0.9794   -0.1717 C   0  0  0  0  0  0
   -1.0076    2.0223    0.5241 C   0  0  0  0  0  0
   -2.2936    2.0242    0.7949 N   0  0  0  0  0  0
    1.0707    1.0166   -0.4610 C   0  0  0  0  0  0
    1.7646    0.0749    0.4210 N   0  0  0  0  0  0
    3.1497   -0.0789    0.3271 C   0  0  0  0  0  0
    3.8708    0.6604   -0.6023 C   0  0  0  0  0  0
    5.2400    0.5062   -0.6922 C   0  0  0  0  0  0
    5.8936   -0.3833    0.1413 C   0  0  0  0  0  0
    5.1790   -1.1205    1.0672 C   0  0  0  0  0  0
    3.8098   -0.9670    1.1664 C   0  0  0  0  0  0
    3.0318   -1.7707    2.1763 C   0  0  0  0  0  0
    6.0231    1.3077   -1.6999 C   0  0  0  0  0  0
   -0.5389   -1.2271   -1.3499 C   0  0  0  0  0  0
   -6.5028    0.0392    0.5910 N   0  0  0  0  0  0
   -2.0593   -2.6074   -1.1445 H   0  0  0  0  0  0
   -3.4198   -2.5834   -2.1300 H   0  0  0  0  0  0
   -0.4005    2.8533    0.8515 H   0  0  0  0  0  0
    1.2448    0.7370   -1.5000 H   0  0  0  0  0  0
    1.4496    2.0237   -0.2873 H   0  0  0  0  0  0
    1.2622   -0.4418    1.0702 H   0  0  0  0  0  0
    3.3610    1.3546   -1.2538 H   0  0  0  0  0  0
    6.9645   -0.5024    0.0684 H   0  0  0  0  0  0
    5.6924   -1.8142    1.7165 H   0  0  0  0  0  0
    2.9781   -1.2199    3.1153 H   0  0  0  0  0  0
    2.0240   -1.9480    1.8009 H   0  0  0  0  0  0
    3.5307   -2.7254    2.3430 H   0  0  0  0  0  0
    6.3415    2.2473   -1.2485 H   0  0  0  0  0  0
    6.8992    0.7402   -2.0139 H   0  0  0  0  0  0
    5.3950    1.5152   -2.5662 H   0  0  0  0  0  0
   -0.3189   -2.0415   -0.6596 H   0  0  0  0  0  0
   -1.2308   -1.5770   -2.1160 H   0  0  0  0  0  0
    0.3847   -0.8905   -1.8208 H   0  0  0  0  0  0
   -7.0799   -0.6892    0.3131 H   0  0  0  0  0  0
   -6.8721    0.7912    1.0799 H   0  0  0  0  0  0
  1  2  1  0  0  0
  1  6  2  0  0  0
  2  3  2  0  0  0
  2 23  1  0  0  0
  3  4  1  0  0  0
  4  5  2  0  0  0
  4 11  1  0  0  0
  5  6  1  0  0  0
  5  8  1  0  0  0
  6  7  1  0  0  0
  7 24  1  0  0  0
  7 25  1  0  0  0
  8  9  2  0  0  0
  8 22  1  0  0  0
  9 10  1  0  0  0
  9 12  1  0  0  0
 10 11  2  0  0  0
 10 26  1  0  0  0
 12 13  1  0  0  0
 12 27  1  0  0  0
 12 28  1  0  0  0
 13 14  1  0  0  0
 13 29  1  0  0  0
 14 15  1  0  0  0
 14 19  2  0  0  0
 15 16  2  0  0  0
 15 30  1  0  0  0
 16 17  1  0  0  0
 16 21  1  0  0  0
 17 18  2  0  0  0
 17 31  1  0  0  0
 18 19  1  0  0  0
 18 32  1  0  0  0
 19 20  1  0  0  0
 20 33  1  0  0  0
 20 34  1  0  0  0
 20 35  1  0  0  0
 21 36  1  0  0  0
 21 37  1  0  0  0
 21 38  1  0  0  0
 22 39  1  0  0  0
 22 40  1  0  0  0
 22 41  1  0  0  0
 23 42  1  0  0  0
 23 43  1  0  0  0
M  END
>  <ACTIVITY>
6.92082

>  <set_rl>
1

>  <Min_dist>
999.9

>  <Avg_dist>
999.9

>  <PC_uM>
0.03

>  <TG_uM>
0.016

>  <RL_uM>
0.12

$$$$
9-14B
  Cerius2 12110214553D 1   1.00000                          
 
 44 46  0  0  0  0  0  0  0  0999 V2000
   -5.0883   -1.1396   -0.1812 N   0  0  0  0  0  0
   -5.5839   -0.0021    0.2974 C   0  0  0  0  0  0
   -4.8453    1.0736    0.4952 N   0  0  0  0  0  0
   -3.5344    1.0607    0.2146 C   0  0  0  0  0  0
   -2.9643   -0.1309   -0.2970 C   0  0  0  0  0  0
   -3.8045   -1.2553   -0.4899 C   0  0  0  0  0  0
   -3.3001   -2.4380   -0.9843 N   0  0  0  0  0  0
   -1.5972   -0.1630   -0.5963 C   0  0  0  0  0  0
   -0.8633    0.9732   -0.3782 C   0  0  0  0  0  0
   -1.4823    2.1108    0.1261 C   0  0  0  0  0  0
   -2.7663    2.1340    0.4049 N   0  0  0  0  0  0
    0.6122    0.9893   -0.6840 C   0  0  0  0  0  0
    1.3325    0.2353    0.3452 N   0  0  0  0  0  0
    2.7228    0.0972    0.2670 C   0  0  0  0  0  0
    3.4203    0.6747   -0.7860 C   0  0  0  0  0  0
    4.7922    0.5379   -0.8624 C   0  0  0  0  0  0
    5.4738   -0.1761    0.1123 C   0  0  0  0  0  0
    4.7781   -0.7535    1.1639 C   0  0  0  0  0  0
    3.4064   -0.6124    1.2451 C   0  0  0  0  0  0
    2.6506   -1.2398    2.3880 C   0  0  0  0  0  0
    6.8251   -0.3104    0.0363 O   0  0  0  0  0  0
    7.2436    0.3838   -1.1406 C   0  0  0  0  0  0
   -0.9516   -1.4107   -1.1418 C   0  0  0  0  0  0
   -6.9308    0.0562    0.6005 N   0  0  0  0  0  0
   -2.4392   -2.7638   -0.6782 H   0  0  0  0  0  0
   -3.8059   -2.9451   -1.6385 H   0  0  0  0  0  0
   -0.8920    2.9996    0.2937 H   0  0  0  0  0  0
    0.7864    0.5321   -1.6580 H   0  0  0  0  0  0
    0.9695    2.0190   -0.6968 H   0  0  0  0  0  0
    0.8456   -0.1681    1.0807 H   0  0  0  0  0  0
    2.8898    1.2303   -1.5451 H   0  0  0  0  0  0
    5.3348    0.9866   -1.6814 H   0  0  0  0  0  0
    5.3094   -1.3098    1.9219 H   0  0  0  0  0  0
    2.5894   -0.5324    3.2150 H   0  0  0  0  0  0
    1.6451   -1.5014    2.0585 H   0  0  0  0  0  0
    3.1706   -2.1395    2.7171 H   0  0  0  0  0  0
    8.3257    0.3036   -1.2443 H   0  0  0  0  0  0
    6.7613   -0.0568   -2.0132 H   0  0  0  0  0  0
    6.9630    1.4341   -1.0620 H   0  0  0  0  0  0
   -0.7093   -2.0837   -0.3194 H   0  0  0  0  0  0
   -1.6400   -1.9065   -1.8262 H   0  0  0  0  0  0
   -0.0386   -1.1443   -1.6744 H   0  0  0  0  0  0
   -7.4931   -0.7222    0.4629 H   0  0  0  0  0  0
   -7.3141    0.8755    0.9508 H   0  0  0  0  0  0
  1  2  1  0  0  0
  1  6  2  0  0  0
  2  3  2  0  0  0
  2 24  1  0  0  0
  3  4  1  0  0  0
  4  5  2  0  0  0
  4 11  1  0  0  0
  5  6  1  0  0  0
  5  8  1  0  0  0
  6  7  1  0  0  0
  7 25  1  0  0  0
  7 26  1  0  0  0
  8  9  2  0  0  0
  8 23  1  0  0  0
  9 10  1  0  0  0
  9 12  1  0  0  0
 10 11  2  0  0  0
 10 27  1  0  0  0
 12 13  1  0  0  0
 12 28  1  0  0  0
 12 29  1  0  0  0
 13 14  1  0  0  0
 13 30  1  0  0  0
 14 15  1  0  0  0
 14 19  2  0  0  0
 15 16  2  0  0  0
 15 31  1  0  0  0
 16 17  1  0  0  0
 16 32  1  0  0  0
 17 18  2  0  0  0
 17 21  1  0  0  0
 18 19  1  0  0  0
 18 33  1  0  0  0
 19 20  1  0  0  0
 20 34  1  0  0  0
 20 35  1  0  0  0
 20 36  1  0  0  0
 21 22  1  0  0  0
 22 37  1  0  0  0
 22 38  1  0  0  0
 22 39  1  0  0  0
 23 40  1  0  0  0
 23 41  1  0  0  0
 23 42  1  0  0  0
 24 43  1  0  0  0
 24 44  1  0  0  0
M  END
>  <ACTIVITY>
7.5376

>  <set_rl>
1

>  <Min_dist>
999.9

>  <Avg_dist>
999.9

>  <PC_uM>
0.17

>  <TG_uM>
0.0072

>  <RL_uM>
0.029

$$$$
9-14C
  Cerius2 12110214553D 1   1.00000                          
 
 44 46  0  0  0  0  0  0  0  0999 V2000
   -4.8643   -0.8265   -0.7907 N   0  0  0  0  0  0
   -5.3517   -0.2314    0.2942 C   0  0  0  0  0  0
   -4.6149    0.5197    1.0910 N   0  0  0  0  0  0
   -3.3145    0.7163    0.8312 C   0  0  0  0  0  0
   -2.7533    0.1007   -0.3145 C   0  0  0  0  0  0
   -3.5910   -0.6947   -1.1348 C   0  0  0  0  0  0
   -3.0951   -1.3157   -2.2600 N   0  0  0  0  0  0
   -1.3972    0.2951   -0.6021 C   0  0  0  0  0  0
   -0.6649    1.0815    0.2479 C   0  0  0  0  0  0
   -1.2747    1.6576    1.3559 C   0  0  0  0  0  0
   -2.5485    1.4709    1.6199 N   0  0  0  0  0  0
    0.7990    1.3210   -0.0179 C   0  0  0  0  0  0
    1.5602    0.1157    0.3198 N   0  0  0  0  0  0
    2.9482    0.0917    0.1414 C   0  0  0  0  0  0
    3.6051    1.2082   -0.3550 C   0  0  0  0  0  0
    4.9759    1.1821   -0.5302 C   0  0  0  0  0  0
    5.6953    0.0451   -0.2120 C   0  0  0  0  0  0
    5.0473   -1.0716    0.2833 C   0  0  0  0  0  0
    3.6746   -1.0515    0.4673 C   0  0  0  0  0  0
    3.0360   -2.1492    0.9544 O   0  0  0  0  0  0
    4.0368   -3.1449    1.1761 C   0  0  0  0  0  0
    5.6880    2.3956   -1.0700 C   0  0  0  0  0  0
   -0.7613   -0.3423   -1.8106 C   0  0  0  0  0  0
   -6.6877   -0.4069    0.6003 N   0  0  0  0  0  0
   -2.2216   -1.7369   -2.2363 H   0  0  0  0  0  0
   -3.6193   -1.3318   -3.0760 H   0  0  0  0  0  0
   -0.6859    2.2751    2.0180 H   0  0  0  0  0  0
    0.9429    1.5582   -1.0720 H   0  0  0  0  0  0
    1.1477    2.1539    0.5927 H   0  0  0  0  0  0
    1.1022   -0.6657    0.6669 H   0  0  0  0  0  0
    3.0455    2.0976   -0.6047 H   0  0  0  0  0  0
    6.7662    0.0290   -0.3508 H   0  0  0  0  0  0
    5.6123   -1.9581    0.5309 H   0  0  0  0  0  0
    3.5699   -4.0481    1.5688 H   0  0  0  0  0  0
    4.5363   -3.3738    0.2347 H   0  0  0  0  0  0
    4.7675   -2.7721    1.8939 H   0  0  0  0  0  0
    5.9888    3.0383   -0.2427 H   0  0  0  0  0  0
    6.5715    2.0812   -1.6257 H   0  0  0  0  0  0
    5.0188    2.9449   -1.7322 H   0  0  0  0  0  0
   -0.4855   -1.3704   -1.5763 H   0  0  0  0  0  0
   -1.4692   -0.3359   -2.6395 H   0  0  0  0  0  0
    0.1306    0.2185   -2.0901 H   0  0  0  0  0  0
   -7.2484   -0.9545    0.0288 H   0  0  0  0  0  0
   -7.0649    0.0176    1.3868 H   0  0  0  0  0  0
  1  2  1  0  0  0
  1  6  2  0  0  0
  2  3  2  0  0  0
  2 24  1  0  0  0
  3  4  1  0  0  0
  4  5  2  0  0  0
  4 11  1  0  0  0
  5  6  1  0  0  0
  5  8  1  0  0  0
  6  7  1  0  0  0
  7 25  1  0  0  0
  7 26  1  0  0  0
  8  9  2  0  0  0
  8 23  1  0  0  0
  9 10  1  0  0  0
  9 12  1  0  0  0
 10 11  2  0  0  0
 10 27  1  0  0  0
 12 13  1  0  0  0
 12 28  1  0  0  0
 12 29  1  0  0  0
 13 14  1  0  0  0
 13 30  1  0  0  0
 14 15  1  0  0  0
 14 19  2  0  0  0
 15 16  2  0  0  0
 15 31  1  0  0  0
 16 17  1  0  0  0
 16 22  1  0  0  0
 17 18  2  0  0  0
 17 32  1  0  0  0
 18 19  1  0  0  0
 18 33  1  0  0  0
 19 20  1  0  0  0
 20 21  1  0  0  0
 21 34  1  0  0  0
 21 35  1  0  0  0
 21 36  1  0  0  0
 22 37  1  0  0  0
 22 38  1  0  0  0
 22 39  1  0  0  0
 23 40  1  0  0  0
 23 41  1  0  0  0
 23 42  1  0  0  0
 24 43  1  0  0  0
 24 44  1  0  0  0
M  END
>  <ACTIVITY>
6.79588

>  <set_rl>
1

>  <Min_dist>
999.9

>  <Avg_dist>
999.9

>  <PC_uM>
0.068

>  <TG_uM>
0.015

>  <RL_uM>
0.16

$$$$
9-14K
  Cerius2 12110214553D 1   1.00000                          
 
 47 49  0  0  0  0  0  0  0  0999 V2000
   -5.9516    1.0308   -0.5252 N   0  0  0  0  0  0
   -6.2834   -0.0839    0.1196 C   0  0  0  0  0  0
   -5.3887   -0.9124    0.6245 N   0  0  0  0  0  0
   -4.0784   -0.6560    0.5036 C   0  0  0  0  0  0
   -3.6798    0.5209   -0.1766 C   0  0  0  0  0  0
   -4.6832    1.3745   -0.6981 C   0  0  0  0  0  0
   -4.3492    2.5308   -1.3683 N   0  0  0  0  0  0
   -2.3159    0.8054   -0.3123 C   0  0  0  0  0  0
   -1.4171   -0.0779    0.2253 C   0  0  0  0  0  0
   -1.8724   -1.2155    0.8812 C   0  0  0  0  0  0
   -3.1545   -1.4765    1.0049 N   0  0  0  0  0  0
    0.0622    0.1832    0.1053 C   0  0  0  0  0  0
    0.8063   -0.9212    0.7255 N   0  0  0  0  0  0
    2.1155   -0.8491    0.2358 C   0  0  0  0  0  0
    2.8790    0.2879    0.4564 C   0  0  0  0  0  0
    4.1716    0.3567   -0.0283 C   0  0  0  0  0  0
    4.7066   -0.7055   -0.7332 C   0  0  0  0  0  0
    3.9515   -1.8422   -0.9569 C   0  0  0  0  0  0
    2.6574   -1.9213   -0.4697 C   0  0  0  0  0  0
    1.9135   -3.0387   -0.6890 O   0  0  0  0  0  0
    2.7314   -3.9386   -1.4395 C   0  0  0  0  0  0
    4.9996    1.5928    0.2118 C   0  0  0  0  0  0
    6.2619    1.4284   -0.3685 F   0  0  0  0  0  0
    4.3633    2.6989   -0.3615 F   0  0  0  0  0  0
    5.1423    1.7984    1.5882 F   0  0  0  0  0  0
    0.8766   -0.6280    2.1632 C   0  0  0  0  0  0
   -1.8500    2.0464   -1.0291 C   0  0  0  0  0  0
   -7.6232   -0.3878    0.2678 N   0  0  0  0  0  0
   -4.8172    2.7716   -2.1831 H   0  0  0  0  0  0
   -3.6461    3.1043   -1.0253 H   0  0  0  0  0  0
   -1.1532   -1.9038    1.3001 H   0  0  0  0  0  0
    0.3337    0.2581   -0.9477 H   0  0  0  0  0  0
    0.3086    1.1166    0.6114 H   0  0  0  0  0  0
    2.4634    1.1193    1.0064 H   0  0  0  0  0  0
    5.7169   -0.6473   -1.1103 H   0  0  0  0  0  0
    4.3724   -2.6701   -1.5080 H   0  0  0  0  0  0
    2.1747   -4.8539   -1.6405 H   0  0  0  0  0  0
    3.0149   -3.4713   -2.3826 H   0  0  0  0  0  0
    3.6284   -4.1770   -0.8680 H   0  0  0  0  0  0
    1.5083   -1.3681    2.6545 H   0  0  0  0  0  0
    1.2991    0.3658    2.3111 H   0  0  0  0  0  0
   -0.1253   -0.6642    2.5908 H   0  0  0  0  0  0
   -1.8725    2.8927   -0.3425 H   0  0  0  0  0  0
   -0.8319    1.8976   -1.3890 H   0  0  0  0  0  0
   -2.5085    2.2467   -1.8743 H   0  0  0  0  0  0
   -8.2984    0.2067   -0.0949 H   0  0  0  0  0  0
   -7.8886   -1.1957    0.7345 H   0  0  0  0  0  0
  1  2  1  0  0  0
  1  6  2  0  0  0
  2  3  2  0  0  0
  2 28  1  0  0  0
  3  4  1  0  0  0
  4  5  2  0  0  0
  4 11  1  0  0  0
  5  6  1  0  0  0
  5  8  1  0  0  0
  6  7  1  0  0  0
  7 29  1  0  0  0
  7 30  1  0  0  0
  8  9  2  0  0  0
  8 27  1  0  0  0
  9 10  1  0  0  0
  9 12  1  0  0  0
 10 11  2  0  0  0
 10 31  1  0  0  0
 12 13  1  0  0  0
 12 32  1  0  0  0
 12 33  1  0  0  0
 13 14  1  0  0  0
 13 26  1  0  0  0
 14 15  1  0  0  0
 14 19  2  0  0  0
 15 16  2  0  0  0
 15 34  1  0  0  0
 16 17  1  0  0  0
 16 22  1  0  0  0
 17 18  2  0  0  0
 17 35  1  0  0  0
 18 19  1  0  0  0
 18 36  1  0  0  0
 19 20  1  0  0  0
 20 21  1  0  0  0
 21 37  1  0  0  0
 21 38  1  0  0  0
 21 39  1  0  0  0
 22 23  1  0  0  0
 22 24  1  0  0  0
 22 25  1  0  0  0
 26 40  1  0  0  0
 26 41  1  0  0  0
 26 42  1  0  0  0
 27 43  1  0  0  0
 27 44  1  0  0  0
 27 45  1  0  0  0
 28 46  1  0  0  0
 28 47  1  0  0  0
M  END
>  <ACTIVITY>
6.63827

>  <set_rl>
1

>  <Min_dist>
999.9

>  <Avg_dist>
999.9

>  <PC_uM>
0.093

>  <TG_uM>
0.038

>  <RL_uM>
0.23

$$$$
9-14M
  Cerius2 12110214553D 1   1.00000                          
 
 46 49  0  0  0  0  0  0  0  0999 V2000
   -5.3902    0.2422   -0.7083 N   0  0  0  0  0  0
   -5.4676   -0.9181   -0.0631 C   0  0  0  0  0  0
   -4.4259   -1.4877    0.5133 N   0  0  0  0  0  0
   -3.2196   -0.9044    0.4692 C   0  0  0  0  0  0
   -3.0914    0.3329   -0.2084 C   0  0  0  0  0  0
   -4.2432    0.8989   -0.8087 C   0  0  0  0  0  0
   -4.1727    2.0999   -1.4799 N   0  0  0  0  0  0
   -1.8397    0.9572   -0.2644 C   0  0  0  0  0  0
   -0.7822    0.3357    0.3461 C   0  0  0  0  0  0
   -0.9736   -0.8783    0.9951 C   0  0  0  0  0  0
   -2.1516   -1.4588    1.0438 N   0  0  0  0  0  0
    0.5858    0.9669    0.3134 C   0  0  0  0  0  0
    1.5451    0.0926    1.0014 N   0  0  0  0  0  0
    2.8157    0.4940    0.5948 C   0  0  0  0  0  0
    3.2490    1.7807    0.8353 C   0  0  0  0  0  0
    4.5161    2.1914    0.4331 C   0  0  0  0  0  0
    5.3616    1.3377   -0.2078 C   0  0  0  0  0  0
    4.9587    0.0178   -0.4722 C   0  0  0  0  0  0
    3.6733   -0.4143   -0.0621 C   0  0  0  0  0  0
    3.2726   -1.7334   -0.3261 C   0  0  0  0  0  0
    4.1220   -2.5794   -0.9715 C   0  0  0  0  0  0
    5.3867   -2.1557   -1.3750 C   0  0  0  0  0  0
    5.8105   -0.8854   -1.1315 C   0  0  0  0  0  0
    1.4438    0.3998    2.4344 C   0  0  0  0  0  0
   -1.6605    2.2736   -0.9756 C   0  0  0  0  0  0
   -6.6920   -1.5548    0.0072 N   0  0  0  0  0  0
   -4.6322    2.2097   -2.3271 H   0  0  0  0  0  0
   -3.6637    2.8357   -1.1053 H   0  0  0  0  0  0
   -0.1314   -1.3577    1.4719 H   0  0  0  0  0  0
    0.8977    1.1049   -0.7218 H   0  0  0  0  0  0
    0.5516    1.9343    0.8146 H   0  0  0  0  0  0
    2.5974    2.4777    1.3413 H   0  0  0  0  0  0
    4.8342    3.2041    0.6322 H   0  0  0  0  0  0
    6.3411    1.6750   -0.5130 H   0  0  0  0  0  0
    2.2955   -2.0756   -0.0185 H   0  0  0  0  0  0
    3.8111   -3.5939   -1.1734 H   0  0  0  0  0  0
    6.0416   -2.8465   -1.8850 H   0  0  0  0  0  0
    6.7932   -0.5707   -1.4503 H   0  0  0  0  0  0
    2.2103   -0.1513    2.9791 H   0  0  0  0  0  0
    1.5871    1.4694    2.5877 H   0  0  0  0  0  0
    0.4587    0.1092    2.7995 H   0  0  0  0  0  0
   -1.9442    3.0882   -0.3092 H   0  0  0  0  0  0
   -0.6168    2.3898   -1.2675 H   0  0  0  0  0  0
   -2.2909    2.2951   -1.8646 H   0  0  0  0  0  0
   -7.4714   -1.1545   -0.4089 H   0  0  0  0  0  0
   -6.7720   -2.4020    0.4727 H   0  0  0  0  0  0
  1  2  1  0  0  0
  1  6  2  0  0  0
  2  3  2  0  0  0
  2 26  1  0  0  0
  3  4  1  0  0  0
  4  5  2  0  0  0
  4 11  1  0  0  0
  5  6  1  0  0  0
  5  8  1  0  0  0
  6  7  1  0  0  0
  7 27  1  0  0  0
  7 28  1  0  0  0
  8  9  2  0  0  0
  8 25  1  0  0  0
  9 10  1  0  0  0
  9 12  1  0  0  0
 10 11  2  0  0  0
 10 29  1  0  0  0
 12 13  1  0  0  0
 12 30  1  0  0  0
 12 31  1  0  0  0
 13 14  1  0  0  0
 13 24  1  0  0  0
 14 15  1  0  0  0
 14 19  2  0  0  0
 15 16  2  0  0  0
 15 32  1  0  0  0
 16 17  1  0  0  0
 16 33  1  0  0  0
 17 18  2  0  0  0
 17 34  1  0  0  0
 18 19  1  0  0  0
 18 23  1  0  0  0
 19 20  1  0  0  0
 20 21  2  0  0  0
 20 35  1  0  0  0
 21 22  1  0  0  0
 21 36  1  0  0  0
 22 23  2  0  0  0
 22 37  1  0  0  0
 23 38  1  0  0  0
 24 39  1  0  0  0
 24 40  1  0  0  0
 24 41  1  0  0  0
 25 42  1  0  0  0
 25 43  1  0  0  0
 25 44  1  0  0  0
 26 45  1  0  0  0
 26 46  1  0  0  0
M  END
>  <ACTIVITY>
6.85387

>  <set_rl>
1

>  <Min_dist>
999.9

>  <Avg_dist>
999.9

>  <PC_uM>
0.15

>  <TG_uM>
0.016

>  <RL_uM>
0.14

$$$$
9-15B
  Cerius2 12110214553D 1   1.00000                          
 
 34 36  0  0  0  0  0  0  0  0999 V2000
   -5.2163    1.1989    0.1764 N   0  0  0  0  0  0
   -5.6446   -0.0442    0.3764 C   0  0  0  0  0  0
   -4.8523   -1.0964    0.2941 N   0  0  0  0  0  0
   -3.5531   -0.9493   -0.0021 C   0  0  0  0  0  0
   -3.0541    0.3578   -0.2236 C   0  0  0  0  0  0
   -3.9497    1.4510   -0.1218 C   0  0  0  0  0  0
   -3.5156    2.7420   -0.3282 N   0  0  0  0  0  0
   -1.7001    0.5311   -0.5336 C   0  0  0  0  0  0
   -0.9089   -0.5849   -0.6097 C   0  0  0  0  0  0
   -1.4594   -1.8404   -0.3814 C   0  0  0  0  0  0
   -2.7316   -1.9958   -0.0908 N   0  0  0  0  0  0
    0.5552   -0.4513   -0.9407 C   0  0  0  0  0  0
    1.3230   -0.2917    0.2967 N   0  0  0  0  0  0
    2.7121   -0.1483    0.2435 C   0  0  0  0  0  0
    3.4413    0.0031    1.4159 C   0  0  0  0  0  0
    4.8140    0.1446    1.3603 C   0  0  0  0  0  0
    5.4629    0.1356    0.1381 C   0  0  0  0  0  0
    4.7388   -0.0146   -1.0315 C   0  0  0  0  0  0
    3.3666   -0.1627   -0.9815 C   0  0  0  0  0  0
    7.1885    0.3137    0.0720 Cl  0  0  0  0  0  0
   -6.9770   -0.2426    0.6844 N   0  0  0  0  0  0
   -4.1396    3.4810   -0.2553 H   0  0  0  0  0  0
   -2.5859    2.9120   -0.5464 H   0  0  0  0  0  0
   -1.2912    1.5154   -0.7079 H   0  0  0  0  0  0
   -0.8246   -2.7119   -0.4449 H   0  0  0  0  0  0
    0.8923   -1.3456   -1.4647 H   0  0  0  0  0  0
    0.7057    0.4210   -1.5768 H   0  0  0  0  0  0
    0.8673   -0.2855    1.1529 H   0  0  0  0  0  0
    2.9354    0.0105    2.3700 H   0  0  0  0  0  0
    5.3815    0.2627    2.2716 H   0  0  0  0  0  0
    5.2478   -0.0205   -1.9841 H   0  0  0  0  0  0
    2.8020   -0.2803   -1.8946 H   0  0  0  0  0  0
   -7.5777    0.5161    0.7505 H   0  0  0  0  0  0
   -7.3116   -1.1406    0.8344 H   0  0  0  0  0  0
  1  2  1  0  0  0
  1  6  2  0  0  0
  2  3  2  0  0  0
  2 21  1  0  0  0
  3  4  1  0  0  0
  4  5  2  0  0  0
  4 11  1  0  0  0
  5  6  1  0  0  0
  5  8  1  0  0  0
  6  7  1  0  0  0
  7 22  1  0  0  0
  7 23  1  0  0  0
  8  9  2  0  0  0
  8 24  1  0  0  0
  9 10  1  0  0  0
  9 12  1  0  0  0
 10 11  2  0  0  0
 10 25  1  0  0  0
 12 13  1  0  0  0
 12 26  1  0  0  0
 12 27  1  0  0  0
 13 14  1  0  0  0
 13 28  1  0  0  0
 14 15  1  0  0  0
 14 19  2  0  0  0
 15 16  2  0  0  0
 15 29  1  0  0  0
 16 17  1  0  0  0
 16 30  1  0  0  0
 17 18  2  0  0  0
 17 20  1  0  0  0
 18 19  1  0  0  0
 18 31  1  0  0  0
 19 32  1  0  0  0
 21 33  1  0  0  0
 21 34  1  0  0  0
M  END
>  <ACTIVITY>
6.14267

>  <set_rl>
1

>  <Min_dist>
999.9

>  <Avg_dist>
999.9

>  <PC_uM>
0.97

>  <TG_uM>
0.3

>  <RL_uM>
0.72

$$$$
9-15C
  Cerius2 12110214553D 1   1.00000                          
 
 46 48  0  0  0  0  0  0  0  0999 V2000
   -5.9768    0.3271   -1.1031 N   0  0  0  0  0  0
   -6.3783    0.3952    0.1629 C   0  0  0  0  0  0
   -5.5661    0.1936    1.1834 N   0  0  0  0  0  0
   -4.2731   -0.0952    0.9782 C   0  0  0  0  0  0
   -3.8024   -0.1782   -0.3552 C   0  0  0  0  0  0
   -4.7184    0.0479   -1.4122 C   0  0  0  0  0  0
   -4.3121   -0.0214   -2.7267 N   0  0  0  0  0  0
   -2.4552   -0.4783   -0.5890 C   0  0  0  0  0  0
   -1.6429   -0.6806    0.4956 C   0  0  0  0  0  0
   -2.1660   -0.5848    1.7796 C   0  0  0  0  0  0
   -3.4319   -0.3028    1.9918 N   0  0  0  0  0  0
   -0.1851   -1.0067    0.2967 C   0  0  0  0  0  0
    0.5918    0.2346    0.2553 N   0  0  0  0  0  0
    1.9787    0.1863    0.0780 C   0  0  0  0  0  0
    2.7146    1.3628    0.0389 C   0  0  0  0  0  0
    4.0888    1.3157   -0.1367 C   0  0  0  0  0  0
    4.7299    0.0903   -0.2736 C   0  0  0  0  0  0
    3.9926   -1.0870   -0.2344 C   0  0  0  0  0  0
    2.6191   -1.0385   -0.0530 C   0  0  0  0  0  0
    4.6190   -2.2866   -0.3683 O   0  0  0  0  0  0
    3.6072   -3.2923   -0.2866 C   0  0  0  0  0  0
    6.0799    0.0433   -0.4467 O   0  0  0  0  0  0
    6.6609   -0.0328    0.8566 C   0  0  0  0  0  0
    4.8095    2.4683   -0.1754 O   0  0  0  0  0  0
    3.8809    3.5417   -0.0095 C   0  0  0  0  0  0
   -7.7033    0.6903    0.4210 N   0  0  0  0  0  0
   -4.9499    0.1357   -3.4404 H   0  0  0  0  0  0
   -3.3882   -0.2272   -2.9385 H   0  0  0  0  0  0
   -2.0677   -0.5486   -1.5946 H   0  0  0  0  0  0
   -1.5148   -0.7470    2.6258 H   0  0  0  0  0  0
    0.1644   -1.6268    1.1222 H   0  0  0  0  0  0
   -0.0583   -1.5461   -0.6420 H   0  0  0  0  0  0
    0.1446    1.0901    0.3509 H   0  0  0  0  0  0
    2.2163    2.3151    0.1450 H   0  0  0  0  0  0
    2.0460   -1.9534   -0.0221 H   0  0  0  0  0  0
    4.0641   -4.2766   -0.3892 H   0  0  0  0  0  0
    3.1042   -3.2241    0.6780 H   0  0  0  0  0  0
    2.8815   -3.1434   -1.0861 H   0  0  0  0  0  0
    7.7466   -0.0727    0.7687 H   0  0  0  0  0  0
    6.3753    0.8468    1.4337 H   0  0  0  0  0  0
    6.3041   -0.9303    1.3617 H   0  0  0  0  0  0
    4.4153    4.4914   -0.0339 H   0  0  0  0  0  0
    3.1482    3.5163   -0.8161 H   0  0  0  0  0  0
    3.3709    3.4363    0.9480 H   0  0  0  0  0  0
   -8.3183    0.8426   -0.3135 H   0  0  0  0  0  0
   -8.0185    0.7452    1.3367 H   0  0  0  0  0  0
  1  2  1  0  0  0
  1  6  2  0  0  0
  2  3  2  0  0  0
  2 26  1  0  0  0
  3  4  1  0  0  0
  4  5  2  0  0  0
  4 11  1  0  0  0
  5  6  1  0  0  0
  5  8  1  0  0  0
  6  7  1  0  0  0
  7 27  1  0  0  0
  7 28  1  0  0  0
  8  9  2  0  0  0
  8 29  1  0  0  0
  9 10  1  0  0  0
  9 12  1  0  0  0
 10 11  2  0  0  0
 10 30  1  0  0  0
 12 13  1  0  0  0
 12 31  1  0  0  0
 12 32  1  0  0  0
 13 14  1  0  0  0
 13 33  1  0  0  0
 14 15  1  0  0  0
 14 19  2  0  0  0
 15 16  2  0  0  0
 15 34  1  0  0  0
 16 17  1  0  0  0
 16 24  1  0  0  0
 17 18  2  0  0  0
 17 22  1  0  0  0
 18 19  1  0  0  0
 18 20  1  0  0  0
 19 35  1  0  0  0
 20 21  1  0  0  0
 21 36  1  0  0  0
 21 37  1  0  0  0
 21 38  1  0  0  0
 22 23  1  0  0  0
 23 39  1  0  0  0
 23 40  1  0  0  0
 23 41  1  0  0  0
 24 25  1  0  0  0
 25 42  1  0  0  0
 25 43  1  0  0  0
 25 44  1  0  0  0
 26 45  1  0  0  0
 26 46  1  0  0  0
M  END
>  <ACTIVITY>
6.09151

>  <set_rl>
1

>  <Min_dist>
999.9

>  <Avg_dist>
999.9

>  <PC_uM>
2

>  <TG_uM>
0.13

>  <RL_uM>
0.81

$$$$
9-16D
  Cerius2 12110214553D 1   1.00000                          
 
 42 44  0  0  0  0  0  0  0  0999 V2000
   -5.3392    0.0363   -1.1634 N   0  0  0  0  0  0
   -5.7583    0.1939    0.0889 C   0  0  0  0  0  0
   -4.9546    0.0939    1.1309 N   0  0  0  0  0  0
   -3.6525   -0.1775    0.9631 C   0  0  0  0  0  0
   -3.1629   -0.3534   -0.3544 C   0  0  0  0  0  0
   -4.0706   -0.2344   -1.4358 C   0  0  0  0  0  0
   -3.6459   -0.3968   -2.7362 N   0  0  0  0  0  0
   -1.8059   -0.6369   -0.5491 C   0  0  0  0  0  0
   -1.0028   -0.7325    0.5568 C   0  0  0  0  0  0
   -1.5445   -0.5492    1.8235 C   0  0  0  0  0  0
   -2.8194   -0.2832    1.9990 N   0  0  0  0  0  0
    0.4648   -1.0365    0.4000 C   0  0  0  0  0  0
    1.2118    0.2170    0.2690 N   0  0  0  0  0  0
    2.6021    0.1898    0.1110 C   0  0  0  0  0  0
    3.2741   -1.0232    0.0783 C   0  0  0  0  0  0
    4.6513   -1.0469   -0.0788 C   0  0  0  0  0  0
    5.3569    0.1408   -0.2027 C   0  0  0  0  0  0
    4.6892    1.3512   -0.1699 C   0  0  0  0  0  0
    3.3130    1.3806   -0.0194 C   0  0  0  0  0  0
    2.6567    2.5724    0.0124 O   0  0  0  0  0  0
    3.6466    3.5929   -0.1312 C   0  0  0  0  0  0
    5.3110   -2.2355   -0.1110 O   0  0  0  0  0  0
    6.6975   -1.9339   -0.2811 C   0  0  0  0  0  0
   -7.0933    0.4749    0.3085 N   0  0  0  0  0  0
   -4.2782   -0.3126   -3.4669 H   0  0  0  0  0  0
   -2.7146   -0.5954   -2.9211 H   0  0  0  0  0  0
   -1.4041   -0.7765   -1.5418 H   0  0  0  0  0  0
   -0.9003   -0.6276    2.6868 H   0  0  0  0  0  0
    0.8188   -1.5806    1.2757 H   0  0  0  0  0  0
    0.6167   -1.6448   -0.4916 H   0  0  0  0  0  0
    0.7428    1.0657    0.2918 H   0  0  0  0  0  0
    2.7250   -1.9481    0.1755 H   0  0  0  0  0  0
    6.4298    0.1202   -0.3246 H   0  0  0  0  0  0
    5.2411    2.2745   -0.2662 H   0  0  0  0  0  0
    3.1657    4.5709   -0.1115 H   0  0  0  0  0  0
    4.3619    3.5232    0.6883 H   0  0  0  0  0  0
    4.1673    3.4631   -1.0800 H   0  0  0  0  0  0
    7.2698   -2.8611   -0.3128 H   0  0  0  0  0  0
    6.8387   -1.3876   -1.2136 H   0  0  0  0  0  0
    7.0414   -1.3230    0.5536 H   0  0  0  0  0  0
   -7.7024    0.5533   -0.4424 H   0  0  0  0  0  0
   -7.4214    0.5939    1.2136 H   0  0  0  0  0  0
  1  2  1  0  0  0
  1  6  2  0  0  0
  2  3  2  0  0  0
  2 24  1  0  0  0
  3  4  1  0  0  0
  4  5  2  0  0  0
  4 11  1  0  0  0
  5  6  1  0  0  0
  5  8  1  0  0  0
  6  7  1  0  0  0
  7 25  1  0  0  0
  7 26  1  0  0  0
  8  9  2  0  0  0
  8 27  1  0  0  0
  9 10  1  0  0  0
  9 12  1  0  0  0
 10 11  2  0  0  0
 10 28  1  0  0  0
 12 13  1  0  0  0
 12 29  1  0  0  0
 12 30  1  0  0  0
 13 14  1  0  0  0
 13 31  1  0  0  0
 14 15  1  0  0  0
 14 19  2  0  0  0
 15 16  2  0  0  0
 15 32  1  0  0  0
 16 17  1  0  0  0
 16 22  1  0  0  0
 17 18  2  0  0  0
 17 33  1  0  0  0
 18 19  1  0  0  0
 18 34  1  0  0  0
 19 20  1  0  0  0
 20 21  1  0  0  0
 21 35  1  0  0  0
 21 36  1  0  0  0
 21 37  1  0  0  0
 22 23  1  0  0  0
 23 38  1  0  0  0
 23 39  1  0  0  0
 23 40  1  0  0  0
 24 41  1  0  0  0
 24 42  1  0  0  0
M  END
>  <ACTIVITY>
6.33724

>  <set_rl>
1

>  <Min_dist>
999.9

>  <Avg_dist>
999.9

>  <PC_uM>
0.75

>  <TG_uM>
0.14

>  <RL_uM>
0.46

$$$$
25-12
  Cerius2 12110214553D 1   1.00000                          
 
 49 51  0  0  0  0  0  0  0  0999 V2000
   -5.4127    0.0571   -1.1304 N   0  0  0  0  0  0
   -5.4299   -1.0765   -0.4348 C   0  0  0  0  0  0
   -4.4566   -1.4298    0.3823 N   0  0  0  0  0  0
   -3.3844   -0.6399    0.5481 C   0  0  0  0  0  0
   -3.3253    0.5772   -0.1738 C   0  0  0  0  0  0
   -4.3993    0.9059   -1.0375 C   0  0  0  0  0  0
   -4.3901    2.0781   -1.7626 N   0  0  0  0  0  0
   -2.2162    1.4167   -0.0156 C   0  0  0  0  0  0
   -1.2149    1.0113    0.8518 C   0  0  0  0  0  0
   -1.3411   -0.2025    1.5304 C   0  0  0  0  0  0
   -2.3896   -0.9769    1.3689 N   0  0  0  0  0  0
   -0.0843    1.8127    1.0462 N   0  0  0  0  0  0
    1.0287    1.3234    1.8636 C   0  0  0  0  0  0
    2.0107    0.5893    0.9873 C   0  0  0  0  0  0
    3.0520    1.2769    0.3928 C   0  0  0  0  0  0
    3.9574    0.6052   -0.4146 C   0  0  0  0  0  0
    3.8171   -0.7613   -0.6253 C   0  0  0  0  0  0
    2.7690   -1.4491   -0.0254 C   0  0  0  0  0  0
    1.8708   -0.7709    0.7848 C   0  0  0  0  0  0
    2.6271   -2.7863   -0.2289 O   0  0  0  0  0  0
    1.4747   -3.1965    0.5099 C   0  0  0  0  0  0
    4.7034   -1.4241   -1.4174 O   0  0  0  0  0  0
    5.7604   -1.8743   -0.5676 C   0  0  0  0  0  0
    4.9811    1.2828   -0.9997 O   0  0  0  0  0  0
    4.8557    2.6484   -0.5978 C   0  0  0  0  0  0
   -0.0137    3.1411    0.4325 C   0  0  0  0  0  0
   -6.5157   -1.9212   -0.5741 N   0  0  0  0  0  0
   -5.1320    2.2907   -2.3502 H   0  0  0  0  0  0
   -3.6417    2.6903   -1.6853 H   0  0  0  0  0  0
   -2.1433    2.3506   -0.5531 H   0  0  0  0  0  0
   -0.5568   -0.5124    2.2051 H   0  0  0  0  0  0
    1.5275    2.1670    2.3407 H   0  0  0  0  0  0
    0.6477    0.6466    2.6284 H   0  0  0  0  0  0
    3.1604    2.3388    0.5571 H   0  0  0  0  0  0
    1.0563   -1.3047    1.2516 H   0  0  0  0  0  0
    1.3199   -4.2672    0.3767 H   0  0  0  0  0  0
    1.6251   -2.9799    1.5676 H   0  0  0  0  0  0
    0.6001   -2.6553    0.1490 H   0  0  0  0  0  0
    6.4987   -2.4138   -1.1608 H   0  0  0  0  0  0
    6.2340   -1.0160   -0.0910 H   0  0  0  0  0  0
    5.3546   -2.5365    0.1973 H   0  0  0  0  0  0
    5.6591    3.2339   -1.0447 H   0  0  0  0  0  0
    3.8937    3.0381   -0.9303 H   0  0  0  0  0  0
    4.9188    2.7146    0.4884 H   0  0  0  0  0  0
   -0.9626    3.3676   -0.0536 H   0  0  0  0  0  0
    0.1876    3.8865    1.2018 H   0  0  0  0  0  0
    0.7865    3.1573   -0.3075 H   0  0  0  0  0  0
   -7.2433   -1.6818   -1.1692 H   0  0  0  0  0  0
   -6.5497   -2.7533   -0.0767 H   0  0  0  0  0  0
  1  2  1  0  0  0
  1  6  2  0  0  0
  2  3  2  0  0  0
  2 27  1  0  0  0
  3  4  1  0  0  0
  4  5  2  0  0  0
  4 11  1  0  0  0
  5  6  1  0  0  0
  5  8  1  0  0  0
  6  7  1  0  0  0
  7 28  1  0  0  0
  7 29  1  0  0  0
  8  9  2  0  0  0
  8 30  1  0  0  0
  9 10  1  0  0  0
  9 12  1  0  0  0
 10 11  2  0  0  0
 10 31  1  0  0  0
 12 13  1  0  0  0
 12 26  1  0  0  0
 13 14  1  0  0  0
 13 32  1  0  0  0
 13 33  1  0  0  0
 14 15  1  0  0  0
 14 19  2  0  0  0
 15 16  2  0  0  0
 15 34  1  0  0  0
 16 17  1  0  0  0
 16 24  1  0  0  0
 17 18  2  0  0  0
 17 22  1  0  0  0
 18 19  1  0  0  0
 18 20  1  0  0  0
 19 35  1  0  0  0
 20 21  1  0  0  0
 21 36  1  0  0  0
 21 37  1  0  0  0
 21 38  1  0  0  0
 22 23  1  0  0  0
 23 39  1  0  0  0
 23 40  1  0  0  0
 23 41  1  0  0  0
 24 25  1  0  0  0
 25 42  1  0  0  0
 25 43  1  0  0  0
 25 44  1  0  0  0
 26 45  1  0  0  0
 26 46  1  0  0  0
 26 47  1  0  0  0
 27 48  1  0  0  0
 27 49  1  0  0  0
M  END
>  <ACTIVITY>
7.48149

>  <set_rl>
1

>  <Min_dist>
999.9

>  <Avg_dist>
999.9

>  <PC_uM>
0.061

>  <TG_uM>
0.014

>  <RL_uM>
0.033

$$$$
25-14
  Cerius2 12110214553D 1   1.00000                          
 
 46 48  0  0  0  0  0  0  0  0999 V2000
   -5.9386   -0.1779   -1.1050 N   0  0  0  0  0  0
   -6.2907   -0.0806    0.1740 C   0  0  0  0  0  0
   -5.4174    0.1067    1.1447 N   0  0  0  0  0  0
   -4.1072    0.2089    0.8732 C   0  0  0  0  0  0
   -3.6883    0.1110   -0.4761 C   0  0  0  0  0  0
   -4.6700   -0.0903   -1.4778 C   0  0  0  0  0  0
   -4.3146   -0.1928   -2.8056 N   0  0  0  0  0  0
   -2.3261    0.2153   -0.7821 C   0  0  0  0  0  0
   -1.4400    0.4121    0.2645 C   0  0  0  0  0  0
   -1.9253    0.4990    1.5710 C   0  0  0  0  0  0
   -3.2073    0.3987    1.8383 N   0  0  0  0  0  0
   -0.0676    0.5228    0.0142 N   0  0  0  0  0  0
    0.8651    0.7309    1.1245 C   0  0  0  0  0  0
    2.2802    0.6724    0.6096 C   0  0  0  0  0  0
    2.9720    1.8425    0.3575 C   0  0  0  0  0  0
    4.2700    1.7943   -0.1148 C   0  0  0  0  0  0
    4.8835    0.5708   -0.3383 C   0  0  0  0  0  0
    4.1916   -0.6076   -0.0862 C   0  0  0  0  0  0
    2.8885   -0.5548    0.3946 C   0  0  0  0  0  0
    2.2073   -1.7053    0.6433 O   0  0  0  0  0  0
    1.5973   -2.0984   -0.5878 C   0  0  0  0  0  0
    4.7902   -1.8103   -0.3042 O   0  0  0  0  0  0
    5.4837   -2.1504    0.8980 C   0  0  0  0  0  0
    6.1605    0.5244   -0.8040 O   0  0  0  0  0  0
    6.5920    1.8775   -0.9617 C   0  0  0  0  0  0
   -7.6308   -0.1797    0.5002 N   0  0  0  0  0  0
   -4.9970   -0.3306   -3.4810 H   0  0  0  0  0  0
   -3.3821   -0.1272   -3.0645 H   0  0  0  0  0  0
   -1.9771    0.1441   -1.8016 H   0  0  0  0  0  0
   -1.2289    0.6525    2.3821 H   0  0  0  0  0  0
    0.2661    0.4616   -0.8946 H   0  0  0  0  0  0
    0.6823    1.7067    1.5746 H   0  0  0  0  0  0
    0.7184   -0.0477    1.8731 H   0  0  0  0  0  0
    2.4967    2.7969    0.5299 H   0  0  0  0  0  0
    4.8070    2.7106   -0.3105 H   0  0  0  0  0  0
    0.9495   -2.9577   -0.4141 H   0  0  0  0  0  0
    1.0060   -1.2713   -0.9807 H   0  0  0  0  0  0
    2.3709   -2.3661   -1.3074 H   0  0  0  0  0  0
    6.0369   -3.0776    0.7485 H   0  0  0  0  0  0
    6.1779   -1.3506    1.1557 H   0  0  0  0  0  0
    4.7651   -2.2825    1.7070 H   0  0  0  0  0  0
    7.6160    1.8911   -1.3351 H   0  0  0  0  0  0
    5.9397    2.3866   -1.6712 H   0  0  0  0  0  0
    6.5496    2.3869    0.0010 H   0  0  0  0  0  0
   -8.2908   -0.3171   -0.1972 H   0  0  0  0  0  0
   -7.9108   -0.1117    1.4264 H   0  0  0  0  0  0
  1  2  1  0  0  0
  1  6  2  0  0  0
  2  3  2  0  0  0
  2 26  1  0  0  0
  3  4  1  0  0  0
  4  5  2  0  0  0
  4 11  1  0  0  0
  5  6  1  0  0  0
  5  8  1  0  0  0
  6  7  1  0  0  0
  7 27  1  0  0  0
  7 28  1  0  0  0
  8  9  2  0  0  0
  8 29  1  0  0  0
  9 10  1  0  0  0
  9 12  1  0  0  0
 10 11  2  0  0  0
 10 30  1  0  0  0
 12 13  1  0  0  0
 12 31  1  0  0  0
 13 14  1  0  0  0
 13 32  1  0  0  0
 13 33  1  0  0  0
 14 15  1  0  0  0
 14 19  2  0  0  0
 15 16  2  0  0  0
 15 34  1  0  0  0
 16 17  1  0  0  0
 16 35  1  0  0  0
 17 18  2  0  0  0
 17 24  1  0  0  0
 18 19  1  0  0  0
 18 22  1  0  0  0
 19 20  1  0  0  0
 20 21  1  0  0  0
 21 36  1  0  0  0
 21 37  1  0  0  0
 21 38  1  0  0  0
 22 23  1  0  0  0
 23 39  1  0  0  0
 23 40  1  0  0  0
 23 41  1  0  0  0
 24 25  1  0  0  0
 25 42  1  0  0  0
 25 43  1  0  0  0
 25 44  1  0  0  0
 26 45  1  0  0  0
 26 46  1  0  0  0
M  END
>  <ACTIVITY>
5.48945

>  <set_rl>
1

>  <Min_dist>
999.9

>  <Avg_dist>
999.9

>  <PC_uM>
15.3

>  <TG_uM>
0.67

>  <RL_uM>
3.24

$$$$
25-16
  Cerius2 12110214553D 1   1.00000                          
 
 46 48  0  0  0  0  0  0  0  0999 V2000
   -5.8392   -0.1811   -1.1451 N   0  0  0  0  0  0
   -6.1838   -0.0853    0.1360 C   0  0  0  0  0  0
   -5.2995    0.0164    1.1095 N   0  0  0  0  0  0
   -3.9851    0.0276    0.8388 C   0  0  0  0  0  0
   -3.5740   -0.0722   -0.5128 C   0  0  0  0  0  0
   -4.5675   -0.1793   -1.5175 C   0  0  0  0  0  0
   -4.2200   -0.2794   -2.8475 N   0  0  0  0  0  0
   -2.2077   -0.0620   -0.8180 C   0  0  0  0  0  0
   -1.3100    0.0467    0.2315 C   0  0  0  0  0  0
   -1.7881    0.1413    1.5400 C   0  0  0  0  0  0
   -3.0742    0.1300    1.8066 N   0  0  0  0  0  0
    0.0669    0.0613   -0.0180 N   0  0  0  0  0  0
    1.0120    0.1764    1.0955 C   0  0  0  0  0  0
    2.4211    0.1685    0.5612 C   0  0  0  0  0  0
    3.0390    1.3614    0.2175 C   0  0  0  0  0  0
    4.3357    1.3541   -0.2742 C   0  0  0  0  0  0
    5.0146    0.1539   -0.4216 C   0  0  0  0  0  0
    4.3969   -1.0390   -0.0770 C   0  0  0  0  0  0
    3.1018   -1.0313    0.4188 C   0  0  0  0  0  0
    2.4966   -2.2002    0.7565 O   0  0  0  0  0  0
    3.4361   -3.2436    0.4907 C   0  0  0  0  0  0
    6.2849    0.1466   -0.9042 O   0  0  0  0  0  0
    6.7060   -1.2185   -0.9384 C   0  0  0  0  0  0
    2.3738    2.5375    0.3619 O   0  0  0  0  0  0
    3.2621    3.5703   -0.0697 C   0  0  0  0  0  0
   -7.5276   -0.0923    0.4615 N   0  0  0  0  0  0
   -4.9104   -0.3521   -3.5250 H   0  0  0  0  0  0
   -3.2851   -0.2771   -3.1061 H   0  0  0  0  0  0
   -1.8645   -0.1369   -1.8393 H   0  0  0  0  0  0
   -1.0827    0.2258    2.3534 H   0  0  0  0  0  0
    0.3956   -0.0049   -0.9282 H   0  0  0  0  0  0
    0.8314    1.1089    1.6303 H   0  0  0  0  0  0
    0.8765   -0.6646    1.7755 H   0  0  0  0  0  0
    4.8167    2.2830   -0.5426 H   0  0  0  0  0  0
    4.9255   -1.9737   -0.1922 H   0  0  0  0  0  0
    2.9929   -4.2057    0.7476 H   0  0  0  0  0  0
    3.6986   -3.2354   -0.5672 H   0  0  0  0  0  0
    4.3334   -3.0856    1.0890 H   0  0  0  0  0  0
    7.7251   -1.2749   -1.3209 H   0  0  0  0  0  0
    6.6723   -1.6344    0.0686 H   0  0  0  0  0  0
    6.0417   -1.7875   -1.5889 H   0  0  0  0  0  0
    2.7696    4.5377    0.0284 H   0  0  0  0  0  0
    4.1617    3.5564    0.5457 H   0  0  0  0  0  0
    3.5327    3.4044   -1.1125 H   0  0  0  0  0  0
   -8.1957   -0.1659   -0.2378 H   0  0  0  0  0  0
   -7.8023   -0.0236    1.3893 H   0  0  0  0  0  0
  1  2  1  0  0  0
  1  6  2  0  0  0
  2  3  2  0  0  0
  2 26  1  0  0  0
  3  4  1  0  0  0
  4  5  2  0  0  0
  4 11  1  0  0  0
  5  6  1  0  0  0
  5  8  1  0  0  0
  6  7  1  0  0  0
  7 27  1  0  0  0
  7 28  1  0  0  0
  8  9  2  0  0  0
  8 29  1  0  0  0
  9 10  1  0  0  0
  9 12  1  0  0  0
 10 11  2  0  0  0
 10 30  1  0  0  0
 12 13  1  0  0  0
 12 31  1  0  0  0
 13 14  1  0  0  0
 13 32  1  0  0  0
 13 33  1  0  0  0
 14 15  1  0  0  0
 14 19  2  0  0  0
 15 16  2  0  0  0
 15 24  1  0  0  0
 16 17  1  0  0  0
 16 34  1  0  0  0
 17 18  2  0  0  0
 17 22  1  0  0  0
 18 19  1  0  0  0
 18 35  1  0  0  0
 19 20  1  0  0  0
 20 21  1  0  0  0
 21 36  1  0  0  0
 21 37  1  0  0  0
 21 38  1  0  0  0
 22 23  1  0  0  0
 23 39  1  0  0  0
 23 40  1  0  0  0
 23 41  1  0  0  0
 24 25  1  0  0  0
 25 42  1  0  0  0
 25 43  1  0  0  0
 25 44  1  0  0  0
 26 45  1  0  0  0
 26 46  1  0  0  0
M  END
>  <ACTIVITY>
5.92082

>  <set_rl>
1

>  <Min_dist>
999.9

>  <Avg_dist>
999.9

>  <PC_uM>
20.7

>  <TG_uM>
0.23

>  <RL_uM>
1.2

$$$$
25-19
  Cerius2 12110214553D 1   1.00000                          
 
 42 44  0  0  0  0  0  0  0  0999 V2000
   -5.7314    0.0090   -1.1564 N   0  0  0  0  0  0
   -6.0995   -0.0011    0.1217 C   0  0  0  0  0  0
   -5.2329   -0.0091    1.1162 N   0  0  0  0  0  0
   -3.9135   -0.0072    0.8714 C   0  0  0  0  0  0
   -3.4775    0.0034   -0.4761 C   0  0  0  0  0  0
   -4.4527    0.0116   -1.5040 C   0  0  0  0  0  0
   -4.0808    0.0216   -2.8312 N   0  0  0  0  0  0
   -2.1055    0.0059   -0.7544 C   0  0  0  0  0  0
   -1.2268   -0.0022    0.3167 C   0  0  0  0  0  0
   -1.7290   -0.0125    1.6196 C   0  0  0  0  0  0
   -3.0201   -0.0147    1.8608 N   0  0  0  0  0  0
    0.1548   -0.0006    0.0944 N   0  0  0  0  0  0
    1.0795   -0.0092    1.2306 C   0  0  0  0  0  0
    2.4986   -0.0053    0.7233 C   0  0  0  0  0  0
    3.1481    1.1937    0.5002 C   0  0  0  0  0  0
    4.4547    1.1998    0.0327 C   0  0  0  0  0  0
    5.1085    0.0017   -0.2101 C   0  0  0  0  0  0
    4.4548   -1.2000    0.0150 C   0  0  0  0  0  0
    3.1500   -1.2009    0.4875 C   0  0  0  0  0  0
    5.0929   -2.3761   -0.2225 O   0  0  0  0  0  0
    6.4031   -2.0483   -0.6893 C   0  0  0  0  0  0
    5.0927    2.3794   -0.1874 O   0  0  0  0  0  0
    6.4031    2.0586   -0.6586 C   0  0  0  0  0  0
   -7.4494   -0.0028    0.4210 N   0  0  0  0  0  0
   -4.7589    0.0271   -3.5248 H   0  0  0  0  0  0
   -3.1411    0.0230   -3.0716 H   0  0  0  0  0  0
   -1.7435    0.0136   -1.7719 H   0  0  0  0  0  0
   -1.0384   -0.0188    2.4499 H   0  0  0  0  0  0
    0.5002    0.0063   -0.8120 H   0  0  0  0  0  0
    0.9104    0.8762    1.8434 H   0  0  0  0  0  0
    0.9104   -0.9037    1.8300 H   0  0  0  0  0  0
    2.6384    2.1268    0.6895 H   0  0  0  0  0  0
    6.1252    0.0044   -0.5743 H   0  0  0  0  0  0
    2.6403   -2.1368    0.6630 H   0  0  0  0  0  0
    6.9558   -2.9652   -0.8942 H   0  0  0  0  0  0
    6.3263   -1.4585   -1.6028 H   0  0  0  0  0  0
    6.9266   -1.4712    0.0729 H   0  0  0  0  0  0
    6.9557    2.9784   -0.8499 H   0  0  0  0  0  0
    6.9264    1.4705    0.0954 H   0  0  0  0  0  0
    6.3267    1.4821   -1.5805 H   0  0  0  0  0  0
   -8.1048    0.0032   -0.2941 H   0  0  0  0  0  0
   -7.7411   -0.0101    1.3461 H   0  0  0  0  0  0
  1  2  1  0  0  0
  1  6  2  0  0  0
  2  3  2  0  0  0
  2 24  1  0  0  0
  3  4  1  0  0  0
  4  5  2  0  0  0
  4 11  1  0  0  0
  5  6  1  0  0  0
  5  8  1  0  0  0
  6  7  1  0  0  0
  7 25  1  0  0  0
  7 26  1  0  0  0
  8  9  2  0  0  0
  8 27  1  0  0  0
  9 10  1  0  0  0
  9 12  1  0  0  0
 10 11  2  0  0  0
 10 28  1  0  0  0
 12 13  1  0  0  0
 12 29  1  0  0  0
 13 14  1  0  0  0
 13 30  1  0  0  0
 13 31  1  0  0  0
 14 15  1  0  0  0
 14 19  2  0  0  0
 15 16  2  0  0  0
 15 32  1  0  0  0
 16 17  1  0  0  0
 16 22  1  0  0  0
 17 18  2  0  0  0
 17 33  1  0  0  0
 18 19  1  0  0  0
 18 20  1  0  0  0
 19 34  1  0  0  0
 20 21  1  0  0  0
 21 35  1  0  0  0
 21 36  1  0  0  0
 21 37  1  0  0  0
 22 23  1  0  0  0
 23 38  1  0  0  0
 23 39  1  0  0  0
 23 40  1  0  0  0
 24 41  1  0  0  0
 24 42  1  0  0  0
M  END
>  <ACTIVITY>
5.46852

>  <set_rl>
1

>  <Min_dist>
999.9

>  <Avg_dist>
999.9

>  <PC_uM>
5.7

>  <TG_uM>
1.2

>  <RL_uM>
3.4

$$$$
25-20
  Cerius2 12110214553D 1   1.00000                          
 
 45 47  0  0  0  0  0  0  0  0999 V2000
   -5.0797   -0.1186   -1.1376 N   0  0  0  0  0  0
   -5.0999   -1.1765   -0.3317 C   0  0  0  0  0  0
   -4.1341   -1.4408    0.5270 N   0  0  0  0  0  0
   -3.0672   -0.6326    0.6237 C   0  0  0  0  0  0
   -3.0052    0.5060   -0.2163 C   0  0  0  0  0  0
   -4.0710    0.7406   -1.1199 C   0  0  0  0  0  0
   -4.0587    1.8339   -1.9592 N   0  0  0  0  0  0
   -1.9014    1.3630   -0.1318 C   0  0  0  0  0  0
   -0.9080    1.0522    0.7825 C   0  0  0  0  0  0
   -1.0366   -0.0879    1.5785 C   0  0  0  0  0  0
   -2.0800   -0.8801    1.4847 N   0  0  0  0  0  0
    0.2170    1.8750    0.9072 N   0  0  0  0  0  0
    1.3230    1.4761    1.7812 C   0  0  0  0  0  0
    2.3176    0.6628    0.9935 C   0  0  0  0  0  0
    3.3624    1.2917    0.3438 C   0  0  0  0  0  0
    4.2793    0.5451   -0.3826 C   0  0  0  0  0  0
    4.1466   -0.8330   -0.4556 C   0  0  0  0  0  0
    3.0977   -1.4617    0.1975 C   0  0  0  0  0  0
    2.1864   -0.7111    0.9269 C   0  0  0  0  0  0
    2.9648   -2.8123    0.1274 O   0  0  0  0  0  0
    4.0424   -3.2921   -0.6791 C   0  0  0  0  0  0
    5.3061    1.1642   -1.0221 O   0  0  0  0  0  0
    6.0647    0.1420   -1.6714 C   0  0  0  0  0  0
    0.2888    3.1353    0.1637 C   0  0  0  0  0  0
   -6.1805   -2.0367   -0.3967 N   0  0  0  0  0  0
   -4.7950    1.9825   -2.5730 H   0  0  0  0  0  0
   -3.3138    2.4548   -1.9360 H   0  0  0  0  0  0
   -1.8265    2.2385   -0.7597 H   0  0  0  0  0  0
   -0.2584   -0.3243    2.2891 H   0  0  0  0  0  0
    1.8131    2.3660    2.1762 H   0  0  0  0  0  0
    0.9365    0.8777    2.6062 H   0  0  0  0  0  0
    3.4653    2.3653    0.4010 H   0  0  0  0  0  0
    4.8589   -1.4157   -1.0207 H   0  0  0  0  0  0
    1.3692   -1.2003    1.4359 H   0  0  0  0  0  0
    3.9774   -4.3768   -0.7644 H   0  0  0  0  0  0
    3.9806   -2.8452   -1.6714 H   0  0  0  0  0  0
    4.9913   -3.0202   -0.2167 H   0  0  0  0  0  0
    6.9040    0.5932   -2.2007 H   0  0  0  0  0  0
    6.4398   -0.5603   -0.9270 H   0  0  0  0  0  0
    5.4290   -0.3865   -2.3818 H   0  0  0  0  0  0
   -0.6557    3.3069   -0.3525 H   0  0  0  0  0  0
    0.4787    3.9553    0.8562 H   0  0  0  0  0  0
    1.0969    3.0813   -0.5658 H   0  0  0  0  0  0
   -6.9025   -1.8622   -1.0205 H   0  0  0  0  0  0
   -6.2166   -2.8147    0.1815 H   0  0  0  0  0  0
  1  2  1  0  0  0
  1  6  2  0  0  0
  2  3  2  0  0  0
  2 25  1  0  0  0
  3  4  1  0  0  0
  4  5  2  0  0  0
  4 11  1  0  0  0
  5  6  1  0  0  0
  5  8  1  0  0  0
  6  7  1  0  0  0
  7 26  1  0  0  0
  7 27  1  0  0  0
  8  9  2  0  0  0
  8 28  1  0  0  0
  9 10  1  0  0  0
  9 12  1  0  0  0
 10 11  2  0  0  0
 10 29  1  0  0  0
 12 13  1  0  0  0
 12 24  1  0  0  0
 13 14  1  0  0  0
 13 30  1  0  0  0
 13 31  1  0  0  0
 14 15  1  0  0  0
 14 19  2  0  0  0
 15 16  2  0  0  0
 15 32  1  0  0  0
 16 17  1  0  0  0
 16 22  1  0  0  0
 17 18  2  0  0  0
 17 33  1  0  0  0
 18 19  1  0  0  0
 18 20  1  0  0  0
 19 34  1  0  0  0
 20 21  1  0  0  0
 21 35  1  0  0  0
 21 36  1  0  0  0
 21 37  1  0  0  0
 22 23  1  0  0  0
 23 38  1  0  0  0
 23 39  1  0  0  0
 23 40  1  0  0  0
 24 41  1  0  0  0
 24 42  1  0  0  0
 24 43  1  0  0  0
 25 44  1  0  0  0
 25 45  1  0  0  0
M  END
>  <ACTIVITY>
7.14267

>  <set_rl>
1

>  <Min_dist>
999.9

>  <Avg_dist>
999.9

>  <PC_uM>
0.076

>  <TG_uM>
0.031

>  <RL_uM>
0.072

$$$$
25-21
  Cerius2 12110214553D 1   1.00000                          
 
 42 44  0  0  0  0  0  0  0  0999 V2000
   -5.5003    0.0106   -1.0912 N   0  0  0  0  0  0
   -5.8302    0.2425    0.1763 C   0  0  0  0  0  0
   -4.9346    0.3929    1.1330 N   0  0  0  0  0  0
   -3.6233    0.3160    0.8583 C   0  0  0  0  0  0
   -3.2278    0.0703   -0.4792 C   0  0  0  0  0  0
   -4.2328   -0.0831   -1.4661 C   0  0  0  0  0  0
   -3.9007   -0.3241   -2.7820 N   0  0  0  0  0  0
   -1.8649   -0.0134   -0.7884 C   0  0  0  0  0  0
   -0.9550    0.1505    0.2434 C   0  0  0  0  0  0
   -1.4181    0.3901    1.5387 C   0  0  0  0  0  0
   -2.7012    0.4652    1.8093 N   0  0  0  0  0  0
    0.4191    0.0759   -0.0108 N   0  0  0  0  0  0
    1.3771    0.2499    1.0839 C   0  0  0  0  0  0
    2.7795    0.1031    0.5522 C   0  0  0  0  0  0
    3.5562    1.2244    0.3334 C   0  0  0  0  0  0
    4.8469    1.0893   -0.1554 C   0  0  0  0  0  0
    5.3581   -0.1719   -0.4246 C   0  0  0  0  0  0
    4.5817   -1.2929   -0.2058 C   0  0  0  0  0  0
    3.2924   -1.1580    0.2881 C   0  0  0  0  0  0
    2.5280   -2.2617    0.5039 O   0  0  0  0  0  0
    3.3200   -3.3917    0.1324 C   0  0  0  0  0  0
    5.6113    2.1930   -0.3712 O   0  0  0  0  0  0
    6.8697    1.7332   -0.8681 C   0  0  0  0  0  0
   -7.1703    0.3301    0.5054 N   0  0  0  0  0  0
   -4.5989   -0.4271   -3.4474 H   0  0  0  0  0  0
   -2.9687   -0.3907   -3.0426 H   0  0  0  0  0  0
   -1.5334   -0.2001   -1.7992 H   0  0  0  0  0  0
   -0.7033    0.5169    2.3383 H   0  0  0  0  0  0
    0.7373   -0.0910   -0.9118 H   0  0  0  0  0  0
    1.2554    1.2419    1.5189 H   0  0  0  0  0  0
    1.1971   -0.5064    1.8479 H   0  0  0  0  0  0
    3.1581    2.2063    0.5427 H   0  0  0  0  0  0
    6.3632   -0.2771   -0.8056 H   0  0  0  0  0  0
    4.9795   -2.2747   -0.4158 H   0  0  0  0  0  0
    2.7460   -4.3050    0.2890 H   0  0  0  0  0  0
    3.5962   -3.3119   -0.9190 H   0  0  0  0  0  0
    4.2219   -3.4201    0.7439 H   0  0  0  0  0  0
    7.5199    2.5875   -1.0569 H   0  0  0  0  0  0
    7.3345    1.0789   -0.1306 H   0  0  0  0  0  0
    6.7147    1.1826   -1.7959 H   0  0  0  0  0  0
   -7.8465    0.2231   -0.1818 H   0  0  0  0  0  0
   -7.4343    0.4986    1.4234 H   0  0  0  0  0  0
  1  2  1  0  0  0
  1  6  2  0  0  0
  2  3  2  0  0  0
  2 24  1  0  0  0
  3  4  1  0  0  0
  4  5  2  0  0  0
  4 11  1  0  0  0
  5  6  1  0  0  0
  5  8  1  0  0  0
  6  7  1  0  0  0
  7 25  1  0  0  0
  7 26  1  0  0  0
  8  9  2  0  0  0
  8 27  1  0  0  0
  9 10  1  0  0  0
  9 12  1  0  0  0
 10 11  2  0  0  0
 10 28  1  0  0  0
 12 13  1  0  0  0
 12 29  1  0  0  0
 13 14  1  0  0  0
 13 30  1  0  0  0
 13 31  1  0  0  0
 14 15  1  0  0  0
 14 19  2  0  0  0
 15 16  2  0  0  0
 15 32  1  0  0  0
 16 17  1  0  0  0
 16 22  1  0  0  0
 17 18  2  0  0  0
 17 33  1  0  0  0
 18 19  1  0  0  0
 18 34  1  0  0  0
 19 20  1  0  0  0
 20 21  1  0  0  0
 21 35  1  0  0  0
 21 36  1  0  0  0
 21 37  1  0  0  0
 22 23  1  0  0  0
 23 38  1  0  0  0
 23 39  1  0  0  0
 23 40  1  0  0  0
 24 41  1  0  0  0
 24 42  1  0  0  0
M  END
>  <ACTIVITY>
6.45593

>  <set_rl>
1

>  <Min_dist>
999.9

>  <Avg_dist>
999.9

>  <PC_uM>
3.8

>  <TG_uM>
0.31

>  <RL_uM>
0.35

$$$$
25-23
  Cerius2 12110214553D 1   1.00000                          
 
 40 43  0  0  0  0  0  0  0  0999 V2000
   -5.2387    0.8537    0.7322 N   0  0  0  0  0  0
   -5.5841    0.0899   -0.3005 C   0  0  0  0  0  0
   -4.7106   -0.6153   -0.9931 N   0  0  0  0  0  0
   -3.4071   -0.5892   -0.6751 C   0  0  0  0  0  0
   -2.9955    0.2114    0.4182 C   0  0  0  0  0  0
   -3.9771    0.9480    1.1264 C   0  0  0  0  0  0
   -3.6286    1.7425    2.1975 N   0  0  0  0  0  0
   -1.6405    0.2531    0.7677 C   0  0  0  0  0  0
   -0.7539   -0.5015    0.0167 C   0  0  0  0  0  0
   -1.2319   -1.2679   -1.0482 C   0  0  0  0  0  0
   -2.5073   -1.2942   -1.3610 N   0  0  0  0  0  0
    0.6115   -0.4955    0.3232 N   0  0  0  0  0  0
    1.5447   -1.2953   -0.4741 C   0  0  0  0  0  0
    2.9468   -1.0910    0.0391 C   0  0  0  0  0  0
    3.5377   -2.0427    0.8124 C   0  0  0  0  0  0
    4.8334   -1.8716    1.2956 C   0  0  0  0  0  0
    5.5459   -0.7479    1.0084 C   0  0  0  0  0  0
    4.9692    0.2565    0.2130 C   0  0  0  0  0  0
    3.6531    0.0801   -0.2830 C   0  0  0  0  0  0
    3.0764    1.0847   -1.0790 C   0  0  0  0  0  0
    3.7870    2.2102   -1.3623 C   0  0  0  0  0  0
    5.0813    2.3834   -0.8750 C   0  0  0  0  0  0
    5.6737    1.4303   -0.1052 C   0  0  0  0  0  0
   -6.9170    0.0322   -0.6637 N   0  0  0  0  0  0
   -4.3108    2.2415    2.6735 H   0  0  0  0  0  0
   -2.7012    1.8027    2.4753 H   0  0  0  0  0  0
   -1.2971    0.8548    1.5962 H   0  0  0  0  0  0
   -0.5352   -1.8538   -1.6294 H   0  0  0  0  0  0
    0.9400    0.0383    1.0635 H   0  0  0  0  0  0
    1.2789   -2.3494   -0.3954 H   0  0  0  0  0  0
    1.4906   -0.9839   -1.5173 H   0  0  0  0  0  0
    2.9940   -2.9437    1.0554 H   0  0  0  0  0  0
    5.2789   -2.6420    1.9075 H   0  0  0  0  0  0
    6.5491   -0.6288    1.3902 H   0  0  0  0  0  0
    2.0746    0.9639   -1.4642 H   0  0  0  0  0  0
    3.3415    2.9805   -1.9742 H   0  0  0  0  0  0
    5.6236    3.2860   -1.1150 H   0  0  0  0  0  0
    6.6772    1.5785    0.2657 H   0  0  0  0  0  0
   -7.5771    0.5422   -0.1685 H   0  0  0  0  0  0
   -7.1921   -0.5182   -1.4135 H   0  0  0  0  0  0
  1  2  1  0  0  0
  1  6  2  0  0  0
  2  3  2  0  0  0
  2 24  1  0  0  0
  3  4  1  0  0  0
  4  5  2  0  0  0
  4 11  1  0  0  0
  5  6  1  0  0  0
  5  8  1  0  0  0
  6  7  1  0  0  0
  7 25  1  0  0  0
  7 26  1  0  0  0
  8  9  2  0  0  0
  8 27  1  0  0  0
  9 10  1  0  0  0
  9 12  1  0  0  0
 10 11  2  0  0  0
 10 28  1  0  0  0
 12 13  1  0  0  0
 12 29  1  0  0  0
 13 14  1  0  0  0
 13 30  1  0  0  0
 13 31  1  0  0  0
 14 15  1  0  0  0
 14 19  2  0  0  0
 15 16  2  0  0  0
 15 32  1  0  0  0
 16 17  1  0  0  0
 16 33  1  0  0  0
 17 18  2  0  0  0
 17 34  1  0  0  0
 18 19  1  0  0  0
 18 23  1  0  0  0
 19 20  1  0  0  0
 20 21  2  0  0  0
 20 35  1  0  0  0
 21 22  1  0  0  0
 21 36  1  0  0  0
 22 23  2  0  0  0
 22 37  1  0  0  0
 23 38  1  0  0  0
 24 39  1  0  0  0
 24 40  1  0  0  0
M  END
>  <ACTIVITY>
6.61979

>  <set_rl>
1

>  <Min_dist>
999.9

>  <Avg_dist>
999.9

>  <PC_uM>
3.9

>  <TG_uM>
0.98

>  <RL_uM>
0.24

$$$$
25-24
  Cerius2 12110214553D 1   1.00000                          
 
 44 47  0  0  0  0  0  0  0  0999 V2000
   -5.8318   -0.3996   -1.0979 N   0  0  0  0  0  0
   -6.2072    0.0169    0.1083 C   0  0  0  0  0  0
   -5.3490    0.4168    1.0267 N   0  0  0  0  0  0
   -4.0311    0.4192    0.7740 C   0  0  0  0  0  0
   -3.5875   -0.0168   -0.4984 C   0  0  0  0  0  0
   -4.5538   -0.4354   -1.4464 C   0  0  0  0  0  0
   -4.1743   -0.8690   -2.6985 N   0  0  0  0  0  0
   -2.2169   -0.0221   -0.7836 C   0  0  0  0  0  0
   -1.3472    0.4054    0.2064 C   0  0  0  0  0  0
   -1.8566    0.8216    1.4381 C   0  0  0  0  0  0
   -3.1462    0.8195    1.6871 N   0  0  0  0  0  0
    0.0327    0.4197   -0.0263 N   0  0  0  0  0  0
    0.9480    0.8727    1.0240 C   0  0  0  0  0  0
    2.3688    0.7623    0.5341 C   0  0  0  0  0  0
    3.0409    1.8759    0.1307 C   0  0  0  0  0  0
    4.3538    1.7966   -0.3249 C   0  0  0  0  0  0
    5.0067    0.5973   -0.3805 C   0  0  0  0  0  0
    4.3414   -0.5759    0.0293 C   0  0  0  0  0  0
    3.0067   -0.4892    0.4973 C   0  0  0  0  0  0
    2.3428   -1.6587    0.9061 C   0  0  0  0  0  0
    2.9888   -2.8552    0.8471 C   0  0  0  0  0  0
    4.3016   -2.9397    0.3871 C   0  0  0  0  0  0
    4.9772   -1.8272   -0.0120 C   0  0  0  0  0  0
    6.2875    0.5362   -0.8278 O   0  0  0  0  0  0
    6.6724    1.8711   -1.1621 C   0  0  0  0  0  0
   -7.5560    0.0318    0.4125 N   0  0  0  0  0  0
   -4.8464   -1.1527   -3.3378 H   0  0  0  0  0  0
   -3.2352   -0.8904   -2.9403 H   0  0  0  0  0  0
   -1.8492   -0.3494   -1.7449 H   0  0  0  0  0  0
   -1.1729    1.1537    2.2054 H   0  0  0  0  0  0
    0.3831    0.1296   -0.8830 H   0  0  0  0  0  0
    0.7293    1.9110    1.2735 H   0  0  0  0  0  0
    0.8200    0.2513    1.9104 H   0  0  0  0  0  0
    2.5473    2.8358    0.1645 H   0  0  0  0  0  0
    4.8635    2.6954   -0.6392 H   0  0  0  0  0  0
    1.3256   -1.6081    1.2654 H   0  0  0  0  0  0
    2.4765   -3.7524    1.1618 H   0  0  0  0  0  0
    4.7916   -3.9014    0.3506 H   0  0  0  0  0  0
    5.9941   -1.9079   -0.3666 H   0  0  0  0  0  0
    7.6991    1.8724   -1.5281 H   0  0  0  0  0  0
    6.0100    2.2571   -1.9369 H   0  0  0  0  0  0
    6.6017    2.5022   -0.2762 H   0  0  0  0  0  0
   -8.2053   -0.2576   -0.2475 H   0  0  0  0  0  0
   -7.8529    0.3316    1.2859 H   0  0  0  0  0  0
  1  2  1  0  0  0
  1  6  2  0  0  0
  2  3  2  0  0  0
  2 26  1  0  0  0
  3  4  1  0  0  0
  4  5  2  0  0  0
  4 11  1  0  0  0
  5  6  1  0  0  0
  5  8  1  0  0  0
  6  7  1  0  0  0
  7 27  1  0  0  0
  7 28  1  0  0  0
  8  9  2  0  0  0
  8 29  1  0  0  0
  9 10  1  0  0  0
  9 12  1  0  0  0
 10 11  2  0  0  0
 10 30  1  0  0  0
 12 13  1  0  0  0
 12 31  1  0  0  0
 13 14  1  0  0  0
 13 32  1  0  0  0
 13 33  1  0  0  0
 14 15  1  0  0  0
 14 19  2  0  0  0
 15 16  2  0  0  0
 15 34  1  0  0  0
 16 17  1  0  0  0
 16 35  1  0  0  0
 17 18  2  0  0  0
 17 24  1  0  0  0
 18 19  1  0  0  0
 18 23  1  0  0  0
 19 20  1  0  0  0
 20 21  2  0  0  0
 20 36  1  0  0  0
 21 22  1  0  0  0
 21 37  1  0  0  0
 22 23  2  0  0  0
 22 38  1  0  0  0
 23 39  1  0  0  0
 24 25  1  0  0  0
 25 40  1  0  0  0
 25 41  1  0  0  0
 25 42  1  0  0  0
 26 43  1  0  0  0
 26 44  1  0  0  0
M  END
>  <ACTIVITY>
6.36653

>  <set_rl>
1

>  <Min_dist>
999.9

>  <Avg_dist>
999.9

>  <PC_uM>
8.2

>  <TG_uM>
0.38

>  <RL_uM>
0.43

$$$$
25-25
  Cerius2 12110214553D 1   1.00000                          
 
 44 47  0  0  0  0  0  0  0  0999 V2000
   -5.6019   -0.2811   -1.0380 N   0  0  0  0  0  0
   -5.9091   -0.2064    0.2540 C   0  0  0  0  0  0
   -4.9994   -0.0714    1.1995 N   0  0  0  0  0  0
   -3.6960   -0.0024    0.8873 C   0  0  0  0  0  0
   -3.3244   -0.0779   -0.4772 C   0  0  0  0  0  0
   -4.3439   -0.2227   -1.4505 C   0  0  0  0  0  0
   -4.0352   -0.3014   -2.7915 N   0  0  0  0  0  0
   -1.9703   -0.0075   -0.8255 C   0  0  0  0  0  0
   -1.0449    0.1347    0.1956 C   0  0  0  0  0  0
   -1.4846    0.2023    1.5192 C   0  0  0  0  0  0
   -2.7598    0.1345    1.8264 N   0  0  0  0  0  0
    0.3214    0.2097   -0.0973 N   0  0  0  0  0  0
    1.2958    0.3601    0.9863 C   0  0  0  0  0  0
    2.6861    0.4153    0.4076 C   0  0  0  0  0  0
    3.2366    1.6150    0.0558 C   0  0  0  0  0  0
    4.5252    1.6826   -0.4823 C   0  0  0  0  0  0
    5.2647    0.5565   -0.6697 C   0  0  0  0  0  0
    4.7299   -0.6950   -0.3183 C   0  0  0  0  0  0
    3.4254   -0.7655    0.2324 C   0  0  0  0  0  0
    2.8925   -2.0182    0.5836 C   0  0  0  0  0  0
    3.6336   -3.1432    0.3908 C   0  0  0  0  0  0
    4.9162   -3.0736   -0.1502 C   0  0  0  0  0  0
    5.4664   -1.8783   -0.4980 C   0  0  0  0  0  0
    2.5221    2.7576    0.2306 O   0  0  0  0  0  0
    3.3468    3.8336   -0.2212 C   0  0  0  0  0  0
   -7.2404   -0.2727    0.6219 N   0  0  0  0  0  0
   -4.7431   -0.4005   -3.4471 H   0  0  0  0  0  0
   -3.1100   -0.2577   -3.0795 H   0  0  0  0  0  0
   -1.6569   -0.0627   -1.8576 H   0  0  0  0  0  0
   -0.7578    0.3132    2.3103 H   0  0  0  0  0  0
    0.6234    0.1621   -1.0179 H   0  0  0  0  0  0
    1.0926    1.2813    1.5323 H   0  0  0  0  0  0
    1.2182   -0.4892    1.6651 H   0  0  0  0  0  0
    4.9393    2.6426   -0.7534 H   0  0  0  0  0  0
    6.2585    0.6236   -1.0870 H   0  0  0  0  0  0
    1.9003   -2.0873    1.0045 H   0  0  0  0  0  0
    3.2218   -4.1042    0.6615 H   0  0  0  0  0  0
    5.4833   -3.9816   -0.2925 H   0  0  0  0  0  0
    6.4612   -1.8401   -0.9165 H   0  0  0  0  0  0
    2.8131    4.7762   -0.0999 H   0  0  0  0  0  0
    4.2655    3.8582    0.3649 H   0  0  0  0  0  0
    3.5910    3.6872   -1.2734 H   0  0  0  0  0  0
   -7.9267   -0.3716   -0.0563 H   0  0  0  0  0  0
   -7.4879   -0.2204    1.5584 H   0  0  0  0  0  0
  1  2  1  0  0  0
  1  6  2  0  0  0
  2  3  2  0  0  0
  2 26  1  0  0  0
  3  4  1  0  0  0
  4  5  2  0  0  0
  4 11  1  0  0  0
  5  6  1  0  0  0
  5  8  1  0  0  0
  6  7  1  0  0  0
  7 27  1  0  0  0
  7 28  1  0  0  0
  8  9  2  0  0  0
  8 29  1  0  0  0
  9 10  1  0  0  0
  9 12  1  0  0  0
 10 11  2  0  0  0
 10 30  1  0  0  0
 12 13  1  0  0  0
 12 31  1  0  0  0
 13 14  1  0  0  0
 13 32  1  0  0  0
 13 33  1  0  0  0
 14 15  1  0  0  0
 14 19  2  0  0  0
 15 16  2  0  0  0
 15 24  1  0  0  0
 16 17  1  0  0  0
 16 34  1  0  0  0
 17 18  2  0  0  0
 17 35  1  0  0  0
 18 19  1  0  0  0
 18 23  1  0  0  0
 19 20  1  0  0  0
 20 21  2  0  0  0
 20 36  1  0  0  0
 21 22  1  0  0  0
 21 37  1  0  0  0
 22 23  2  0  0  0
 22 38  1  0  0  0
 23 39  1  0  0  0
 24 25  1  0  0  0
 25 40  1  0  0  0
 25 41  1  0  0  0
 25 42  1  0  0  0
 26 43  1  0  0  0
 26 44  1  0  0  0
M  END
>  <ACTIVITY>
6.4318

>  <set_rl>
1

>  <Min_dist>
999.9

>  <Avg_dist>
999.9

>  <PC_uM>
15.4

>  <TG_uM>
0.71

>  <RL_uM>
0.37

$$$$
26-10
  Cerius2 12110214553D 1   1.00000                          
 
 51 54  0  0  0  0  0  0  0  0999 V2000
   -6.0139    0.2035   -1.0337 N   0  0  0  0  0  0
   -6.4557    0.5076    0.1832 C   0  0  0  0  0  0
   -5.6480    0.7698    1.1935 N   0  0  0  0  0  0
   -4.3180    0.7385    1.0280 C   0  0  0  0  0  0
   -3.8035    0.4184   -0.2524 C   0  0  0  0  0  0
   -4.7168    0.1462   -1.3007 C   0  0  0  0  0  0
   -4.2686   -0.1706   -2.5643 N   0  0  0  0  0  0
   -2.4173    0.3813   -0.4443 C   0  0  0  0  0  0
   -1.6110    0.6597    0.6279 C   0  0  0  0  0  0
   -2.1781    0.9668    1.8590 C   0  0  0  0  0  0
   -3.4804    0.9998    2.0321 N   0  0  0  0  0  0
   -0.1123    0.6323    0.4727 C   0  0  0  0  0  0
    0.3451   -0.7571    0.3929 N   0  0  0  0  0  0
    1.7072   -1.0375    0.2333 C   0  0  0  0  0  0
    2.6229   -0.0018    0.1507 C   0  0  0  0  0  0
    3.9780   -0.2850   -0.0083 C   0  0  0  0  0  0
    4.4073   -1.6087   -0.0837 C   0  0  0  0  0  0
    3.4915   -2.6383   -0.0014 C   0  0  0  0  0  0
    2.1438   -2.3596    0.1630 C   0  0  0  0  0  0
    1.2449   -3.3768    0.2440 O   0  0  0  0  0  0
    1.9861   -4.5931    0.1283 C   0  0  0  0  0  0
    4.9625    0.8213   -0.0978 C   0  0  0  0  0  0
    6.1988    0.7102    0.5355 C   0  0  0  0  0  0
    7.1108    1.7425    0.4490 C   0  0  0  0  0  0
    6.7993    2.8860   -0.2642 C   0  0  0  0  0  0
    5.5735    3.0019   -0.8944 C   0  0  0  0  0  0
    4.6565    1.9731   -0.8202 C   0  0  0  0  0  0
   -1.8293    0.0447   -1.7904 C   0  0  0  0  0  0
   -7.8199    0.5515    0.3992 N   0  0  0  0  0  0
   -3.5092   -0.7638   -2.6749 H   0  0  0  0  0  0
   -4.7125    0.1995   -3.3433 H   0  0  0  0  0  0
   -1.5310    1.1839    2.6961 H   0  0  0  0  0  0
    0.1683    1.1601   -0.4387 H   0  0  0  0  0  0
    0.3508    1.1185    1.3314 H   0  0  0  0  0  0
   -0.2959   -1.4829    0.4507 H   0  0  0  0  0  0
    2.2875    1.0231    0.2090 H   0  0  0  0  0  0
    5.4574   -1.8292   -0.2069 H   0  0  0  0  0  0
    3.8265   -3.6634   -0.0604 H   0  0  0  0  0  0
    1.3040   -5.4412    0.1880 H   0  0  0  0  0  0
    2.5063   -4.6119   -0.8293 H   0  0  0  0  0  0
    2.7132   -4.6539    0.9381 H   0  0  0  0  0  0
    6.4427   -0.1819    1.0933 H   0  0  0  0  0  0
    8.0693    1.6574    0.9395 H   0  0  0  0  0  0
    7.5158    3.6915   -0.3290 H   0  0  0  0  0  0
    5.3352    3.8972   -1.4494 H   0  0  0  0  0  0
    3.6998    2.0644   -1.3129 H   0  0  0  0  0  0
   -1.7981   -1.0379   -1.9128 H   0  0  0  0  0  0
   -2.4460    0.4816   -2.5758 H   0  0  0  0  0  0
   -0.8184    0.4470   -1.8562 H   0  0  0  0  0  0
   -8.4325    0.3626   -0.3288 H   0  0  0  0  0  0
   -8.1648    0.7711    1.2788 H   0  0  0  0  0  0
  1  2  1  0  0  0
  1  6  2  0  0  0
  2  3  2  0  0  0
  2 29  1  0  0  0
  3  4  1  0  0  0
  4  5  2  0  0  0
  4 11  1  0  0  0
  5  6  1  0  0  0
  5  8  1  0  0  0
  6  7  1  0  0  0
  7 30  1  0  0  0
  7 31  1  0  0  0
  8  9  2  0  0  0
  8 28  1  0  0  0
  9 10  1  0  0  0
  9 12  1  0  0  0
 10 11  2  0  0  0
 10 32  1  0  0  0
 12 13  1  0  0  0
 12 33  1  0  0  0
 12 34  1  0  0  0
 13 14  1  0  0  0
 13 35  1  0  0  0
 14 15  1  0  0  0
 14 19  2  0  0  0
 15 16  2  0  0  0
 15 36  1  0  0  0
 16 17  1  0  0  0
 16 22  1  0  0  0
 17 18  2  0  0  0
 17 37  1  0  0  0
 18 19  1  0  0  0
 18 38  1  0  0  0
 19 20  1  0  0  0
 20 21  1  0  0  0
 21 39  1  0  0  0
 21 40  1  0  0  0
 21 41  1  0  0  0
 22 23  1  0  0  0
 22 27  2  0  0  0
 23 24  2  0  0  0
 23 42  1  0  0  0
 24 25  1  0  0  0
 24 43  1  0  0  0
 25 26  2  0  0  0
 25 44  1  0  0  0
 26 27  1  0  0  0
 26 45  1  0  0  0
 27 46  1  0  0  0
 28 47  1  0  0  0
 28 48  1  0  0  0
 28 49  1  0  0  0
 29 50  1  0  0  0
 29 51  1  0  0  0
M  END
>  <ACTIVITY>
6.35655

>  <set_rl>
1

>  <Min_dist>
999.9

>  <Avg_dist>
999.9

>  <PC_uM>
0.64

>  <TG_uM>
0.068

>  <RL_uM>
0.44

$$$$
27-6
  Cerius2 12110214553D 1   1.00000                          
 
 41 43  0  0  0  0  0  0  0  0999 V2000
   -4.5780    1.1228    0.4510 N   0  0  0  0  0  0
   -5.0719    0.2791   -0.4506 C   0  0  0  0  0  0
   -4.3585   -0.6921   -0.9887 N   0  0  0  0  0  0
   -3.0766   -0.8698   -0.6389 C   0  0  0  0  0  0
   -2.5093    0.0068    0.3183 C   0  0  0  0  0  0
   -3.3217    1.0316    0.8635 C   0  0  0  0  0  0
   -2.8187    1.9108    1.7972 N   0  0  0  0  0  0
   -1.1723   -0.1637    0.6963 C   0  0  0  0  0  0
   -0.4641   -1.1831    0.1163 C   0  0  0  0  0  0
   -1.0786   -2.0093   -0.8170 C   0  0  0  0  0  0
   -2.3344   -1.8436   -1.1673 N   0  0  0  0  0  0
    0.9787   -1.4078    0.4894 C   0  0  0  0  0  0
    1.8104   -0.3745   -0.1326 N   0  0  0  0  0  0
    3.1934   -0.3660    0.0827 C   0  0  0  0  0  0
    3.7784   -1.3351    0.8846 C   0  0  0  0  0  0
    5.1444   -1.3246    1.0956 C   0  0  0  0  0  0
    5.9304   -0.3500    0.5093 C   0  0  0  0  0  0
    5.3542    0.6192   -0.2913 C   0  0  0  0  0  0
    3.9869    0.6123   -0.5124 C   0  0  0  0  0  0
    3.4188    1.5649   -1.2997 O   0  0  0  0  0  0
    4.4760    2.4171   -1.7449 C   0  0  0  0  0  0
   -0.5307    0.7474    1.7108 C   0  0  0  0  0  0
   -6.3894    0.4255   -0.8406 N   0  0  0  0  0  0
   -1.9237    2.2699    1.6926 H   0  0  0  0  0  0
   -3.3595    2.1708    2.5593 H   0  0  0  0  0  0
   -0.5088   -2.8089   -1.2669 H   0  0  0  0  0  0
    1.0859   -1.3571    1.5729 H   0  0  0  0  0  0
    1.2960   -2.3897    0.1384 H   0  0  0  0  0  0
    1.4027    0.3037   -0.6935 H   0  0  0  0  0  0
    3.1667   -2.0974    1.3441 H   0  0  0  0  0  0
    5.5988   -2.0793    1.7204 H   0  0  0  0  0  0
    6.9972   -0.3454    0.6772 H   0  0  0  0  0  0
    5.9710    1.3791   -0.7478 H   0  0  0  0  0  0
    4.0669    3.2006   -2.3828 H   0  0  0  0  0  0
    4.9657    2.8694   -0.8825 H   0  0  0  0  0  0
    5.2017    1.8313   -2.3090 H   0  0  0  0  0  0
   -0.1952    1.6603    1.2185 H   0  0  0  0  0  0
   -1.2563    0.9976    2.4847 H   0  0  0  0  0  0
    0.3235    0.2435    2.1629 H   0  0  0  0  0  0
   -6.9328    1.1321   -0.4582 H   0  0  0  0  0  0
   -6.7709   -0.1784   -1.4969 H   0  0  0  0  0  0
  1  2  1  0  0  0
  1  6  2  0  0  0
  2  3  2  0  0  0
  2 23  1  0  0  0
  3  4  1  0  0  0
  4  5  2  0  0  0
  4 11  1  0  0  0
  5  6  1  0  0  0
  5  8  1  0  0  0
  6  7  1  0  0  0
  7 24  1  0  0  0
  7 25  1  0  0  0
  8  9  2  0  0  0
  8 22  1  0  0  0
  9 10  1  0  0  0
  9 12  1  0  0  0
 10 11  2  0  0  0
 10 26  1  0  0  0
 12 13  1  0  0  0
 12 27  1  0  0  0
 12 28  1  0  0  0
 13 14  1  0  0  0
 13 29  1  0  0  0
 14 15  1  0  0  0
 14 19  2  0  0  0
 15 16  2  0  0  0
 15 30  1  0  0  0
 16 17  1  0  0  0
 16 31  1  0  0  0
 17 18  2  0  0  0
 17 32  1  0  0  0
 18 19  1  0  0  0
 18 33  1  0  0  0
 19 20  1  0  0  0
 20 21  1  0  0  0
 21 34  1  0  0  0
 21 35  1  0  0  0
 21 36  1  0  0  0
 22 37  1  0  0  0
 22 38  1  0  0  0
 22 39  1  0  0  0
 23 40  1  0  0  0
 23 41  1  0  0  0
M  END
>  <ACTIVITY>
6.77211

>  <set_rl>
1

>  <Min_dist>
999.9

>  <Avg_dist>
999.9

>  <PC_uM>
0.117

>  <TG_uM>
0.023

>  <RL_uM>
0.169

$$$$
27-7
  Cerius2 12110214553D 1   1.00000                          
 
 41 43  0  0  0  0  0  0  0  0999 V2000
   -4.8375    1.2975   -0.0204 N   0  0  0  0  0  0
   -5.3494    0.2079   -0.5856 C   0  0  0  0  0  0
   -4.6517   -0.8966   -0.7729 N   0  0  0  0  0  0
   -3.3683   -0.9644   -0.3916 C   0  0  0  0  0  0
   -2.7821    0.1737    0.2146 C   0  0  0  0  0  0
   -3.5781    1.3325    0.3913 C   0  0  0  0  0  0
   -3.0565    2.4661    0.9749 N   0  0  0  0  0  0
   -1.4432    0.1214    0.6197 C   0  0  0  0  0  0
   -0.7517   -1.0424    0.4091 C   0  0  0  0  0  0
   -1.3843   -2.1245   -0.1912 C   0  0  0  0  0  0
   -2.6418   -2.0685   -0.5691 N   0  0  0  0  0  0
    0.6923   -1.1489    0.8270 C   0  0  0  0  0  0
    1.5286   -0.3935   -0.1092 N   0  0  0  0  0  0
    2.9106   -0.3315    0.0825 C   0  0  0  0  0  0
    3.4935   -0.9860    1.1611 C   0  0  0  0  0  0
    4.8603   -0.9249    1.3502 C   0  0  0  0  0  0
    5.6516   -0.2130    0.4685 C   0  0  0  0  0  0
    5.0751    0.4425   -0.6103 C   0  0  0  0  0  0
    3.7044    0.3790   -0.8070 C   0  0  0  0  0  0
    5.8545    1.1424   -1.4761 O   0  0  0  0  0  0
    7.2010    1.0158   -1.0146 C   0  0  0  0  0  0
   -0.7818    1.3103    1.2680 C   0  0  0  0  0  0
   -6.6692    0.2332   -0.9941 N   0  0  0  0  0  0
   -2.1590    2.7579    0.7507 H   0  0  0  0  0  0
   -3.5867    2.9725    1.6100 H   0  0  0  0  0  0
   -0.8276   -3.0359   -0.3517 H   0  0  0  0  0  0
    0.8111   -0.7410    1.8307 H   0  0  0  0  0  0
    0.9958   -2.1958    0.8219 H   0  0  0  0  0  0
    1.1224    0.0635   -0.8622 H   0  0  0  0  0  0
    2.8774   -1.5423    1.8519 H   0  0  0  0  0  0
    5.3116   -1.4341    2.1889 H   0  0  0  0  0  0
    6.7200   -0.1665    0.6194 H   0  0  0  0  0  0
    3.2541    0.8886   -1.6460 H   0  0  0  0  0  0
    7.8666    1.5640   -1.6813 H   0  0  0  0  0  0
    7.2795    1.4238   -0.0069 H   0  0  0  0  0  0
    7.4838   -0.0368   -1.0035 H   0  0  0  0  0  0
   -0.4417    2.0019    0.4972 H   0  0  0  0  0  0
   -1.4969    1.8141    1.9183 H   0  0  0  0  0  0
    0.0716    0.9748    1.8573 H   0  0  0  0  0  0
   -7.2012    1.0341   -0.8662 H   0  0  0  0  0  0
   -7.0637   -0.5500   -1.4087 H   0  0  0  0  0  0
  1  2  1  0  0  0
  1  6  2  0  0  0
  2  3  2  0  0  0
  2 23  1  0  0  0
  3  4  1  0  0  0
  4  5  2  0  0  0
  4 11  1  0  0  0
  5  6  1  0  0  0
  5  8  1  0  0  0
  6  7  1  0  0  0
  7 24  1  0  0  0
  7 25  1  0  0  0
  8  9  2  0  0  0
  8 22  1  0  0  0
  9 10  1  0  0  0
  9 12  1  0  0  0
 10 11  2  0  0  0
 10 26  1  0  0  0
 12 13  1  0  0  0
 12 27  1  0  0  0
 12 28  1  0  0  0
 13 14  1  0  0  0
 13 29  1  0  0  0
 14 15  1  0  0  0
 14 19  2  0  0  0
 15 16  2  0  0  0
 15 30  1  0  0  0
 16 17  1  0  0  0
 16 31  1  0  0  0
 17 18  2  0  0  0
 17 32  1  0  0  0
 18 19  1  0  0  0
 18 20  1  0  0  0
 19 33  1  0  0  0
 20 21  1  0  0  0
 21 34  1  0  0  0
 21 35  1  0  0  0
 21 36  1  0  0  0
 22 37  1  0  0  0
 22 38  1  0  0  0
 22 39  1  0  0  0
 23 40  1  0  0  0
 23 41  1  0  0  0
M  END
>  <ACTIVITY>
7.09637

>  <set_rl>
1

>  <Min_dist>
999.9

>  <Avg_dist>
999.9

>  <PC_uM>
0.0689

>  <TG_uM>
0.0074

>  <RL_uM>
0.0801

$$$$
27-9
  Cerius2 12110214553D 1   1.00000                          
 
 37 39  0  0  0  0  0  0  0  0999 V2000
   -4.5636    1.0632    0.4916 N   0  0  0  0  0  0
   -5.0520    0.2154   -0.4091 C   0  0  0  0  0  0
   -4.3302   -0.7471   -0.9516 N   0  0  0  0  0  0
   -3.0449   -0.9112   -0.6075 C   0  0  0  0  0  0
   -2.4833   -0.0297    0.3486 C   0  0  0  0  0  0
   -3.3046    0.9853    0.8987 C   0  0  0  0  0  0
   -2.8075    1.8687    1.8316 N   0  0  0  0  0  0
   -1.1429   -0.1860    0.7208 C   0  0  0  0  0  0
   -0.4260   -1.1967    0.1363 C   0  0  0  0  0  0
   -1.0353   -2.0283   -0.7956 C   0  0  0  0  0  0
   -2.2943   -1.8759   -1.1404 N   0  0  0  0  0  0
    1.0207   -1.4060    0.5030 C   0  0  0  0  0  0
    1.8384   -0.3627   -0.1209 N   0  0  0  0  0  0
    3.2199   -0.3387    0.0890 C   0  0  0  0  0  0
    3.8192   -1.3031    0.8888 C   0  0  0  0  0  0
    5.1847   -1.2766    1.0944 C   0  0  0  0  0  0
    5.9557   -0.2911    0.5054 C   0  0  0  0  0  0
    5.3630    0.6709   -0.2916 C   0  0  0  0  0  0
    3.9979    0.6469   -0.5067 C   0  0  0  0  0  0
    3.2543    1.8546   -1.5078 Cl  0  0  0  0  0  0
   -0.5072    0.7308    1.7339 C   0  0  0  0  0  0
   -6.3727    0.3478   -0.7934 N   0  0  0  0  0  0
   -1.9170    2.2379    1.7236 H   0  0  0  0  0  0
   -3.3479    2.1215    2.5964 H   0  0  0  0  0  0
   -0.4586   -2.8210   -1.2490 H   0  0  0  0  0  0
    1.1319   -1.3556    1.5861 H   0  0  0  0  0  0
    1.3474   -2.3838    0.1493 H   0  0  0  0  0  0
    1.4210    0.3114   -0.6797 H   0  0  0  0  0  0
    3.2180   -2.0728    1.3499 H   0  0  0  0  0  0
    5.6510   -2.0264    1.7163 H   0  0  0  0  0  0
    7.0231   -0.2726    0.6686 H   0  0  0  0  0  0
    5.9679    1.4394   -0.7498 H   0  0  0  0  0  0
   -0.1838    1.6479    1.2415 H   0  0  0  0  0  0
   -1.2323    0.9719    2.5112 H   0  0  0  0  0  0
    0.3544    0.2356    2.1817 H   0  0  0  0  0  0
   -6.9222    1.0479   -0.4076 H   0  0  0  0  0  0
   -6.7503   -0.2594   -1.4489 H   0  0  0  0  0  0
  1  2  1  0  0  0
  1  6  2  0  0  0
  2  3  2  0  0  0
  2 22  1  0  0  0
  3  4  1  0  0  0
  4  5  2  0  0  0
  4 11  1  0  0  0
  5  6  1  0  0  0
  5  8  1  0  0  0
  6  7  1  0  0  0
  7 23  1  0  0  0
  7 24  1  0  0  0
  8  9  2  0  0  0
  8 21  1  0  0  0
  9 10  1  0  0  0
  9 12  1  0  0  0
 10 11  2  0  0  0
 10 25  1  0  0  0
 12 13  1  0  0  0
 12 26  1  0  0  0
 12 27  1  0  0  0
 13 14  1  0  0  0
 13 28  1  0  0  0
 14 15  1  0  0  0
 14 19  2  0  0  0
 15 16  2  0  0  0
 15 29  1  0  0  0
 16 17  1  0  0  0
 16 30  1  0  0  0
 17 18  2  0  0  0
 17 31  1  0  0  0
 18 19  1  0  0  0
 18 32  1  0  0  0
 19 20  1  0  0  0
 21 33  1  0  0  0
 21 34  1  0  0  0
 21 35  1  0  0  0
 22 36  1  0  0  0
 22 37  1  0  0  0
M  END
>  <ACTIVITY>
7.05552

>  <set_rl>
1

>  <Min_dist>
999.9

>  <Avg_dist>
999.9

>  <PC_uM>
0.047

>  <TG_uM>
0.0071

>  <RL_uM>
0.088

$$$$
27-10
  Cerius2 12110214553D 1   1.00000                          
 
 37 39  0  0  0  0  0  0  0  0999 V2000
   -4.9865    1.0217    0.3078 N   0  0  0  0  0  0
   -5.4481   -0.1394   -0.1474 C   0  0  0  0  0  0
   -4.6629   -1.1643   -0.4211 N   0  0  0  0  0  0
   -3.3368   -1.0720   -0.2470 C   0  0  0  0  0  0
   -2.8017    0.1474    0.2359 C   0  0  0  0  0  0
   -3.6914    1.2146    0.5137 C   0  0  0  0  0  0
   -3.2225    2.4213    0.9846 N   0  0  0  0  0  0
   -1.4194    0.2623    0.4244 C   0  0  0  0  0  0
   -0.6369   -0.8230    0.1297 C   0  0  0  0  0  0
   -1.2233   -1.9918   -0.3410 C   0  0  0  0  0  0
   -2.5219   -2.0927   -0.5156 N   0  0  0  0  0  0
    0.8569   -0.7495    0.3152 C   0  0  0  0  0  0
    1.4428    0.0594   -0.7565 N   0  0  0  0  0  0
    2.8215    0.2804   -0.7906 C   0  0  0  0  0  0
    3.3787    1.0473   -1.8064 C   0  0  0  0  0  0
    4.7421    1.2642   -1.8377 C   0  0  0  0  0  0
    5.5535    0.7189   -0.8597 C   0  0  0  0  0  0
    5.0024   -0.0459    0.1535 C   0  0  0  0  0  0
    3.6375   -0.2611    0.1940 C   0  0  0  0  0  0
    6.0251   -0.7295    1.3784 Cl  0  0  0  0  0  0
   -0.8099    1.5422    0.9358 C   0  0  0  0  0  0
   -6.8090   -0.2791   -0.3417 N   0  0  0  0  0  0
   -2.4113    2.8039    0.6152 H   0  0  0  0  0  0
   -3.7036    2.8884    1.6855 H   0  0  0  0  0  0
   -0.5949   -2.8398   -0.5698 H   0  0  0  0  0  0
    1.0812   -0.2928    1.2792 H   0  0  0  0  0  0
    1.2769   -1.7548    0.2829 H   0  0  0  0  0  0
    0.8733    0.4414   -1.4425 H   0  0  0  0  0  0
    2.7461    1.4731   -2.5711 H   0  0  0  0  0  0
    5.1753    1.8603   -2.6273 H   0  0  0  0  0  0
    6.6196    0.8899   -0.8868 H   0  0  0  0  0  0
    3.2074   -0.8577    0.9849 H   0  0  0  0  0  0
   -0.6774    2.2380    0.1073 H   0  0  0  0  0  0
   -1.4696    1.9863    1.6812 H   0  0  0  0  0  0
    0.1581    1.3280    1.3888 H   0  0  0  0  0  0
   -7.4052    0.4608   -0.1469 H   0  0  0  0  0  0
   -7.1681   -1.1171   -0.6729 H   0  0  0  0  0  0
  1  2  1  0  0  0
  1  6  2  0  0  0
  2  3  2  0  0  0
  2 22  1  0  0  0
  3  4  1  0  0  0
  4  5  2  0  0  0
  4 11  1  0  0  0
  5  6  1  0  0  0
  5  8  1  0  0  0
  6  7  1  0  0  0
  7 23  1  0  0  0
  7 24  1  0  0  0
  8  9  2  0  0  0
  8 21  1  0  0  0
  9 10  1  0  0  0
  9 12  1  0  0  0
 10 11  2  0  0  0
 10 25  1  0  0  0
 12 13  1  0  0  0
 12 26  1  0  0  0
 12 27  1  0  0  0
 13 14  1  0  0  0
 13 28  1  0  0  0
 14 15  1  0  0  0
 14 19  2  0  0  0
 15 16  2  0  0  0
 15 29  1  0  0  0
 16 17  1  0  0  0
 16 30  1  0  0  0
 17 18  2  0  0  0
 17 31  1  0  0  0
 18 19  1  0  0  0
 18 20  1  0  0  0
 19 32  1  0  0  0
 21 33  1  0  0  0
 21 34  1  0  0  0
 21 35  1  0  0  0
 22 36  1  0  0  0
 22 37  1  0  0  0
M  END
>  <ACTIVITY>
7.4318

>  <set_rl>
1

>  <Min_dist>
999.9

>  <Avg_dist>
999.9

>  <PC_uM>
0.023

>  <TG_uM>
0.011

>  <RL_uM>
0.037

$$$$
27-13
  Cerius2 12110214553D 1   1.00000                          
 
 44 46  0  0  0  0  0  0  0  0999 V2000
   -4.9840   -0.4318   -0.5009 N   0  0  0  0  0  0
   -4.6786   -1.6170    0.0195 C   0  0  0  0  0  0
   -3.4811   -1.9031    0.4949 N   0  0  0  0  0  0
   -2.5021   -0.9876    0.4705 C   0  0  0  0  0  0
   -2.7835    0.2887   -0.0756 C   0  0  0  0  0  0
   -4.0866    0.5411   -0.5712 C   0  0  0  0  0  0
   -4.4121    1.7652   -1.1128 N   0  0  0  0  0  0
   -1.7737    1.2577   -0.1091 C   0  0  0  0  0  0
   -0.5439    0.9238    0.3940 C   0  0  0  0  0  0
   -0.3314   -0.3464    0.9165 C   0  0  0  0  0  0
   -1.2840   -1.2513    0.9447 N   0  0  0  0  0  0
    0.5764    1.9317    0.3804 C   0  0  0  0  0  0
    1.7777    1.3346    0.9693 N   0  0  0  0  0  0
    2.6904    0.6572    0.1577 C   0  0  0  0  0  0
    2.4601    0.5489   -1.2085 C   0  0  0  0  0  0
    3.3631   -0.1206   -2.0109 C   0  0  0  0  0  0
    4.4972   -0.6848   -1.4580 C   0  0  0  0  0  0
    4.7325   -0.5800   -0.0944 C   0  0  0  0  0  0
    3.8317    0.0961    0.7136 C   0  0  0  0  0  0
    5.8479   -1.1357    0.4478 O   0  0  0  0  0  0
    6.5677   -1.7471   -0.6246 C   0  0  0  0  0  0
    2.0215    1.4480    2.4094 C   0  0  0  0  0  0
   -2.0317    2.6275   -0.6820 C   0  0  0  0  0  0
   -5.6577   -2.5910    0.0649 N   0  0  0  0  0  0
   -5.2706    2.1706   -0.9141 H   0  0  0  0  0  0
   -3.7829    2.2217   -1.6929 H   0  0  0  0  0  0
    0.6429   -0.5967    1.3095 H   0  0  0  0  0  0
    0.7850    2.2293   -0.6472 H   0  0  0  0  0  0
    0.2844    2.8073    0.9601 H   0  0  0  0  0  0
    1.5743    0.9883   -1.6430 H   0  0  0  0  0  0
    3.1825   -0.2037   -3.0725 H   0  0  0  0  0  0
    5.2011   -1.2084   -2.0879 H   0  0  0  0  0  0
    4.0132    0.1786    1.7751 H   0  0  0  0  0  0
    7.4755   -2.2088   -0.2362 H   0  0  0  0  0  0
    5.9444   -2.5089   -1.0928 H   0  0  0  0  0  0
    6.8323   -0.9901   -1.3628 H   0  0  0  0  0  0
    1.2077    2.0058    2.8728 H   0  0  0  0  0  0
    2.0753    0.4518    2.8484 H   0  0  0  0  0  0
    2.9628    1.9710    2.5784 H   0  0  0  0  0  0
   -1.9293    2.5928   -1.7667 H   0  0  0  0  0  0
   -3.0413    2.9457   -0.4223 H   0  0  0  0  0  0
   -1.3109    3.3346   -0.2715 H   0  0  0  0  0  0
   -6.5452   -2.4029   -0.2785 H   0  0  0  0  0  0
   -5.4575   -3.4628    0.4401 H   0  0  0  0  0  0
  1  2  1  0  0  0
  1  6  2  0  0  0
  2  3  2  0  0  0
  2 24  1  0  0  0
  3  4  1  0  0  0
  4  5  2  0  0  0
  4 11  1  0  0  0
  5  6  1  0  0  0
  5  8  1  0  0  0
  6  7  1  0  0  0
  7 25  1  0  0  0
  7 26  1  0  0  0
  8  9  2  0  0  0
  8 23  1  0  0  0
  9 10  1  0  0  0
  9 12  1  0  0  0
 10 11  2  0  0  0
 10 27  1  0  0  0
 12 13  1  0  0  0
 12 28  1  0  0  0
 12 29  1  0  0  0
 13 14  1  0  0  0
 13 22  1  0  0  0
 14 15  1  0  0  0
 14 19  2  0  0  0
 15 16  2  0  0  0
 15 30  1  0  0  0
 16 17  1  0  0  0
 16 31  1  0  0  0
 17 18  2  0  0  0
 17 32  1  0  0  0
 18 19  1  0  0  0
 18 20  1  0  0  0
 19 33  1  0  0  0
 20 21  1  0  0  0
 21 34  1  0  0  0
 21 35  1  0  0  0
 21 36  1  0  0  0
 22 37  1  0  0  0
 22 38  1  0  0  0
 22 39  1  0  0  0
 23 40  1  0  0  0
 23 41  1  0  0  0
 23 42  1  0  0  0
 24 43  1  0  0  0
 24 44  1  0  0  0
M  END
>  <ACTIVITY>
7.74473

>  <set_rl>
1

>  <Min_dist>
999.9

>  <Avg_dist>
999.9

>  <PC_uM>
0.03

>  <TG_uM>
0.0063

>  <RL_uM>
0.018

$$$$
27-14
  Cerius2 12110214553D 1   1.00000                          
 
 44 46  0  0  0  0  0  0  0  0999 V2000
   -4.8263   -0.7322   -0.5094 N   0  0  0  0  0  0
   -4.6048   -1.4630    0.5794 C   0  0  0  0  0  0
   -3.4771   -1.4062    1.2626 N   0  0  0  0  0  0
   -2.4866   -0.5898    0.8756 C   0  0  0  0  0  0
   -2.6796    0.2067   -0.2797 C   0  0  0  0  0  0
   -3.9105    0.1057   -0.9742 C   0  0  0  0  0  0
   -4.1487    0.8579   -2.1034 N   0  0  0  0  0  0
   -1.6567    1.0655   -0.6988 C   0  0  0  0  0  0
   -0.5009    1.0973    0.0363 C   0  0  0  0  0  0
   -0.3734    0.2905    1.1607 C   0  0  0  0  0  0
   -1.3379   -0.5136    1.5485 N   0  0  0  0  0  0
    0.6301    2.0048   -0.3740 C   0  0  0  0  0  0
    1.7428    1.8543    0.5670 N   0  0  0  0  0  0
    2.7355    0.8971    0.3293 C   0  0  0  0  0  0
    3.7904    0.7541    1.2209 C   0  0  0  0  0  0
    4.7698   -0.1908    0.9855 C   0  0  0  0  0  0
    4.7001   -0.9965   -0.1413 C   0  0  0  0  0  0
    3.6470   -0.8541   -1.0327 C   0  0  0  0  0  0
    2.6632    0.0858   -0.7954 C   0  0  0  0  0  0
    5.6651   -1.9265   -0.3726 O   0  0  0  0  0  0
    5.3188   -2.5868   -1.5917 C   0  0  0  0  0  0
    1.8163    2.7060    1.7567 C   0  0  0  0  0  0
   -1.8217    1.9293   -1.9226 C   0  0  0  0  0  0
   -5.5988   -2.3185    1.0146 N   0  0  0  0  0  0
   -5.0177    1.2669   -2.2393 H   0  0  0  0  0  0
   -3.4475    0.9785   -2.7627 H   0  0  0  0  0  0
    0.5432    0.3249    1.7309 H   0  0  0  0  0  0
    0.9638    1.7388   -1.3769 H   0  0  0  0  0  0
    0.2864    3.0392   -0.3678 H   0  0  0  0  0  0
    3.8453    1.3819    2.0980 H   0  0  0  0  0  0
    5.5903   -0.3021    1.6788 H   0  0  0  0  0  0
    3.5937   -1.4817   -1.9100 H   0  0  0  0  0  0
    1.8431    0.1964   -1.4893 H   0  0  0  0  0  0
    6.0677   -3.3453   -1.8195 H   0  0  0  0  0  0
    4.3430   -3.0604   -1.4839 H   0  0  0  0  0  0
    5.2816   -1.8582   -2.4016 H   0  0  0  0  0  0
    0.9630    3.3840    1.7715 H   0  0  0  0  0  0
    1.8009    2.0830    2.6510 H   0  0  0  0  0  0
    2.7397    3.2846    1.7329 H   0  0  0  0  0  0
   -1.5923    1.3448   -2.8135 H   0  0  0  0  0  0
   -2.8494    2.2882   -1.9782 H   0  0  0  0  0  0
   -1.1427    2.7798   -1.8613 H   0  0  0  0  0  0
   -6.4361   -2.3765    0.5283 H   0  0  0  0  0  0
   -5.4593   -2.8612    1.8064 H   0  0  0  0  0  0
  1  2  1  0  0  0
  1  6  2  0  0  0
  2  3  2  0  0  0
  2 24  1  0  0  0
  3  4  1  0  0  0
  4  5  2  0  0  0
  4 11  1  0  0  0
  5  6  1  0  0  0
  5  8  1  0  0  0
  6  7  1  0  0  0
  7 25  1  0  0  0
  7 26  1  0  0  0
  8  9  2  0  0  0
  8 23  1  0  0  0
  9 10  1  0  0  0
  9 12  1  0  0  0
 10 11  2  0  0  0
 10 27  1  0  0  0
 12 13  1  0  0  0
 12 28  1  0  0  0
 12 29  1  0  0  0
 13 14  1  0  0  0
 13 22  1  0  0  0
 14 15  1  0  0  0
 14 19  2  0  0  0
 15 16  2  0  0  0
 15 30  1  0  0  0
 16 17  1  0  0  0
 16 31  1  0  0  0
 17 18  2  0  0  0
 17 20  1  0  0  0
 18 19  1  0  0  0
 18 32  1  0  0  0
 19 33  1  0  0  0
 20 21  1  0  0  0
 21 34  1  0  0  0
 21 35  1  0  0  0
 21 36  1  0  0  0
 22 37  1  0  0  0
 22 38  1  0  0  0
 22 39  1  0  0  0
 23 40  1  0  0  0
 23 41  1  0  0  0
 23 42  1  0  0  0
 24 43  1  0  0  0
 24 44  1  0  0  0
M  END
>  <ACTIVITY>
7.88606

>  <set_rl>
1

>  <Min_dist>
999.9

>  <Avg_dist>
999.9

>  <PC_uM>
0.035

>  <TG_uM>
0.0073

>  <RL_uM>
0.013

$$$$
27-16
  Cerius2 12110214553D 1   1.00000                          
 
 40 42  0  0  0  0  0  0  0  0999 V2000
   -4.9414   -0.7409   -0.5688 N   0  0  0  0  0  0
   -4.6858   -1.6026    0.4114 C   0  0  0  0  0  0
   -3.5472   -1.6107    1.0788 N   0  0  0  0  0  0
   -2.5803   -0.7291    0.7869 C   0  0  0  0  0  0
   -2.8100    0.2071   -0.2510 C   0  0  0  0  0  0
   -4.0509    0.1705   -0.9338 C   0  0  0  0  0  0
   -4.3244    1.0584   -1.9510 N   0  0  0  0  0  0
   -1.8120    1.1357   -0.5695 C   0  0  0  0  0  0
   -0.6440    1.0965    0.1456 C   0  0  0  0  0  0
   -0.4802    0.1528    1.1525 C   0  0  0  0  0  0
   -1.4214   -0.7161    1.4463 N   0  0  0  0  0  0
    0.4611    2.0747   -0.1595 C   0  0  0  0  0  0
    1.5934    1.8271    0.7365 N   0  0  0  0  0  0
    2.5991    0.9325    0.3608 C   0  0  0  0  0  0
    3.6733    0.6969    1.2092 C   0  0  0  0  0  0
    4.6658   -0.1877    0.8354 C   0  0  0  0  0  0
    4.5908   -0.8390   -0.3833 C   0  0  0  0  0  0
    3.5220   -0.6058   -1.2308 C   0  0  0  0  0  0
    2.5235    0.2731   -0.8593 C   0  0  0  0  0  0
    5.8402   -1.9503   -0.8500 Cl  0  0  0  0  0  0
    1.6715    2.5174    2.0263 C   0  0  0  0  0  0
   -2.0162    2.1481   -1.6670 C   0  0  0  0  0  0
   -5.6546   -2.5294    0.7459 N   0  0  0  0  0  0
   -5.2037    1.4624   -2.0187 H   0  0  0  0  0  0
   -3.6378    1.2795   -2.5994 H   0  0  0  0  0  0
    0.4456    0.1326    1.7082 H   0  0  0  0  0  0
    0.7819    1.9494   -1.1937 H   0  0  0  0  0  0
    0.0971    3.0915   -0.0126 H   0  0  0  0  0  0
    3.7325    1.2052    2.1603 H   0  0  0  0  0  0
    5.5014   -0.3711    1.4945 H   0  0  0  0  0  0
    3.4664   -1.1150   -2.1816 H   0  0  0  0  0  0
    1.6894    0.4544   -1.5210 H   0  0  0  0  0  0
    0.8052    3.1687    2.1428 H   0  0  0  0  0  0
    1.6846    1.7827    2.8314 H   0  0  0  0  0  0
    2.5826    3.1144    2.0643 H   0  0  0  0  0  0
   -1.7914    1.6901   -2.6302 H   0  0  0  0  0  0
   -3.0517    2.4884   -1.6593 H   0  0  0  0  0  0
   -1.3533    2.9980   -1.5051 H   0  0  0  0  0  0
   -6.4992   -2.5418    0.2690 H   0  0  0  0  0  0
   -5.4900   -3.1676    1.4576 H   0  0  0  0  0  0
  1  2  1  0  0  0
  1  6  2  0  0  0
  2  3  2  0  0  0
  2 23  1  0  0  0
  3  4  1  0  0  0
  4  5  2  0  0  0
  4 11  1  0  0  0
  5  6  1  0  0  0
  5  8  1  0  0  0
  6  7  1  0  0  0
  7 24  1  0  0  0
  7 25  1  0  0  0
  8  9  2  0  0  0
  8 22  1  0  0  0
  9 10  1  0  0  0
  9 12  1  0  0  0
 10 11  2  0  0  0
 10 26  1  0  0  0
 12 13  1  0  0  0
 12 27  1  0  0  0
 12 28  1  0  0  0
 13 14  1  0  0  0
 13 21  1  0  0  0
 14 15  1  0  0  0
 14 19  2  0  0  0
 15 16  2  0  0  0
 15 29  1  0  0  0
 16 17  1  0  0  0
 16 30  1  0  0  0
 17 18  2  0  0  0
 17 20  1  0  0  0
 18 19  1  0  0  0
 18 31  1  0  0  0
 19 32  1  0  0  0
 21 33  1  0  0  0
 21 34  1  0  0  0
 21 35  1  0  0  0
 22 36  1  0  0  0
 22 37  1  0  0  0
 22 38  1  0  0  0
 23 39  1  0  0  0
 23 40  1  0  0  0
M  END
>  <ACTIVITY>
7.58503

>  <set_rl>
1

>  <Min_dist>
999.9

>  <Avg_dist>
999.9

>  <PC_uM>
0.029

>  <TG_uM>
0.0054

>  <RL_uM>
0.026

$$$$
10-2B
  Cerius2 12110214553D 1   1.00000                          
 
 35 37  0  0  0  0  0  0  0  0999 V2000
   -4.6730    0.9929   -0.8387 N   0  0  0  0  0  0
   -5.0406    0.7397    0.4140 C   0  0  0  0  0  0
   -4.2750    0.0845    1.2663 N   0  0  0  0  0  0
   -3.0676   -0.3626    0.8927 C   0  0  0  0  0  0
   -2.6359   -0.1154   -0.4336 C   0  0  0  0  0  0
   -3.4986    0.5934   -1.3057 C   0  0  0  0  0  0
   -3.1270    0.8596   -2.6053 N   0  0  0  0  0  0
   -1.3778   -0.5742   -0.8415 C   0  0  0  0  0  0
   -0.6116   -1.2500    0.0714 C   0  0  0  0  0  0
   -1.0927   -1.4603    1.3582 C   0  0  0  0  0  0
   -2.2748   -1.0267    1.7345 N   0  0  0  0  0  0
    0.7499   -1.7645   -0.3191 C   0  0  0  0  0  0
    1.7492   -0.7483   -0.0418 O   0  0  0  0  0  0
    3.0469   -0.9881   -0.3126 C   0  0  0  0  0  0
    3.3810   -2.0545   -0.7887 O   0  0  0  0  0  0
    4.0636    0.0458   -0.0304 C   0  0  0  0  0  0
    5.4095   -0.1994   -0.3099 C   0  0  0  0  0  0
    6.3536    0.7706   -0.0443 C   0  0  0  0  0  0
    5.9696    1.9842    0.4981 C   0  0  0  0  0  0
    4.6376    2.2337    0.7779 C   0  0  0  0  0  0
    3.6823    1.2748    0.5116 C   0  0  0  0  0  0
   -6.2776    1.1823    0.8421 N   0  0  0  0  0  0
   -3.7277    1.3459   -3.1915 H   0  0  0  0  0  0
   -2.2648    0.5608   -2.9340 H   0  0  0  0  0  0
   -1.0219   -0.4010   -1.8464 H   0  0  0  0  0  0
   -0.4786   -1.9948    2.0679 H   0  0  0  0  0  0
    0.9768   -2.6633    0.2543 H   0  0  0  0  0  0
    0.7576   -2.0008   -1.3832 H   0  0  0  0  0  0
    5.7107   -1.1465   -0.7326 H   0  0  0  0  0  0
    7.3950    0.5823   -0.2600 H   0  0  0  0  0  0
    6.7129    2.7401    0.7044 H   0  0  0  0  0  0
    4.3448    3.1828    1.2019 H   0  0  0  0  0  0
    2.6431    1.4708    0.7304 H   0  0  0  0  0  0
   -6.8570    1.6663    0.2330 H   0  0  0  0  0  0
   -6.5666    1.0090    1.7517 H   0  0  0  0  0  0
  1  2  1  0  0  0
  1  6  2  0  0  0
  2  3  2  0  0  0
  2 22  1  0  0  0
  3  4  1  0  0  0
  4  5  2  0  0  0
  4 11  1  0  0  0
  5  6  1  0  0  0
  5  8  1  0  0  0
  6  7  1  0  0  0
  7 23  1  0  0  0
  7 24  1  0  0  0
  8  9  2  0  0  0
  8 25  1  0  0  0
  9 10  1  0  0  0
  9 12  1  0  0  0
 10 11  2  0  0  0
 10 26  1  0  0  0
 12 13  1  0  0  0
 12 27  1  0  0  0
 12 28  1  0  0  0
 13 14  1  0  0  0
 14 15  2  0  0  0
 14 16  1  0  0  0
 16 17  1  0  0  0
 16 21  2  0  0  0
 17 18  2  0  0  0
 17 29  1  0  0  0
 18 19  1  0  0  0
 18 30  1  0  0  0
 19 20  2  0  0  0
 19 31  1  0  0  0
 20 21  1  0  0  0
 20 32  1  0  0  0
 21 33  1  0  0  0
 22 34  1  0  0  0
 22 35  1  0  0  0
M  END
>  <ACTIVITY>
5.40894

>  <set_rl>
1

>  <Min_dist>
999.9

>  <Avg_dist>
999.9

>  <PC_uM>
5.45

>  <TG_uM>
1.9

>  <RL_uM>
3.9

$$$$
28-3
  Cerius2 12110214553D 1   1.00000                          
 
 49 51  0  0  0  0  0  0  0  0999 V2000
   -5.5300    0.2828    0.8304 N   0  0  0  0  0  0
   -5.3061   -0.9921    1.1356 C   0  0  0  0  0  0
   -4.1993   -1.6258    0.7963 N   0  0  0  0  0  0
   -3.2342   -0.9934    0.1138 C   0  0  0  0  0  0
   -3.4312    0.3659   -0.2328 C   0  0  0  0  0  0
   -4.6384    0.9964    0.1576 C   0  0  0  0  0  0
   -4.8797    2.3162   -0.1548 N   0  0  0  0  0  0
   -2.4342    1.0429   -0.9451 C   0  0  0  0  0  0
   -1.2993    0.3519   -1.2790 C   0  0  0  0  0  0
   -1.1666   -0.9812   -0.9093 C   0  0  0  0  0  0
   -2.1066   -1.6107   -0.2406 N   0  0  0  0  0  0
   -0.1971    1.0359   -2.0461 C   0  0  0  0  0  0
    0.7463    1.6460   -1.1058 N   0  0  0  0  0  0
    1.8436    0.9129   -0.6411 C   0  0  0  0  0  0
    2.7373    1.4914    0.2499 C   0  0  0  0  0  0
    3.8247    0.7657    0.7109 C   0  0  0  0  0  0
    4.0200   -0.5413    0.2809 C   0  0  0  0  0  0
    3.1250   -1.1197   -0.6110 C   0  0  0  0  0  0
    2.0349   -0.3946   -1.0667 C   0  0  0  0  0  0
    3.3153   -2.3986   -1.0323 O   0  0  0  0  0  0
    2.2450   -2.7015   -1.9294 C   0  0  0  0  0  0
    5.0883   -1.2547    0.7329 O   0  0  0  0  0  0
    4.6630   -1.9283    1.9193 C   0  0  0  0  0  0
    4.7004    1.3327    1.5833 O   0  0  0  0  0  0
    4.2358    2.6614    1.8298 C   0  0  0  0  0  0
    0.5408    3.0238   -0.6523 C   0  0  0  0  0  0
   -6.2743   -1.6831    1.8388 N   0  0  0  0  0  0
   -5.7107    2.7353    0.1188 H   0  0  0  0  0  0
   -4.2186    2.8265   -0.6482 H   0  0  0  0  0  0
   -2.5563    2.0793   -1.2236 H   0  0  0  0  0  0
   -0.2670   -1.5143   -1.1792 H   0  0  0  0  0  0
    0.3257    0.3038   -2.6616 H   0  0  0  0  0  0
   -0.6245    1.8088   -2.6848 H   0  0  0  0  0  0
    2.5856    2.5073    0.5838 H   0  0  0  0  0  0
    1.3390   -0.8441   -1.7595 H   0  0  0  0  0  0
    2.3555   -3.7223   -2.2953 H   0  0  0  0  0  0
    1.2938   -2.6041   -1.4062 H   0  0  0  0  0  0
    2.2693   -2.0092   -2.7710 H   0  0  0  0  0  0
    5.4893   -2.5157    2.3197 H   0  0  0  0  0  0
    4.3465   -1.1942    2.6603 H   0  0  0  0  0  0
    3.8288   -2.5888    1.6828 H   0  0  0  0  0  0
    4.9098    3.1583    2.5276 H   0  0  0  0  0  0
    4.2094    3.2168    0.8923 H   0  0  0  0  0  0
    3.2340    2.6225    2.2575 H   0  0  0  0  0  0
   -0.3576    3.4293   -1.1177 H   0  0  0  0  0  0
    0.4257    3.0362    0.4316 H   0  0  0  0  0  0
    1.4012    3.6310   -0.9333 H   0  0  0  0  0  0
   -7.0956   -1.2375    2.0990 H   0  0  0  0  0  0
   -6.1325   -2.6139    2.0724 H   0  0  0  0  0  0
  1  2  1  0  0  0
  1  6  2  0  0  0
  2  3  2  0  0  0
  2 27  1  0  0  0
  3  4  1  0  0  0
  4  5  2  0  0  0
  4 11  1  0  0  0
  5  6  1  0  0  0
  5  8  1  0  0  0
  6  7  1  0  0  0
  7 28  1  0  0  0
  7 29  1  0  0  0
  8  9  2  0  0  0
  8 30  1  0  0  0
  9 10  1  0  0  0
  9 12  1  0  0  0
 10 11  2  0  0  0
 10 31  1  0  0  0
 12 13  1  0  0  0
 12 32  1  0  0  0
 12 33  1  0  0  0
 13 14  1  0  0  0
 13 26  1  0  0  0
 14 15  1  0  0  0
 14 19  2  0  0  0
 15 16  2  0  0  0
 15 34  1  0  0  0
 16 17  1  0  0  0
 16 24  1  0  0  0
 17 18  2  0  0  0
 17 22  1  0  0  0
 18 19  1  0  0  0
 18 20  1  0  0  0
 19 35  1  0  0  0
 20 21  1  0  0  0
 21 36  1  0  0  0
 21 37  1  0  0  0
 21 38  1  0  0  0
 22 23  1  0  0  0
 23 39  1  0  0  0
 23 40  1  0  0  0
 23 41  1  0  0  0
 24 25  1  0  0  0
 25 42  1  0  0  0
 25 43  1  0  0  0
 25 44  1  0  0  0
 26 45  1  0  0  0
 26 46  1  0  0  0
 26 47  1  0  0  0
 27 48  1  0  0  0
 27 49  1  0  0  0
M  END
>  <ACTIVITY>
6.55284

>  <set_rl>
1

>  <Min_dist>
999.9

>  <Avg_dist>
999.9

>  <PC_uM>
0.24

>  <TG_uM>
0.009

>  <RL_uM>
0.28

$$$$
28-4
  Cerius2 12110214553D 1   1.00000                          
 
 52 54  0  0  0  0  0  0  0  0999 V2000
   -5.5886    0.1934    0.8719 N   0  0  0  0  0  0
   -5.4357   -1.1147    1.0566 C   0  0  0  0  0  0
   -4.3644   -1.7738    0.6569 N   0  0  0  0  0  0
   -3.3645   -1.1344    0.0335 C   0  0  0  0  0  0
   -3.4858    0.2600   -0.1845 C   0  0  0  0  0  0
   -4.6577    0.9166    0.2661 C   0  0  0  0  0  0
   -4.8255    2.2710    0.0786 N   0  0  0  0  0  0
   -2.4515    0.9447   -0.8334 C   0  0  0  0  0  0
   -1.3553    0.2266   -1.2332 C   0  0  0  0  0  0
   -1.2968   -1.1404   -0.9895 C   0  0  0  0  0  0
   -2.2716   -1.7769   -0.3797 N   0  0  0  0  0  0
   -0.2154    0.9176   -1.9362 C   0  0  0  0  0  0
    0.6981    1.4868   -0.9424 N   0  0  0  0  0  0
    1.8090    0.7533   -0.5122 C   0  0  0  0  0  0
    2.6226    1.2531    0.4956 C   0  0  0  0  0  0
    3.7235    0.5268    0.9223 C   0  0  0  0  0  0
    4.0127   -0.7019    0.3410 C   0  0  0  0  0  0
    3.1979   -1.2016   -0.6677 C   0  0  0  0  0  0
    2.0941   -0.4768   -1.0894 C   0  0  0  0  0  0
    3.4801   -2.4039   -1.2371 O   0  0  0  0  0  0
    2.4755   -2.6385   -2.2259 C   0  0  0  0  0  0
    5.0944   -1.4158    0.7595 O   0  0  0  0  0  0
    4.6469   -2.2581    1.8235 C   0  0  0  0  0  0
    4.5206    1.0168    1.9092 O   0  0  0  0  0  0
    3.9711    2.2779    2.2960 C   0  0  0  0  0  0
    0.4483    2.8242   -0.3989 C   0  0  0  0  0  0
    1.2689    3.8532   -1.1791 C   0  0  0  0  0  0
   -6.4420   -1.8141    1.6951 N   0  0  0  0  0  0
   -5.6329    2.7077    0.3921 H   0  0  0  0  0  0
   -4.1362    2.7880   -0.3671 H   0  0  0  0  0  0
   -2.5159    2.0076   -1.0139 H   0  0  0  0  0  0
   -0.4271   -1.6946   -1.3102 H   0  0  0  0  0  0
    0.3217    0.1968   -2.5527 H   0  0  0  0  0  0
   -0.6078    1.7148   -2.5677 H   0  0  0  0  0  0
    2.3979    2.2081    0.9470 H   0  0  0  0  0  0
    1.4605   -0.8651   -1.8731 H   0  0  0  0  0  0
    2.6610   -3.5963   -2.7121 H   0  0  0  0  0  0
    1.4949   -2.6563   -1.7505 H   0  0  0  0  0  0
    2.5045   -1.8420   -2.9694 H   0  0  0  0  0  0
    5.4829   -2.8521    2.1928 H   0  0  0  0  0  0
    4.2527   -1.6432    2.6325 H   0  0  0  0  0  0
    3.8637   -2.9217    1.4568 H   0  0  0  0  0  0
    4.5799    2.7115    3.0894 H   0  0  0  0  0  0
    3.9619    2.9490    1.4371 H   0  0  0  0  0  0
    2.9524    2.1352    2.6565 H   0  0  0  0  0  0
   -0.6119    3.0609   -0.4893 H   0  0  0  0  0  0
    0.7380    2.8494    0.6516 H   0  0  0  0  0  0
    1.1522    4.8348   -0.7198 H   0  0  0  0  0  0
    2.3205    3.5671   -1.1628 H   0  0  0  0  0  0
    0.9185    3.8907   -2.2106 H   0  0  0  0  0  0
   -7.2383   -1.3503    1.9978 H   0  0  0  0  0  0
   -6.3520   -2.7689    1.8406 H   0  0  0  0  0  0
  1  2  1  0  0  0
  1  6  2  0  0  0
  2  3  2  0  0  0
  2 28  1  0  0  0
  3  4  1  0  0  0
  4  5  2  0  0  0
  4 11  1  0  0  0
  5  6  1  0  0  0
  5  8  1  0  0  0
  6  7  1  0  0  0
  7 29  1  0  0  0
  7 30  1  0  0  0
  8  9  2  0  0  0
  8 31  1  0  0  0
  9 10  1  0  0  0
  9 12  1  0  0  0
 10 11  2  0  0  0
 10 32  1  0  0  0
 12 13  1  0  0  0
 12 33  1  0  0  0
 12 34  1  0  0  0
 13 14  1  0  0  0
 13 26  1  0  0  0
 14 15  1  0  0  0
 14 19  2  0  0  0
 15 16  2  0  0  0
 15 35  1  0  0  0
 16 17  1  0  0  0
 16 24  1  0  0  0
 17 18  2  0  0  0
 17 22  1  0  0  0
 18 19  1  0  0  0
 18 20  1  0  0  0
 19 36  1  0  0  0
 20 21  1  0  0  0
 21 37  1  0  0  0
 21 38  1  0  0  0
 21 39  1  0  0  0
 22 23  1  0  0  0
 23 40  1  0  0  0
 23 41  1  0  0  0
 23 42  1  0  0  0
 24 25  1  0  0  0
 25 43  1  0  0  0
 25 44  1  0  0  0
 25 45  1  0  0  0
 26 27  1  0  0  0
 26 46  1  0  0  0
 26 47  1  0  0  0
 27 48  1  0  0  0
 27 49  1  0  0  0
 27 50  1  0  0  0
 28 51  1  0  0  0
 28 52  1  0  0  0
M  END
>  <ACTIVITY>
6.92082

>  <set_rl>
1

>  <Min_dist>
999.9

>  <Avg_dist>
999.9

>  <PC_uM>
0.19

>  <TG_uM>
0.049

>  <RL_uM>
0.12

$$$$
23-4B
  Cerius2 12110214553D 1   1.00000                          
 
 37 39  0  0  0  0  0  0  0  0999 V2000
   -5.6796    1.0873    0.3545 N   0  0  0  0  0  0
   -6.1667    0.0084   -0.2514 C   0  0  0  0  0  0
   -5.4094   -1.0051   -0.6272 N   0  0  0  0  0  0
   -4.0870   -0.9853   -0.4076 C   0  0  0  0  0  0
   -3.5253    0.1452    0.2349 C   0  0  0  0  0  0
   -4.3856    1.2041    0.6171 C   0  0  0  0  0  0
   -3.8902    2.3260    1.2444 N   0  0  0  0  0  0
   -2.1464    0.1835    0.4731 C   0  0  0  0  0  0
   -1.3932   -0.8873    0.0690 C   0  0  0  0  0  0
   -2.0048   -1.9671   -0.5566 C   0  0  0  0  0  0
   -3.3000   -1.9964   -0.7771 N   0  0  0  0  0  0
    0.0957   -0.8940    0.3022 C   0  0  0  0  0  0
    0.7426    0.0158   -0.6466 N   0  0  0  0  0  0
    2.1293    0.1855   -0.6171 C   0  0  0  0  0  0
    2.7440    1.0479   -1.5163 C   0  0  0  0  0  0
    4.1146    1.2141   -1.4855 C   0  0  0  0  0  0
    4.8764    0.5223   -0.5604 C   0  0  0  0  0  0
    4.2670   -0.3381    0.3372 C   0  0  0  0  0  0
    2.8947   -0.5033    0.3146 C   0  0  0  0  0  0
    5.2260   -1.2043    1.4964 Cl  0  0  0  0  0  0
    6.5993    0.7330   -0.5255 Cl  0  0  0  0  0  0
   -1.5092    1.3676    1.1533 C   0  0  0  0  0  0
   -7.5249   -0.0546   -0.4978 N   0  0  0  0  0  0
   -3.0549    2.7192    0.9466 H   0  0  0  0  0  0
   -4.3765    2.7228    1.9840 H   0  0  0  0  0  0
   -1.3993   -2.8045   -0.8704 H   0  0  0  0  0  0
    0.3055   -0.5664    1.3204 H   0  0  0  0  0  0
    0.4814   -1.9033    0.1584 H   0  0  0  0  0  0
    0.2083    0.5003   -1.2952 H   0  0  0  0  0  0
    2.1503    1.5877   -2.2391 H   0  0  0  0  0  0
    4.5924    1.8846   -2.1845 H   0  0  0  0  0  0
    2.4193   -1.1743    1.0147 H   0  0  0  0  0  0
   -1.3268    2.1531    0.4200 H   0  0  0  0  0  0
   -2.1761    1.7430    1.9295 H   0  0  0  0  0  0
   -0.5638    1.0633    1.6025 H   0  0  0  0  0  0
   -8.1009    0.6785   -0.2300 H   0  0  0  0  0  0
   -7.9024   -0.8319   -0.9385 H   0  0  0  0  0  0
  1  2  1  0  0  0
  1  6  2  0  0  0
  2  3  2  0  0  0
  2 23  1  0  0  0
  3  4  1  0  0  0
  4  5  2  0  0  0
  4 11  1  0  0  0
  5  6  1  0  0  0
  5  8  1  0  0  0
  6  7  1  0  0  0
  7 24  1  0  0  0
  7 25  1  0  0  0
  8  9  2  0  0  0
  8 22  1  0  0  0
  9 10  1  0  0  0
  9 12  1  0  0  0
 10 11  2  0  0  0
 10 26  1  0  0  0
 12 13  1  0  0  0
 12 27  1  0  0  0
 12 28  1  0  0  0
 13 14  1  0  0  0
 13 29  1  0  0  0
 14 15  1  0  0  0
 14 19  2  0  0  0
 15 16  2  0  0  0
 15 30  1  0  0  0
 16 17  1  0  0  0
 16 31  1  0  0  0
 17 18  2  0  0  0
 17 21  1  0  0  0
 18 19  1  0  0  0
 18 20  1  0  0  0
 19 32  1  0  0  0
 22 33  1  0  0  0
 22 34  1  0  0  0
 22 35  1  0  0  0
 23 36  1  0  0  0
 23 37  1  0  0  0
M  END
>  <ACTIVITY>
7.27572

>  <set_rl>
1

>  <Min_dist>
999.9

>  <Avg_dist>
999.9

>  <PC_uM>
0.32

>  <TG_uM>
0.028

>  <RL_uM>
0.053

$$$$
24-2A
  Cerius2 12110214553D 1   1.00000                          
 
 45 47  0  0  0  0  0  0  0  0999 V2000
   -5.2038   -0.6310   -0.9102 N   0  0  0  0  0  0
   -5.6897   -0.1152    0.2151 C   0  0  0  0  0  0
   -4.9408    0.5322    1.0879 N   0  0  0  0  0  0
   -3.6287    0.6986    0.8686 C   0  0  0  0  0  0
   -3.0687    0.1646   -0.3179 C   0  0  0  0  0  0
   -3.9197   -0.5208   -1.2198 C   0  0  0  0  0  0
   -3.4253   -1.0592   -2.3875 N   0  0  0  0  0  0
   -1.7005    0.3289   -0.5642 C   0  0  0  0  0  0
   -0.9558    1.0069    0.3647 C   0  0  0  0  0  0
   -1.5652    1.5068    1.5093 C   0  0  0  0  0  0
   -2.8503    1.3490    1.7342 N   0  0  0  0  0  0
    0.5214    1.2098    0.1459 C   0  0  0  0  0  0
    1.2285   -0.0503    0.3874 N   0  0  0  0  0  0
    2.6179   -0.1139    0.2327 C   0  0  0  0  0  0
    3.3269    1.0155   -0.1492 C   0  0  0  0  0  0
    4.7033    0.9495   -0.3012 C   0  0  0  0  0  0
    5.3711   -0.2444   -0.0720 C   0  0  0  0  0  0
    4.6664   -1.3716    0.3084 C   0  0  0  0  0  0
    3.2922   -1.3099    0.4677 C   0  0  0  0  0  0
    2.5996   -2.4198    0.8425 O   0  0  0  0  0  0
    3.5550   -3.4719    0.9922 C   0  0  0  0  0  0
    5.3993    2.0561   -0.6756 O   0  0  0  0  0  0
    6.7748    1.6750   -0.7451 C   0  0  0  0  0  0
   -1.0654   -0.2242   -1.8140 C   0  0  0  0  0  0
   -7.0374   -0.2630    0.4819 N   0  0  0  0  0  0
   -2.5694   -1.5157   -2.3868 H   0  0  0  0  0  0
   -3.9332   -0.9819   -3.2103 H   0  0  0  0  0  0
   -0.9665    2.0391    2.2336 H   0  0  0  0  0  0
    0.6957    1.5333   -0.8804 H   0  0  0  0  0  0
    0.8895    1.9707    0.8341 H   0  0  0  0  0  0
    0.7336   -0.8407    0.6546 H   0  0  0  0  0  0
    2.8071    1.9451   -0.3284 H   0  0  0  0  0  0
    6.4433   -0.2938   -0.1912 H   0  0  0  0  0  0
    5.1888   -2.3000    0.4858 H   0  0  0  0  0  0
    3.0441   -4.3864    1.2934 H   0  0  0  0  0  0
    4.0657   -3.6366    0.0435 H   0  0  0  0  0  0
    4.2838   -3.1951    1.7540 H   0  0  0  0  0  0
    7.3753    2.5345   -1.0433 H   0  0  0  0  0  0
    7.1042    1.3232    0.2325 H   0  0  0  0  0  0
    6.8940    0.8767   -1.4777 H   0  0  0  0  0  0
   -0.8343   -1.2793   -1.6677 H   0  0  0  0  0  0
   -1.7555   -0.1159   -2.6507 H   0  0  0  0  0  0
   -0.1470    0.3227   -2.0274 H   0  0  0  0  0  0
   -7.6071   -0.7349   -0.1455 H   0  0  0  0  0  0
   -7.4138    0.1051    1.2966 H   0  0  0  0  0  0
  1  2  1  0  0  0
  1  6  2  0  0  0
  2  3  2  0  0  0
  2 25  1  0  0  0
  3  4  1  0  0  0
  4  5  2  0  0  0
  4 11  1  0  0  0
  5  6  1  0  0  0
  5  8  1  0  0  0
  6  7  1  0  0  0
  7 26  1  0  0  0
  7 27  1  0  0  0
  8  9  2  0  0  0
  8 24  1  0  0  0
  9 10  1  0  0  0
  9 12  1  0  0  0
 10 11  2  0  0  0
 10 28  1  0  0  0
 12 13  1  0  0  0
 12 29  1  0  0  0
 12 30  1  0  0  0
 13 14  1  0  0  0
 13 31  1  0  0  0
 14 15  1  0  0  0
 14 19  2  0  0  0
 15 16  2  0  0  0
 15 32  1  0  0  0
 16 17  1  0  0  0
 16 22  1  0  0  0
 17 18  2  0  0  0
 17 33  1  0  0  0
 18 19  1  0  0  0
 18 34  1  0  0  0
 19 20  1  0  0  0
 20 21  1  0  0  0
 21 35  1  0  0  0
 21 36  1  0  0  0
 21 37  1  0  0  0
 22 23  1  0  0  0
 23 38  1  0  0  0
 23 39  1  0  0  0
 23 40  1  0  0  0
 24 41  1  0  0  0
 24 42  1  0  0  0
 24 43  1  0  0  0
 25 44  1  0  0  0
 25 45  1  0  0  0
M  END
>  <ACTIVITY>
6.89279

>  <set_rl>
1

>  <Min_dist>
999.9

>  <Avg_dist>
999.9

>  <PC_uM>
0.046

>  <TG_uM>
0.016

>  <RL_uM>
0.128

$$$$
24-2B
  Cerius2 12110214553D 1   1.00000                          
 
 45 47  0  0  0  0  0  0  0  0999 V2000
   -5.4434   -1.0318   -0.6149 N   0  0  0  0  0  0
   -5.9436   -0.2402    0.3294 C   0  0  0  0  0  0
   -5.2124    0.6399    0.9873 N   0  0  0  0  0  0
   -3.9049    0.7728    0.7227 C   0  0  0  0  0  0
   -3.3301   -0.0511   -0.2759 C   0  0  0  0  0  0
   -4.1623   -0.9782   -0.9507 C   0  0  0  0  0  0
   -3.6531   -1.8030   -1.9296 N   0  0  0  0  0  0
   -1.9664    0.0738   -0.5662 C   0  0  0  0  0  0
   -1.2403    0.9986    0.1372 C   0  0  0  0  0  0
   -1.8636    1.7771    1.1052 C   0  0  0  0  0  0
   -3.1444    1.6545    1.3726 N   0  0  0  0  0  0
    0.2313    1.1709   -0.1379 C   0  0  0  0  0  0
    0.9705    0.0431    0.4347 N   0  0  0  0  0  0
    2.3589   -0.0230    0.2988 C   0  0  0  0  0  0
    3.0599   -1.0918    0.8413 C   0  0  0  0  0  0
    4.4380   -1.1569    0.7055 C   0  0  0  0  0  0
    5.1166   -0.1548    0.0280 C   0  0  0  0  0  0
    4.4172    0.9134   -0.5138 C   0  0  0  0  0  0
    3.0384    0.9771   -0.3839 C   0  0  0  0  0  0
    5.0831    1.8951   -1.1767 O   0  0  0  0  0  0
    6.4689    1.5474   -1.1463 C   0  0  0  0  0  0
    5.1243   -2.2026    1.2368 O   0  0  0  0  0  0
    6.5043   -1.9870    0.9349 C   0  0  0  0  0  0
   -1.3160   -0.7839   -1.6209 C   0  0  0  0  0  0
   -7.2873   -0.3433    0.6348 N   0  0  0  0  0  0
   -2.7857   -2.2203   -1.8094 H   0  0  0  0  0  0
   -4.1619   -1.9664   -2.7391 H   0  0  0  0  0  0
   -1.2795    2.5020    1.6527 H   0  0  0  0  0  0
    0.3981    1.2056   -1.2145 H   0  0  0  0  0  0
    0.5790    2.1001    0.3138 H   0  0  0  0  0  0
    0.4956   -0.6577    0.9082 H   0  0  0  0  0  0
    2.5317   -1.8720    1.3693 H   0  0  0  0  0  0
    6.1902   -0.2061   -0.0774 H   0  0  0  0  0  0
    2.4940    1.8089   -0.8058 H   0  0  0  0  0  0
    7.0464    2.3100   -1.6688 H   0  0  0  0  0  0
    6.8046    1.4830   -0.1113 H   0  0  0  0  0  0
    6.6126    0.5841   -1.6355 H   0  0  0  0  0  0
    7.0977   -2.8050    1.3434 H   0  0  0  0  0  0
    6.6376   -1.9460   -0.1461 H   0  0  0  0  0  0
    6.8302   -1.0456    1.3772 H   0  0  0  0  0  0
   -1.0577   -1.7525   -1.1931 H   0  0  0  0  0  0
   -2.0079   -0.9261   -2.4511 H   0  0  0  0  0  0
   -0.4119   -0.2932   -1.9815 H   0  0  0  0  0  0
   -7.8440   -0.9829    0.1639 H   0  0  0  0  0  0
   -7.6738    0.2241    1.3201 H   0  0  0  0  0  0
  1  2  1  0  0  0
  1  6  2  0  0  0
  2  3  2  0  0  0
  2 25  1  0  0  0
  3  4  1  0  0  0
  4  5  2  0  0  0
  4 11  1  0  0  0
  5  6  1  0  0  0
  5  8  1  0  0  0
  6  7  1  0  0  0
  7 26  1  0  0  0
  7 27  1  0  0  0
  8  9  2  0  0  0
  8 24  1  0  0  0
  9 10  1  0  0  0
  9 12  1  0  0  0
 10 11  2  0  0  0
 10 28  1  0  0  0
 12 13  1  0  0  0
 12 29  1  0  0  0
 12 30  1  0  0  0
 13 14  1  0  0  0
 13 31  1  0  0  0
 14 15  1  0  0  0
 14 19  2  0  0  0
 15 16  2  0  0  0
 15 32  1  0  0  0
 16 17  1  0  0  0
 16 22  1  0  0  0
 17 18  2  0  0  0
 17 33  1  0  0  0
 18 19  1  0  0  0
 18 20  1  0  0  0
 19 34  1  0  0  0
 20 21  1  0  0  0
 21 35  1  0  0  0
 21 36  1  0  0  0
 21 37  1  0  0  0
 22 23  1  0  0  0
 23 38  1  0  0  0
 23 39  1  0  0  0
 23 40  1  0  0  0
 24 41  1  0  0  0
 24 42  1  0  0  0
 24 43  1  0  0  0
 25 44  1  0  0  0
 25 45  1  0  0  0
M  END
>  <ACTIVITY>
7.37161

>  <set_rl>
1

>  <Min_dist>
999.9

>  <Avg_dist>
999.9

>  <PC_uM>
0.0229

>  <TG_uM>
0.0048

>  <RL_uM>
0.0425

$$$$
24-2C
  Cerius2 12110214553D 1   1.00000                          
 
 45 47  0  0  0  0  0  0  0  0999 V2000
   -5.2536   -0.9072   -0.7386 N   0  0  0  0  0  0
   -5.7564   -0.2045    0.2723 C   0  0  0  0  0  0
   -5.0332    0.6330    0.9917 N   0  0  0  0  0  0
   -3.7317    0.8119    0.7247 C   0  0  0  0  0  0
   -3.1544    0.0829   -0.3438 C   0  0  0  0  0  0
   -3.9779   -0.8021   -1.0828 C   0  0  0  0  0  0
   -3.4660   -1.5348   -2.1311 N   0  0  0  0  0  0
   -1.7969    0.2569   -0.6377 C   0  0  0  0  0  0
   -1.0791    1.1352    0.1308 C   0  0  0  0  0  0
   -1.7043    1.8205    1.1656 C   0  0  0  0  0  0
   -2.9793    1.6522    1.4360 N   0  0  0  0  0  0
    0.3857    1.3573   -0.1452 C   0  0  0  0  0  0
    1.1522    0.2010    0.3257 N   0  0  0  0  0  0
    2.5446    0.1693    0.1627 C   0  0  0  0  0  0
    3.1968    1.2321   -0.4441 C   0  0  0  0  0  0
    4.5693    1.2005   -0.6052 C   0  0  0  0  0  0
    5.2969    0.1067   -0.1607 C   0  0  0  0  0  0
    4.6491   -0.9583    0.4471 C   0  0  0  0  0  0
    3.2747   -0.9272    0.6152 C   0  0  0  0  0  0
    2.6376   -1.9704    1.2114 O   0  0  0  0  0  0
    3.6418   -2.9299    1.5477 C   0  0  0  0  0  0
    6.6470    0.0783   -0.3215 O   0  0  0  0  0  0
    7.0117    1.2985   -0.9696 C   0  0  0  0  0  0
   -1.1441   -0.4998   -1.7657 C   0  0  0  0  0  0
   -7.0941   -0.3576    0.5828 N   0  0  0  0  0  0
   -2.5898   -1.9438   -2.0546 H   0  0  0  0  0  0
   -3.9817   -1.6416   -2.9456 H   0  0  0  0  0  0
   -1.1268    2.5096    1.7639 H   0  0  0  0  0  0
    0.5386    1.4825   -1.2171 H   0  0  0  0  0  0
    0.7220    2.2531    0.3768 H   0  0  0  0  0  0
    0.6965   -0.5427    0.7502 H   0  0  0  0  0  0
    2.6321    2.0847   -0.7913 H   0  0  0  0  0  0
    5.0758    2.0288   -1.0783 H   0  0  0  0  0  0
    5.2165   -1.8098    0.7926 H   0  0  0  0  0  0
    3.1763   -3.7890    2.0308 H   0  0  0  0  0  0
    4.1518   -3.2551    0.6409 H   0  0  0  0  0  0
    4.3634   -2.4774    2.2279 H   0  0  0  0  0  0
    8.0909    1.3214   -1.1205 H   0  0  0  0  0  0
    6.5084    1.3619   -1.9344 H   0  0  0  0  0  0
    6.7137    2.1431   -0.3482 H   0  0  0  0  0  0
   -0.8632   -1.4949   -1.4210 H   0  0  0  0  0  0
   -1.8435   -0.5872   -2.5972 H   0  0  0  0  0  0
   -0.2535    0.0356   -2.0948 H   0  0  0  0  0  0
   -7.6449   -0.9674    0.0674 H   0  0  0  0  0  0
   -7.4824    0.1448    1.3161 H   0  0  0  0  0  0
  1  2  1  0  0  0
  1  6  2  0  0  0
  2  3  2  0  0  0
  2 25  1  0  0  0
  3  4  1  0  0  0
  4  5  2  0  0  0
  4 11  1  0  0  0
  5  6  1  0  0  0
  5  8  1  0  0  0
  6  7  1  0  0  0
  7 26  1  0  0  0
  7 27  1  0  0  0
  8  9  2  0  0  0
  8 24  1  0  0  0
  9 10  1  0  0  0
  9 12  1  0  0  0
 10 11  2  0  0  0
 10 28  1  0  0  0
 12 13  1  0  0  0
 12 29  1  0  0  0
 12 30  1  0  0  0
 13 14  1  0  0  0
 13 31  1  0  0  0
 14 15  1  0  0  0
 14 19  2  0  0  0
 15 16  2  0  0  0
 15 32  1  0  0  0
 16 17  1  0  0  0
 16 33  1  0  0  0
 17 18  2  0  0  0
 17 22  1  0  0  0
 18 19  1  0  0  0
 18 34  1  0  0  0
 19 20  1  0  0  0
 20 21  1  0  0  0
 21 35  1  0  0  0
 21 36  1  0  0  0
 21 37  1  0  0  0
 22 23  1  0  0  0
 23 38  1  0  0  0
 23 39  1  0  0  0
 23 40  1  0  0  0
 24 41  1  0  0  0
 24 42  1  0  0  0
 24 43  1  0  0  0
 25 44  1  0  0  0
 25 45  1  0  0  0
M  END
>  <ACTIVITY>
6.66959

>  <set_rl>
1

>  <Min_dist>
999.9

>  <Avg_dist>
999.9

>  <PC_uM>
0.316

>  <TG_uM>
0.0565

>  <RL_uM>
0.214

$$$$
24-2D
  Cerius2 12110214553D 1   1.00000                          
 
 45 47  0  0  0  0  0  0  0  0999 V2000
   -5.3898   -1.0571   -0.6149 N   0  0  0  0  0  0
   -5.8991   -0.2960    0.3494 C   0  0  0  0  0  0
   -5.1873    0.6027    1.0034 N   0  0  0  0  0  0
   -3.8914    0.7873    0.7139 C   0  0  0  0  0  0
   -3.3076   -0.0026   -0.3067 C   0  0  0  0  0  0
   -4.1189   -0.9519   -0.9762 C   0  0  0  0  0  0
   -3.6001   -1.7453   -1.9757 N   0  0  0  0  0  0
   -1.9558    0.1764   -0.6232 C   0  0  0  0  0  0
   -1.2498    1.1190    0.0770 C   0  0  0  0  0  0
   -1.8811    1.8621    1.0674 C   0  0  0  0  0  0
   -3.1506    1.6888    1.3593 N   0  0  0  0  0  0
    0.2083    1.3493   -0.2259 C   0  0  0  0  0  0
    1.0005    0.2430    0.3171 N   0  0  0  0  0  0
    2.3896    0.2289    0.1496 C   0  0  0  0  0  0
    3.0173    1.2637   -0.5313 C   0  0  0  0  0  0
    4.3893    1.2510   -0.6980 C   0  0  0  0  0  0
    5.1411    0.2060   -0.1862 C   0  0  0  0  0  0
    4.5152   -0.8323    0.4965 C   0  0  0  0  0  0
    3.1409   -0.8166    0.6690 C   0  0  0  0  0  0
    5.2525   -1.8589    0.9984 O   0  0  0  0  0  0
    4.3367   -2.7528    1.6343 C   0  0  0  0  0  0
    6.4919    0.1948   -0.3515 O   0  0  0  0  0  0
    6.8285    1.3764   -1.0813 C   0  0  0  0  0  0
   -1.2964   -0.6438   -1.7019 C   0  0  0  0  0  0
   -7.2314   -0.4527    0.6809 N   0  0  0  0  0  0
   -2.7155   -2.1313   -1.8787 H   0  0  0  0  0  0
   -4.1194   -1.9180   -2.7766 H   0  0  0  0  0  0
   -1.3128    2.6017    1.6120 H   0  0  0  0  0  0
    0.3512    1.4030   -1.3051 H   0  0  0  0  0  0
    0.5308    2.2852    0.2304 H   0  0  0  0  0  0
    0.5620   -0.4798    0.7927 H   0  0  0  0  0  0
    2.4328    2.0790   -0.9313 H   0  0  0  0  0  0
    4.8757    2.0564   -1.2281 H   0  0  0  0  0  0
    2.6532   -1.6216    1.1987 H   0  0  0  0  0  0
    4.8847   -3.5964    2.0541 H   0  0  0  0  0  0
    3.8111   -2.2278    2.4319 H   0  0  0  0  0  0
    3.6158   -3.1161    0.9019 H   0  0  0  0  0  0
    7.9065    1.4115   -1.2388 H   0  0  0  0  0  0
    6.3205    1.3650   -2.0456 H   0  0  0  0  0  0
    6.5152    2.2542   -0.5160 H   0  0  0  0  0  0
   -0.9937   -1.6073   -1.2918 H   0  0  0  0  0  0
   -1.9997   -0.8016   -2.5195 H   0  0  0  0  0  0
   -0.4187   -0.1156   -2.0745 H   0  0  0  0  0  0
   -7.7738   -1.1069    0.2133 H   0  0  0  0  0  0
   -7.6242    0.0916    1.3811 H   0  0  0  0  0  0
  1  2  1  0  0  0
  1  6  2  0  0  0
  2  3  2  0  0  0
  2 25  1  0  0  0
  3  4  1  0  0  0
  4  5  2  0  0  0
  4 11  1  0  0  0
  5  6  1  0  0  0
  5  8  1  0  0  0
  6  7  1  0  0  0
  7 26  1  0  0  0
  7 27  1  0  0  0
  8  9  2  0  0  0
  8 24  1  0  0  0
  9 10  1  0  0  0
  9 12  1  0  0  0
 10 11  2  0  0  0
 10 28  1  0  0  0
 12 13  1  0  0  0
 12 29  1  0  0  0
 12 30  1  0  0  0
 13 14  1  0  0  0
 13 31  1  0  0  0
 14 15  1  0  0  0
 14 19  2  0  0  0
 15 16  2  0  0  0
 15 32  1  0  0  0
 16 17  1  0  0  0
 16 33  1  0  0  0
 17 18  2  0  0  0
 17 22  1  0  0  0
 18 19  1  0  0  0
 18 20  1  0  0  0
 19 34  1  0  0  0
 20 21  1  0  0  0
 21 35  1  0  0  0
 21 36  1  0  0  0
 21 37  1  0  0  0
 22 23  1  0  0  0
 23 38  1  0  0  0
 23 39  1  0  0  0
 23 40  1  0  0  0
 24 41  1  0  0  0
 24 42  1  0  0  0
 24 43  1  0  0  0
 25 44  1  0  0  0
 25 45  1  0  0  0
M  END
>  <ACTIVITY>
8.11919

>  <set_rl>
1

>  <Min_dist>
999.9

>  <Avg_dist>
999.9

>  <PC_uM>
0.044

>  <TG_uM>
0.0088

>  <RL_uM>
0.0076

$$$$
24-2E
  Cerius2 12110214553D 1   1.00000                          
 
 51 53  0  0  0  0  0  0  0  0999 V2000
   -5.6027   -0.1989   -1.0549 N   0  0  0  0  0  0
   -6.0893    0.0869    0.1494 C   0  0  0  0  0  0
   -5.3348    0.5185    1.1424 N   0  0  0  0  0  0
   -4.0161    0.6895    0.9715 C   0  0  0  0  0  0
   -3.4552    0.3966   -0.2959 C   0  0  0  0  0  0
   -4.3124   -0.0633   -1.3260 C   0  0  0  0  0  0
   -3.8175   -0.3627   -2.5763 N   0  0  0  0  0  0
   -2.0802    0.5695   -0.4933 C   0  0  0  0  0  0
   -1.3298    1.0197    0.5610 C   0  0  0  0  0  0
   -1.9404    1.2893    1.7800 C   0  0  0  0  0  0
   -3.2320    1.1247    1.9583 N   0  0  0  0  0  0
    0.1548    1.2216    0.3993 C   0  0  0  0  0  0
    0.8255   -0.0807    0.3799 N   0  0  0  0  0  0
    2.2147   -0.1502    0.2251 C   0  0  0  0  0  0
    2.9577    1.0132    0.0901 C   0  0  0  0  0  0
    4.3338    0.9412   -0.0626 C   0  0  0  0  0  0
    4.9671   -0.2927   -0.0807 C   0  0  0  0  0  0
    4.2283   -1.4538    0.0533 C   0  0  0  0  0  0
    2.8544   -1.3875    0.2123 C   0  0  0  0  0  0
    2.1282   -2.5309    0.3445 O   0  0  0  0  0  0
    3.0537   -3.6178    0.2800 C   0  0  0  0  0  0
    2.2980   -4.9404    0.4231 C   0  0  0  0  0  0
    5.0632    2.0812   -0.1951 O   0  0  0  0  0  0
    6.4290    1.6840   -0.3323 C   0  0  0  0  0  0
    7.3085    2.9265   -0.4863 C   0  0  0  0  0  0
   -1.4439    0.2689   -1.8259 C   0  0  0  0  0  0
   -7.4437   -0.0748    0.3703 N   0  0  0  0  0  0
   -2.9739   -0.8334   -2.6641 H   0  0  0  0  0  0
   -4.3126   -0.1028   -3.3689 H   0  0  0  0  0  0
   -1.3372    1.6433    2.6029 H   0  0  0  0  0  0
    0.3505    1.7450   -0.5366 H   0  0  0  0  0  0
    0.5339    1.8131    1.2326 H   0  0  0  0  0  0
    0.3067   -0.8949    0.4742 H   0  0  0  0  0  0
    2.4648    1.9741    0.1034 H   0  0  0  0  0  0
    6.0391   -0.3466   -0.2001 H   0  0  0  0  0  0
    4.7240   -2.4132    0.0385 H   0  0  0  0  0  0
    3.5720   -3.5973   -0.6786 H   0  0  0  0  0  0
    3.7799   -3.5250    1.0877 H   0  0  0  0  0  0
    3.0040   -5.7694    0.3739 H   0  0  0  0  0  0
    1.7797   -4.9609    1.3817 H   0  0  0  0  0  0
    1.5719   -5.0331   -0.3846 H   0  0  0  0  0  0
    6.7367    1.1286    0.5537 H   0  0  0  0  0  0
    6.5366    1.0513   -1.2133 H   0  0  0  0  0  0
    8.3503    2.6235   -0.5910 H   0  0  0  0  0  0
    7.0008    3.4819   -1.3723 H   0  0  0  0  0  0
    7.2008    3.5593    0.3947 H   0  0  0  0  0  0
   -1.2424   -0.7998   -1.8995 H   0  0  0  0  0  0
   -2.1203    0.5671   -2.6269 H   0  0  0  0  0  0
   -0.5089    0.8219   -1.9151 H   0  0  0  0  0  0
   -8.0175   -0.3906   -0.3451 H   0  0  0  0  0  0
   -7.8206    0.1275    1.2409 H   0  0  0  0  0  0
  1  2  1  0  0  0
  1  6  2  0  0  0
  2  3  2  0  0  0
  2 27  1  0  0  0
  3  4  1  0  0  0
  4  5  2  0  0  0
  4 11  1  0  0  0
  5  6  1  0  0  0
  5  8  1  0  0  0
  6  7  1  0  0  0
  7 28  1  0  0  0
  7 29  1  0  0  0
  8  9  2  0  0  0
  8 26  1  0  0  0
  9 10  1  0  0  0
  9 12  1  0  0  0
 10 11  2  0  0  0
 10 30  1  0  0  0
 12 13  1  0  0  0
 12 31  1  0  0  0
 12 32  1  0  0  0
 13 14  1  0  0  0
 13 33  1  0  0  0
 14 15  1  0  0  0
 14 19  2  0  0  0
 15 16  2  0  0  0
 15 34  1  0  0  0
 16 17  1  0  0  0
 16 23  1  0  0  0
 17 18  2  0  0  0
 17 35  1  0  0  0
 18 19  1  0  0  0
 18 36  1  0  0  0
 19 20  1  0  0  0
 20 21  1  0  0  0
 21 22  1  0  0  0
 21 37  1  0  0  0
 21 38  1  0  0  0
 22 39  1  0  0  0
 22 40  1  0  0  0
 22 41  1  0  0  0
 23 24  1  0  0  0
 24 25  1  0  0  0
 24 42  1  0  0  0
 24 43  1  0  0  0
 25 44  1  0  0  0
 25 45  1  0  0  0
 25 46  1  0  0  0
 26 47  1  0  0  0
 26 48  1  0  0  0
 26 49  1  0  0  0
 27 50  1  0  0  0
 27 51  1  0  0  0
M  END
>  <ACTIVITY>
7.75945

>  <set_rl>
1

>  <Min_dist>
999.9

>  <Avg_dist>
999.9

>  <PC_uM>
0.0767

>  <TG_uM>
0.017

>  <RL_uM>
0.0174

$$$$
24-3A
  Cerius2 12110214553D 1   1.00000                          
 
 48 50  0  0  0  0  0  0  0  0999 V2000
   -5.5125    0.7920   -0.5206 N   0  0  0  0  0  0
   -5.7474   -0.4055    0.0082 C   0  0  0  0  0  0
   -4.7871   -1.1875    0.4644 N   0  0  0  0  0  0
   -3.5062   -0.7955    0.4108 C   0  0  0  0  0  0
   -3.2103    0.4733   -0.1452 C   0  0  0  0  0  0
   -4.2807    1.2713   -0.6194 C   0  0  0  0  0  0
   -4.0473    2.5126   -1.1694 N   0  0  0  0  0  0
   -1.8786    0.8998   -0.2092 C   0  0  0  0  0  0
   -0.9097    0.0607    0.2748 C   0  0  0  0  0  0
   -1.2653   -1.1723    0.8084 C   0  0  0  0  0  0
   -2.5177   -1.5664    0.8653 N   0  0  0  0  0  0
    0.5389    0.4737    0.2282 C   0  0  0  0  0  0
    1.3739   -0.6071    0.7689 N   0  0  0  0  0  0
    2.6807   -0.3631    0.3315 C   0  0  0  0  0  0
    3.3213    0.8165    0.6807 C   0  0  0  0  0  0
    4.6161    1.0553    0.2462 C   0  0  0  0  0  0
    5.2701    0.1160   -0.5372 C   0  0  0  0  0  0
    4.6333   -1.0604   -0.8870 C   0  0  0  0  0  0
    3.3424   -1.3069   -0.4506 C   0  0  0  0  0  0
    2.7166   -2.4652   -0.7951 O   0  0  0  0  0  0
    3.6361   -3.2086   -1.5976 C   0  0  0  0  0  0
    5.2450    2.2114    0.5880 O   0  0  0  0  0  0
    6.5459    2.1637   -0.0015 C   0  0  0  0  0  0
    1.3804   -0.4454    2.2290 C   0  0  0  0  0  0
   -1.5211    2.2421   -0.7936 C   0  0  0  0  0  0
   -7.0535   -0.8500    0.0835 N   0  0  0  0  0  0
   -4.5172    2.7828   -1.9738 H   0  0  0  0  0  0
   -3.4130    3.1164   -0.7523 H   0  0  0  0  0  0
   -0.4915   -1.8243    1.1861 H   0  0  0  0  0  0
    0.8267    0.6735   -0.8039 H   0  0  0  0  0  0
    0.6792    1.3747    0.8254 H   0  0  0  0  0  0
    2.8120    1.5484    1.2901 H   0  0  0  0  0  0
    6.2786    0.3040   -0.8750 H   0  0  0  0  0  0
    5.1449   -1.7899   -1.4974 H   0  0  0  0  0  0
    3.1767   -4.1499   -1.8991 H   0  0  0  0  0  0
    3.8945   -2.6299   -2.4844 H   0  0  0  0  0  0
    4.5385   -3.4129   -1.0214 H   0  0  0  0  0  0
    7.0908    3.0747    0.2465 H   0  0  0  0  0  0
    7.0879    1.3000    0.3837 H   0  0  0  0  0  0
    6.4514    2.0802   -1.0841 H   0  0  0  0  0  0
    2.0705   -1.1640    2.6711 H   0  0  0  0  0  0
    1.6984    0.5662    2.4811 H   0  0  0  0  0  0
    0.3770   -0.6185    2.6182 H   0  0  0  0  0  0
   -1.6440    3.0137   -0.0335 H   0  0  0  0  0  0
   -0.4850    2.2269   -1.1317 H   0  0  0  0  0  0
   -2.1759    2.4567   -1.6382 H   0  0  0  0  0  0
   -7.7755   -0.2919   -0.2454 H   0  0  0  0  0  0
   -7.2485   -1.7202    0.4653 H   0  0  0  0  0  0
  1  2  1  0  0  0
  1  6  2  0  0  0
  2  3  2  0  0  0
  2 26  1  0  0  0
  3  4  1  0  0  0
  4  5  2  0  0  0
  4 11  1  0  0  0
  5  6  1  0  0  0
  5  8  1  0  0  0
  6  7  1  0  0  0
  7 27  1  0  0  0
  7 28  1  0  0  0
  8  9  2  0  0  0
  8 25  1  0  0  0
  9 10  1  0  0  0
  9 12  1  0  0  0
 10 11  2  0  0  0
 10 29  1  0  0  0
 12 13  1  0  0  0
 12 30  1  0  0  0
 12 31  1  0  0  0
 13 14  1  0  0  0
 13 24  1  0  0  0
 14 15  1  0  0  0
 14 19  2  0  0  0
 15 16  2  0  0  0
 15 32  1  0  0  0
 16 17  1  0  0  0
 16 22  1  0  0  0
 17 18  2  0  0  0
 17 33  1  0  0  0
 18 19  1  0  0  0
 18 34  1  0  0  0
 19 20  1  0  0  0
 20 21  1  0  0  0
 21 35  1  0  0  0
 21 36  1  0  0  0
 21 37  1  0  0  0
 22 23  1  0  0  0
 23 38  1  0  0  0
 23 39  1  0  0  0
 23 40  1  0  0  0
 24 41  1  0  0  0
 24 42  1  0  0  0
 24 43  1  0  0  0
 25 44  1  0  0  0
 25 45  1  0  0  0
 25 46  1  0  0  0
 26 47  1  0  0  0
 26 48  1  0  0  0
M  END
>  <ACTIVITY>
6.39041

>  <set_rl>
1

>  <Min_dist>
999.9

>  <Avg_dist>
999.9

>  <PC_uM>
0.216

>  <TG_uM>
0.0301

>  <RL_uM>
0.407

$$$$
24-4C
  Cerius2 12110214553D 1   1.00000                          
 
 55 57  0  0  0  0  0  0  0  0999 V2000
    5.7480   -0.6506    0.1330 N   0  0  0  0  0  0
    5.4791   -0.7308    1.4330 C   0  0  0  0  0  0
    4.2975   -0.4324    1.9395 N   0  0  0  0  0  0
    3.2981   -0.0265    1.1435 C   0  0  0  0  0  0
    3.5407    0.0738   -0.2485 C   0  0  0  0  0  0
    4.8280   -0.2596   -0.7374 C   0  0  0  0  0  0
    5.1162   -0.1788   -2.0821 N   0  0  0  0  0  0
    2.5090    0.4956   -1.0953 C   0  0  0  0  0  0
    1.2963    0.7960   -0.5328 C   0  0  0  0  0  0
    1.1220    0.6771    0.8408 C   0  0  0  0  0  0
    2.0951    0.2805    1.6301 N   0  0  0  0  0  0
    0.1539    1.2549   -1.4019 C   0  0  0  0  0  0
   -0.9817    1.6322   -0.5567 N   0  0  0  0  0  0
   -1.9762    0.6936   -0.2613 C   0  0  0  0  0  0
   -3.1070    1.0799    0.4453 C   0  0  0  0  0  0
   -4.0928    0.1504    0.7384 C   0  0  0  0  0  0
   -3.9489   -1.1684    0.3246 C   0  0  0  0  0  0
   -2.8168   -1.5544   -0.3827 C   0  0  0  0  0  0
   -1.8344   -0.6225   -0.6799 C   0  0  0  0  0  0
   -2.6751   -2.8447   -0.7880 O   0  0  0  0  0  0
   -1.4273   -2.9258   -1.4797 C   0  0  0  0  0  0
   -4.9168   -2.0822    0.6125 O   0  0  0  0  0  0
   -5.8430   -2.0596   -0.4755 C   0  0  0  0  0  0
   -5.2002    0.5290    1.4310 O   0  0  0  0  0  0
   -5.0565    1.9231    1.7098 C   0  0  0  0  0  0
   -1.0759    2.9924   -0.0208 C   0  0  0  0  0  0
   -1.9406    3.8476   -0.9491 C   0  0  0  0  0  0
    2.7258    0.6161   -2.5818 C   0  0  0  0  0  0
    6.4803   -1.1451    2.2906 N   0  0  0  0  0  0
    4.7953    0.5743   -2.6024 H   0  0  0  0  0  0
    5.6402   -0.8749   -2.5085 H   0  0  0  0  0  0
    0.1611    0.9174    1.2714 H   0  0  0  0  0  0
    0.4692    2.1153   -1.9921 H   0  0  0  0  0  0
   -0.1429    0.4457   -2.0691 H   0  0  0  0  0  0
   -3.2185    2.1048    0.7672 H   0  0  0  0  0  0
   -0.9546   -0.9223   -1.2299 H   0  0  0  0  0  0
   -1.2692   -3.9473   -1.8254 H   0  0  0  0  0  0
   -1.4417   -2.2508   -2.3355 H   0  0  0  0  0  0
   -0.6192   -2.6410   -0.8059 H   0  0  0  0  0  0
   -6.6403   -2.7790   -0.2890 H   0  0  0  0  0  0
   -6.2694   -1.0608   -0.5690 H   0  0  0  0  0  0
   -5.3257   -2.3216   -1.3985 H   0  0  0  0  0  0
   -5.9253    2.2737    2.2668 H   0  0  0  0  0  0
   -4.1558    2.0842    2.3022 H   0  0  0  0  0  0
   -4.9787    2.4749    0.7729 H   0  0  0  0  0  0
   -1.5276    2.9618    0.9707 H   0  0  0  0  0  0
   -0.0781    3.4258    0.0478 H   0  0  0  0  0  0
   -1.9386    4.8798   -0.5989 H   0  0  0  0  0  0
   -1.5378    3.8065   -1.9611 H   0  0  0  0  0  0
   -2.9615    3.4658   -0.9486 H   0  0  0  0  0  0
    3.1907    1.5765   -2.8044 H   0  0  0  0  0  0
    3.3767   -0.1899   -2.9206 H   0  0  0  0  0  0
    1.7668    0.5489   -3.0955 H   0  0  0  0  0  0
    7.3566   -1.3699    1.9405 H   0  0  0  0  0  0
    6.3069   -1.2111    3.2427 H   0  0  0  0  0  0
  1  2  1  0  0  0
  1  6  2  0  0  0
  2  3  2  0  0  0
  2 29  1  0  0  0
  3  4  1  0  0  0
  4  5  2  0  0  0
  4 11  1  0  0  0
  5  6  1  0  0  0
  5  8  1  0  0  0
  6  7  1  0  0  0
  7 30  1  0  0  0
  7 31  1  0  0  0
  8  9  2  0  0  0
  8 28  1  0  0  0
  9 10  1  0  0  0
  9 12  1  0  0  0
 10 11  2  0  0  0
 10 32  1  0  0  0
 12 13  1  0  0  0
 12 33  1  0  0  0
 12 34  1  0  0  0
 13 14  1  0  0  0
 13 26  1  0  0  0
 14 15  1  0  0  0
 14 19  2  0  0  0
 15 16  2  0  0  0
 15 35  1  0  0  0
 16 17  1  0  0  0
 16 24  1  0  0  0
 17 18  2  0  0  0
 17 22  1  0  0  0
 18 19  1  0  0  0
 18 20  1  0  0  0
 19 36  1  0  0  0
 20 21  1  0  0  0
 21 37  1  0  0  0
 21 38  1  0  0  0
 21 39  1  0  0  0
 22 23  1  0  0  0
 23 40  1  0  0  0
 23 41  1  0  0  0
 23 42  1  0  0  0
 24 25  1  0  0  0
 25 43  1  0  0  0
 25 44  1  0  0  0
 25 45  1  0  0  0
 26 27  1  0  0  0
 26 46  1  0  0  0
 26 47  1  0  0  0
 27 48  1  0  0  0
 27 49  1  0  0  0
 27 50  1  0  0  0
 28 51  1  0  0  0
 28 52  1  0  0  0
 28 53  1  0  0  0
 29 54  1  0  0  0
 29 55  1  0  0  0
M  END
>  <ACTIVITY>
7.97881

>  <set_rl>
1

>  <Min_dist>
999.9

>  <Avg_dist>
999.9

>  <PC_uM>
0.0497

>  <TG_uM>
0.0027

>  <RL_uM>
0.0105

$$$$
24-5A
  Cerius2 12110214553D 1   1.00000                          
 
 43 46  0  0  0  0  0  0  0  0999 V2000
   -4.9097   -1.1369   -0.6703 N   0  0  0  0  0  0
   -5.4213   -0.5705    0.4188 C   0  0  0  0  0  0
   -4.7475    0.2845    1.1649 N   0  0  0  0  0  0
   -3.4901    0.6231    0.8462 C   0  0  0  0  0  0
   -2.9052    0.0429   -0.3061 C   0  0  0  0  0  0
   -3.6749   -0.8685   -1.0704 C   0  0  0  0  0  0
   -3.1533   -1.4610   -2.1995 N   0  0  0  0  0  0
   -1.5933    0.3848   -0.6548 C   0  0  0  0  0  0
   -0.9261    1.2760    0.1438 C   0  0  0  0  0  0
   -1.5561    1.8101    1.2615 C   0  0  0  0  0  0
   -2.7881    1.4847    1.5831 N   0  0  0  0  0  0
    0.4883    1.6758   -0.1888 C   0  0  0  0  0  0
    1.3982    0.5785    0.1488 N   0  0  0  0  0  0
    2.7650    0.7093   -0.0871 C   0  0  0  0  0  0
    3.2681    1.8688   -0.6381 C   0  0  0  0  0  0
    4.6315    2.0093   -0.8777 C   0  0  0  0  0  0
    5.5052    1.0091   -0.5764 C   0  0  0  0  0  0
    5.0334   -0.1888   -0.0135 C   0  0  0  0  0  0
    3.6482   -0.3417    0.2411 C   0  0  0  0  0  0
    3.1786   -1.5385    0.8043 C   0  0  0  0  0  0
    4.0579   -2.5356    1.0984 C   0  0  0  0  0  0
    5.4207   -2.3862    0.8488 C   0  0  0  0  0  0
    5.9121   -1.2379    0.3081 C   0  0  0  0  0  0
   -0.9342   -0.2101   -1.8725 C   0  0  0  0  0  0
   -6.7147   -0.8907    0.7847 N   0  0  0  0  0  0
   -2.2361   -1.7767   -2.2018 H   0  0  0  0  0  0
   -3.7032   -1.5625   -2.9921 H   0  0  0  0  0  0
   -1.0186    2.5113    1.8828 H   0  0  0  0  0  0
    0.5630    1.8951   -1.2539 H   0  0  0  0  0  0
    0.7596    2.5623    0.3845 H   0  0  0  0  0  0
    1.0491   -0.2392    0.5367 H   0  0  0  0  0  0
    2.5963    2.6770   -0.8869 H   0  0  0  0  0  0
    5.0030    2.9265   -1.3101 H   0  0  0  0  0  0
    6.5600    1.1364   -0.7703 H   0  0  0  0  0  0
    2.1251   -1.6677    1.0037 H   0  0  0  0  0  0
    3.6939   -3.4554    1.5317 H   0  0  0  0  0  0
    6.0975   -3.1921    1.0916 H   0  0  0  0  0  0
    6.9707   -1.1363    0.1198 H   0  0  0  0  0  0
   -0.5314   -1.1921   -1.6243 H   0  0  0  0  0  0
   -1.6692   -0.3102   -2.6711 H   0  0  0  0  0  0
   -0.1253    0.4416   -2.2027 H   0  0  0  0  0  0
   -7.2289   -1.5165    0.2510 H   0  0  0  0  0  0
   -7.1085   -0.4896    1.5753 H   0  0  0  0  0  0
  1  2  1  0  0  0
  1  6  2  0  0  0
  2  3  2  0  0  0
  2 25  1  0  0  0
  3  4  1  0  0  0
  4  5  2  0  0  0
  4 11  1  0  0  0
  5  6  1  0  0  0
  5  8  1  0  0  0
  6  7  1  0  0  0
  7 26  1  0  0  0
  7 27  1  0  0  0
  8  9  2  0  0  0
  8 24  1  0  0  0
  9 10  1  0  0  0
  9 12  1  0  0  0
 10 11  2  0  0  0
 10 28  1  0  0  0
 12 13  1  0  0  0
 12 29  1  0  0  0
 12 30  1  0  0  0
 13 14  1  0  0  0
 13 31  1  0  0  0
 14 15  1  0  0  0
 14 19  2  0  0  0
 15 16  2  0  0  0
 15 32  1  0  0  0
 16 17  1  0  0  0
 16 33  1  0  0  0
 17 18  2  0  0  0
 17 34  1  0  0  0
 18 19  1  0  0  0
 18 23  1  0  0  0
 19 20  1  0  0  0
 20 21  2  0  0  0
 20 35  1  0  0  0
 21 22  1  0  0  0
 21 36  1  0  0  0
 22 23  2  0  0  0
 22 37  1  0  0  0
 23 38  1  0  0  0
 24 39  1  0  0  0
 24 40  1  0  0  0
 24 41  1  0  0  0
 25 42  1  0  0  0
 25 43  1  0  0  0
M  END
>  <ACTIVITY>
7.52871

>  <set_rl>
1

>  <Min_dist>
999.9

>  <Avg_dist>
999.9

>  <PC_uM>
0.573

>  <TG_uM>
0.0145

>  <RL_uM>
0.0296

$$$$
9-14H
  Cerius2 12110214553D 1   1.00000                          
 
 48 50  0  0  0  0  0  0  0  0999 V2000
   -5.3544   -0.7433   -0.1717 N   0  0  0  0  0  0
   -5.0469   -1.3317    0.9806 C   0  0  0  0  0  0
   -3.8656   -1.2063    1.5558 N   0  0  0  0  0  0
   -2.9063   -0.4629    0.9864 C   0  0  0  0  0  0
   -3.1907    0.1818   -0.2425 C   0  0  0  0  0  0
   -4.4758    0.0127   -0.8146 C   0  0  0  0  0  0
   -4.8033    0.6175   -2.0082 N   0  0  0  0  0  0
   -2.2014    0.9627   -0.8517 C   0  0  0  0  0  0
   -0.9881    1.0695   -0.2244 C   0  0  0  0  0  0
   -0.7716    0.4118    0.9806 C   0  0  0  0  0  0
   -1.7050   -0.3198    1.5471 N   0  0  0  0  0  0
    0.1099    1.8981   -0.8401 C   0  0  0  0  0  0
    1.2965    1.8514    0.0178 N   0  0  0  0  0  0
    2.2602    0.8554   -0.1748 C   0  0  0  0  0  0
    2.0919   -0.0887   -1.1790 C   0  0  0  0  0  0
    3.0427   -1.0734   -1.3702 C   0  0  0  0  0  0
    4.1657   -1.1206   -0.5603 C   0  0  0  0  0  0
    4.3373   -0.1761    0.4469 C   0  0  0  0  0  0
    3.3875    0.8145    0.6345 C   0  0  0  0  0  0
    5.4390   -0.2224    1.2428 O   0  0  0  0  0  0
    5.3278    0.8631    2.1655 C   0  0  0  0  0  0
    5.1008   -2.0912   -0.7496 O   0  0  0  0  0  0
    4.6468   -2.8951   -1.8403 C   0  0  0  0  0  0
    1.4740    2.8474    1.0774 C   0  0  0  0  0  0
   -2.4631    1.6648   -2.1593 C   0  0  0  0  0  0
   -6.0059   -2.1078    1.6030 N   0  0  0  0  0  0
   -5.6782    1.0200   -2.1240 H   0  0  0  0  0  0
   -4.1589    0.6409   -2.7329 H   0  0  0  0  0  0
    0.1895    0.5041    1.4644 H   0  0  0  0  0  0
    0.3571    1.5000   -1.8242 H   0  0  0  0  0  0
   -0.2262    2.9302   -0.9395 H   0  0  0  0  0  0
    1.2170   -0.0538   -1.8112 H   0  0  0  0  0  0
    2.9100   -1.8071   -2.1516 H   0  0  0  0  0  0
    3.5190    1.5485    1.4157 H   0  0  0  0  0  0
    6.1932    0.8669    2.8281 H   0  0  0  0  0  0
    5.2864    1.8038    1.6164 H   0  0  0  0  0  0
    4.4188    0.7466    2.7557 H   0  0  0  0  0  0
    5.3676   -3.6905   -2.0301 H   0  0  0  0  0  0
    3.6800   -3.3326   -1.5914 H   0  0  0  0  0  0
    4.5466   -2.2754   -2.7314 H   0  0  0  0  0  0
    0.6288    3.5357    1.0744 H   0  0  0  0  0  0
    1.5298    2.3447    2.0429 H   0  0  0  0  0  0
    2.3956    3.4029    0.9031 H   0  0  0  0  0  0
   -2.3123    0.9669   -2.9829 H   0  0  0  0  0  0
   -3.4898    2.0304   -2.1762 H   0  0  0  0  0  0
   -1.7765    2.5048   -2.2644 H   0  0  0  0  0  0
   -6.8812   -2.2139    1.1987 H   0  0  0  0  0  0
   -5.8038   -2.5465    2.4442 H   0  0  0  0  0  0
  1  2  1  0  0  0
  1  6  2  0  0  0
  2  3  2  0  0  0
  2 26  1  0  0  0
  3  4  1  0  0  0
  4  5  2  0  0  0
  4 11  1  0  0  0
  5  6  1  0  0  0
  5  8  1  0  0  0
  6  7  1  0  0  0
  7 27  1  0  0  0
  7 28  1  0  0  0
  8  9  2  0  0  0
  8 25  1  0  0  0
  9 10  1  0  0  0
  9 12  1  0  0  0
 10 11  2  0  0  0
 10 29  1  0  0  0
 12 13  1  0  0  0
 12 30  1  0  0  0
 12 31  1  0  0  0
 13 14  1  0  0  0
 13 24  1  0  0  0
 14 15  1  0  0  0
 14 19  2  0  0  0
 15 16  2  0  0  0
 15 32  1  0  0  0
 16 17  1  0  0  0
 16 33  1  0  0  0
 17 18  2  0  0  0
 17 22  1  0  0  0
 18 19  1  0  0  0
 18 20  1  0  0  0
 19 34  1  0  0  0
 20 21  1  0  0  0
 21 35  1  0  0  0
 21 36  1  0  0  0
 21 37  1  0  0  0
 22 23  1  0  0  0
 23 38  1  0  0  0
 23 39  1  0  0  0
 23 40  1  0  0  0
 24 41  1  0  0  0
 24 42  1  0  0  0
 24 43  1  0  0  0
 25 44  1  0  0  0
 25 45  1  0  0  0
 25 46  1  0  0  0
 26 47  1  0  0  0
 26 48  1  0  0  0
M  END
>  <ACTIVITY>
8.35655

>  <set_rl>
1

>  <Min_dist>
999.9

>  <Avg_dist>
999.9

>  <PC_uM>
0.32

>  <TG_uM>
0.0029

>  <RL_uM>
0.0044

$$$$
25-11
  Cerius2 12110214553D 1   1.00000                          
 
 46 48  0  0  0  0  0  0  0  0999 V2000
   -6.1333    0.0014   -1.0970 N   0  0  0  0  0  0
   -6.4753   -0.0004    0.1884 C   0  0  0  0  0  0
   -5.5886   -0.0018    1.1650 N   0  0  0  0  0  0
   -4.2745   -0.0016    0.8934 C   0  0  0  0  0  0
   -3.8661    0.0002   -0.4627 C   0  0  0  0  0  0
   -4.8620    0.0017   -1.4706 C   0  0  0  0  0  0
   -4.5172    0.0031   -2.8051 N   0  0  0  0  0  0
   -2.5000    0.0010   -0.7690 C   0  0  0  0  0  0
   -1.5997   -0.0001    0.2840 C   0  0  0  0  0  0
   -2.0753   -0.0019    1.5969 C   0  0  0  0  0  0
   -3.3612   -0.0026    1.8644 N   0  0  0  0  0  0
   -0.2229    0.0001    0.0336 N   0  0  0  0  0  0
    0.7248   -0.0011    1.1508 C   0  0  0  0  0  0
    2.1333   -0.0006    0.6147 C   0  0  0  0  0  0
    2.7775    1.1979    0.3707 C   0  0  0  0  0  0
    4.0733    1.2027   -0.1230 C   0  0  0  0  0  0
    4.7244    0.0004   -0.3721 C   0  0  0  0  0  0
    4.0734   -1.2024   -0.1250 C   0  0  0  0  0  0
    2.7794   -1.1985    0.3736 C   0  0  0  0  0  0
    4.7061   -2.3815   -0.3675 O   0  0  0  0  0  0
    3.7898   -3.4212   -0.0192 C   0  0  0  0  0  0
    5.9960    0.0009   -0.8570 O   0  0  0  0  0  0
    6.8694    0.0002    0.2740 C   0  0  0  0  0  0
    4.7059    2.3823   -0.3635 O   0  0  0  0  0  0
    3.7893    3.4213   -0.0139 C   0  0  0  0  0  0
   -7.8189   -0.0002    0.5152 N   0  0  0  0  0  0
   -5.2093    0.0041   -3.4848 H   0  0  0  0  0  0
   -3.5826    0.0030   -3.0646 H   0  0  0  0  0  0
   -2.1588    0.0020   -1.7937 H   0  0  0  0  0  0
   -1.3678   -0.0028    2.4130 H   0  0  0  0  0  0
    0.1039    0.0010   -0.8797 H   0  0  0  0  0  0
    0.5681    0.8883    1.7611 H   0  0  0  0  0  0
    0.5680   -0.8917    1.7593 H   0  0  0  0  0  0
    2.2708    2.1317    0.5646 H   0  0  0  0  0  0
    2.2729   -2.1327    0.5662 H   0  0  0  0  0  0
    4.2552   -4.3906   -0.1977 H   0  0  0  0  0  0
    3.5248   -3.3340    1.0345 H   0  0  0  0  0  0
    2.8905   -3.3322   -0.6286 H   0  0  0  0  0  0
    7.9049    0.0005   -0.0665 H   0  0  0  0  0  0
    6.6847    0.8898    0.8762 H   0  0  0  0  0  0
    6.6849   -0.8902    0.8750 H   0  0  0  0  0  0
    4.2547    4.3910   -0.1907 H   0  0  0  0  0  0
    2.8902    3.3331   -0.6237 H   0  0  0  0  0  0
    3.5240    3.3324    1.0396 H   0  0  0  0  0  0
   -8.4886    0.0012   -0.1865 H   0  0  0  0  0  0
   -8.0916   -0.0014    1.4460 H   0  0  0  0  0  0
  1  2  1  0  0  0
  1  6  2  0  0  0
  2  3  2  0  0  0
  2 26  1  0  0  0
  3  4  1  0  0  0
  4  5  2  0  0  0
  4 11  1  0  0  0
  5  6  1  0  0  0
  5  8  1  0  0  0
  6  7  1  0  0  0
  7 27  1  0  0  0
  7 28  1  0  0  0
  8  9  2  0  0  0
  8 29  1  0  0  0
  9 10  1  0  0  0
  9 12  1  0  0  0
 10 11  2  0  0  0
 10 30  1  0  0  0
 12 13  1  0  0  0
 12 31  1  0  0  0
 13 14  1  0  0  0
 13 32  1  0  0  0
 13 33  1  0  0  0
 14 15  1  0  0  0
 14 19  2  0  0  0
 15 16  2  0  0  0
 15 34  1  0  0  0
 16 17  1  0  0  0
 16 24  1  0  0  0
 17 18  2  0  0  0
 17 22  1  0  0  0
 18 19  1  0  0  0
 18 20  1  0  0  0
 19 35  1  0  0  0
 20 21  1  0  0  0
 21 36  1  0  0  0
 21 37  1  0  0  0
 21 38  1  0  0  0
 22 23  1  0  0  0
 23 39  1  0  0  0
 23 40  1  0  0  0
 23 41  1  0  0  0
 24 25  1  0  0  0
 25 42  1  0  0  0
 25 43  1  0  0  0
 25 44  1  0  0  0
 26 45  1  0  0  0
 26 46  1  0  0  0
M  END
>  <ACTIVITY>
5.48149

>  <set_rl>
1

>  <Min_dist>
999.9

>  <Avg_dist>
999.9

>  <PC_uM>
14.1

>  <TG_uM>
0.35

>  <RL_uM>
3.3

$$$$
27-11
  Cerius2 12110214553D 1   1.00000                          
 
 37 39  0  0  0  0  0  0  0  0999 V2000
   -5.0801    1.1944   -0.1465 N   0  0  0  0  0  0
   -5.5816   -0.0117   -0.3965 C   0  0  0  0  0  0
   -4.8505   -1.1102   -0.3719 N   0  0  0  0  0  0
   -3.5418   -1.0512   -0.0873 C   0  0  0  0  0  0
   -2.9657    0.2138    0.1851 C   0  0  0  0  0  0
   -3.7978    1.3598    0.1451 C   0  0  0  0  0  0
   -3.2873    2.6134    0.4018 N   0  0  0  0  0  0
   -1.6007    0.2950    0.4848 C   0  0  0  0  0  0
   -0.8747   -0.8668    0.5013 C   0  0  0  0  0  0
   -1.4993   -2.0772    0.2250 C   0  0  0  0  0  0
   -2.7814   -2.1462   -0.0555 N   0  0  0  0  0  0
    0.5982   -0.8323    0.8178 C   0  0  0  0  0  0
    1.3327   -0.3007   -0.3329 N   0  0  0  0  0  0
    2.7221   -0.1637   -0.2724 C   0  0  0  0  0  0
    3.4197    0.3402   -1.3626 C   0  0  0  0  0  0
    4.7928    0.4744   -1.3000 C   0  0  0  0  0  0
    5.4736    0.1073   -0.1526 C   0  0  0  0  0  0
    4.7812   -0.3955    0.9350 C   0  0  0  0  0  0
    3.4074   -0.5260    0.8802 C   0  0  0  0  0  0
    7.1997    0.2773   -0.0774 Cl  0  0  0  0  0  0
   -0.9488    1.6213    0.7800 C   0  0  0  0  0  0
   -6.9266   -0.1194   -0.6946 N   0  0  0  0  0  0
   -2.4214    2.8667    0.0456 H   0  0  0  0  0  0
   -3.7938    3.2427    0.9387 H   0  0  0  0  0  0
   -0.9154   -2.9856    0.2410 H   0  0  0  0  0  0
    0.7688   -0.1935    1.6844 H   0  0  0  0  0  0
    0.9466   -1.8418    1.0364 H   0  0  0  0  0  0
    0.8546   -0.0437   -1.1368 H   0  0  0  0  0  0
    2.8889    0.6265   -2.2585 H   0  0  0  0  0  0
    5.3358    0.8658   -2.1476 H   0  0  0  0  0  0
    5.3151   -0.6818    1.8290 H   0  0  0  0  0  0
    2.8674   -0.9181    1.7294 H   0  0  0  0  0  0
   -0.6944    2.1176   -0.1565 H   0  0  0  0  0  0
   -1.6382    2.2468    1.3471 H   0  0  0  0  0  0
   -0.0423    1.4588    1.3631 H   0  0  0  0  0  0
   -7.4832    0.6746   -0.7181 H   0  0  0  0  0  0
   -7.3140   -0.9891   -0.8803 H   0  0  0  0  0  0
  1  2  1  0  0  0
  1  6  2  0  0  0
  2  3  2  0  0  0
  2 22  1  0  0  0
  3  4  1  0  0  0
  4  5  2  0  0  0
  4 11  1  0  0  0
  5  6  1  0  0  0
  5  8  1  0  0  0
  6  7  1  0  0  0
  7 23  1  0  0  0
  7 24  1  0  0  0
  8  9  2  0  0  0
  8 21  1  0  0  0
  9 10  1  0  0  0
  9 12  1  0  0  0
 10 11  2  0  0  0
 10 25  1  0  0  0
 12 13  1  0  0  0
 12 26  1  0  0  0
 12 27  1  0  0  0
 13 14  1  0  0  0
 13 28  1  0  0  0
 14 15  1  0  0  0
 14 19  2  0  0  0
 15 16  2  0  0  0
 15 29  1  0  0  0
 16 17  1  0  0  0
 16 30  1  0  0  0
 17 18  2  0  0  0
 17 20  1  0  0  0
 18 19  1  0  0  0
 18 31  1  0  0  0
 19 32  1  0  0  0
 21 33  1  0  0  0
 21 34  1  0  0  0
 21 35  1  0  0  0
 22 36  1  0  0  0
 22 37  1  0  0  0
M  END
>  <ACTIVITY>
7.29243

>  <set_rl>
1

>  <Min_dist>
999.9

>  <Avg_dist>
999.9

>  <PC_uM>
0.0554

>  <TG_uM>
0.019

>  <RL_uM>
0.051

$$$$
28-10
  Cerius2 12110214553D 1   1.00000                          
 
 43 45  0  0  0  0  0  0  0  0999 V2000
   -5.6846    1.0988    0.1529 N   0  0  0  0  0  0
   -6.0574   -0.1764    0.2128 C   0  0  0  0  0  0
   -5.2061   -1.1777    0.0919 N   0  0  0  0  0  0
   -3.9005   -0.9421   -0.1010 C   0  0  0  0  0  0
   -3.4593    0.4021   -0.1716 C   0  0  0  0  0  0
   -4.4169    1.4373   -0.0348 C   0  0  0  0  0  0
   -4.0405    2.7610   -0.0963 N   0  0  0  0  0  0
   -2.0995    0.6675   -0.3721 C   0  0  0  0  0  0
   -1.2464   -0.3978   -0.4925 C   0  0  0  0  0  0
   -1.7421   -1.6938   -0.4141 C   0  0  0  0  0  0
   -3.0200   -1.9358   -0.2257 N   0  0  0  0  0  0
    0.2265   -0.1647   -0.7099 C   0  0  0  0  0  0
    0.9346   -0.0791    0.6436 C   0  0  0  0  0  0
    2.4075    0.1540    0.4262 C   0  0  0  0  0  0
    2.8974    1.4445    0.3482 C   0  0  0  0  0  0
    4.2477    1.6636    0.1488 C   0  0  0  0  0  0
    5.1134    0.5886    0.0267 C   0  0  0  0  0  0
    4.6203   -0.7103    0.1052 C   0  0  0  0  0  0
    3.2666   -0.9229    0.3108 C   0  0  0  0  0  0
    5.4659   -1.7686   -0.0147 O   0  0  0  0  0  0
    4.6700   -2.9491    0.1079 C   0  0  0  0  0  0
    6.4420    0.8024   -0.1699 O   0  0  0  0  0  0
    6.6317    2.2183   -0.2048 C   0  0  0  0  0  0
   -7.3940   -0.4656    0.4105 N   0  0  0  0  0  0
   -4.7066    3.4597   -0.0011 H   0  0  0  0  0  0
   -3.1092    2.9945   -0.2348 H   0  0  0  0  0  0
   -1.7338    1.6820   -0.4306 H   0  0  0  0  0  0
   -1.0587   -2.5245   -0.5110 H   0  0  0  0  0  0
    0.6437   -0.9901   -1.2867 H   0  0  0  0  0  0
    0.3701    0.7684   -1.2547 H   0  0  0  0  0  0
    0.5174    0.7463    1.2204 H   0  0  0  0  0  0
    0.7910   -1.0122    1.1884 H   0  0  0  0  0  0
    2.2237    2.2833    0.4429 H   0  0  0  0  0  0
    4.6278    2.6727    0.0879 H   0  0  0  0  0  0
    2.8813   -1.9300    0.3724 H   0  0  0  0  0  0
    5.3079   -3.8284    0.0179 H   0  0  0  0  0  0
    4.1772   -2.9558    1.0801 H   0  0  0  0  0  0
    3.9177   -2.9637   -0.6808 H   0  0  0  0  0  0
    7.6875    2.4397   -0.3613 H   0  0  0  0  0  0
    6.0466    2.6433   -1.0204 H   0  0  0  0  0  0
    6.3058    2.6520    0.7406 H   0  0  0  0  0  0
   -8.0376    0.2543    0.5023 H   0  0  0  0  0  0
   -7.6888   -1.3885    0.4575 H   0  0  0  0  0  0
  1  2  1  0  0  0
  1  6  2  0  0  0
  2  3  2  0  0  0
  2 24  1  0  0  0
  3  4  1  0  0  0
  4  5  2  0  0  0
  4 11  1  0  0  0
  5  6  1  0  0  0
  5  8  1  0  0  0
  6  7  1  0  0  0
  7 25  1  0  0  0
  7 26  1  0  0  0
  8  9  2  0  0  0
  8 27  1  0  0  0
  9 10  1  0  0  0
  9 12  1  0  0  0
 10 11  2  0  0  0
 10 28  1  0  0  0
 12 13  1  0  0  0
 12 29  1  0  0  0
 12 30  1  0  0  0
 13 14  1  0  0  0
 13 31  1  0  0  0
 13 32  1  0  0  0
 14 15  1  0  0  0
 14 19  2  0  0  0
 15 16  2  0  0  0
 15 33  1  0  0  0
 16 17  1  0  0  0
 16 34  1  0  0  0
 17 18  2  0  0  0
 17 22  1  0  0  0
 18 19  1  0  0  0
 18 20  1  0  0  0
 19 35  1  0  0  0
 20 21  1  0  0  0
 21 36  1  0  0  0
 21 37  1  0  0  0
 21 38  1  0  0  0
 22 23  1  0  0  0
 23 39  1  0  0  0
 23 40  1  0  0  0
 23 41  1  0  0  0
 24 42  1  0  0  0
 24 43  1  0  0  0
M  END
>  <ACTIVITY>
6.21467

>  <set_rl>
1

>  <Min_dist>
999.9

>  <Avg_dist>
999.9

>  <PC_uM>
1.4

>  <TG_uM>
0.2

>  <RL_uM>
0.61

$$$$
8-6
  Cerius2 12110214553D 1   1.00000                          
 
 33 35  0  0  0  0  0  0  0  0999 V2000
   -5.5647   -0.0910   -1.1525 N   0  0  0  0  0  0
   -5.9891    0.0175    0.1031 C   0  0  0  0  0  0
   -5.1739   -0.0217    1.1404 N   0  0  0  0  0  0
   -3.8541   -0.1768    0.9638 C   0  0  0  0  0  0
   -3.3583   -0.2970   -0.3577 C   0  0  0  0  0  0
   -4.2789   -0.2475   -1.4335 C   0  0  0  0  0  0
   -3.8489   -0.3599   -2.7375 N   0  0  0  0  0  0
   -1.9829   -0.4592   -0.5616 C   0  0  0  0  0  0
   -1.1684   -0.4948    0.5396 C   0  0  0  0  0  0
   -1.7169   -0.3713    1.8105 C   0  0  0  0  0  0
   -3.0092   -0.2193    1.9947 N   0  0  0  0  0  0
    0.3193   -0.6680    0.3729 C   0  0  0  0  0  0
    1.1045    0.9603    0.2217 S   0  0  0  0  0  0
    2.7883    0.4727    0.0438 C   0  0  0  0  0  0
    3.1278   -0.8744    0.0539 C   0  0  0  0  0  0
    4.4495   -1.2532   -0.0864 C   0  0  0  0  0  0
    5.4344   -0.2922   -0.2363 C   0  0  0  0  0  0
    5.0999    1.0495   -0.2467 C   0  0  0  0  0  0
    3.7797    1.4352   -0.1127 C   0  0  0  0  0  0
    3.3608    3.1198   -0.1266 Cl  0  0  0  0  0  0
    4.8751   -2.9362   -0.0740 Cl  0  0  0  0  0  0
   -7.3422    0.1789    0.3318 N   0  0  0  0  0  0
   -4.4902   -0.3243   -3.4644 H   0  0  0  0  0  0
   -2.9049   -0.4747   -2.9287 H   0  0  0  0  0  0
   -1.5759   -0.5538   -1.5575 H   0  0  0  0  0  0
   -1.0636   -0.4014    2.6700 H   0  0  0  0  0  0
    0.7242   -1.1873    1.2415 H   0  0  0  0  0  0
    0.5187   -1.2523   -0.5254 H   0  0  0  0  0  0
    2.3599   -1.6246    0.1715 H   0  0  0  0  0  0
    6.4666   -0.5909   -0.3450 H   0  0  0  0  0  0
    5.8708    1.7967   -0.3639 H   0  0  0  0  0  0
   -7.9600    0.2109   -0.4154 H   0  0  0  0  0  0
   -7.6744    0.2602    1.2395 H   0  0  0  0  0  0
  1  2  1  0  0  0
  1  6  2  0  0  0
  2  3  2  0  0  0
  2 22  1  0  0  0
  3  4  1  0  0  0
  4  5  2  0  0  0
  4 11  1  0  0  0
  5  6  1  0  0  0
  5  8  1  0  0  0
  6  7  1  0  0  0
  7 23  1  0  0  0
  7 24  1  0  0  0
  8  9  2  0  0  0
  8 25  1  0  0  0
  9 10  1  0  0  0
  9 12  1  0  0  0
 10 11  2  0  0  0
 10 26  1  0  0  0
 12 13  1  0  0  0
 12 27  1  0  0  0
 12 28  1  0  0  0
 13 14  1  0  0  0
 14 15  1  0  0  0
 14 19  2  0  0  0
 15 16  2  0  0  0
 15 29  1  0  0  0
 16 17  1  0  0  0
 16 21  1  0  0  0
 17 18  2  0  0  0
 17 30  1  0  0  0
 18 19  1  0  0  0
 18 31  1  0  0  0
 19 20  1  0  0  0
 22 32  1  0  0  0
 22 33  1  0  0  0
M  END
>  <ACTIVITY>
5.60206

>  <set_rl>
1

>  <Min_dist>
999.9

>  <Avg_dist>
999.9

>  <PC_uM>
5.9

>  <TG_uM>
2

>  <RL_uM>
2.5

$$$$
25-13
  Cerius2 12110214553D 1   1.00000                          
 
 49 51  0  0  0  0  0  0  0  0999 V2000
   -6.0317    0.9772   -0.5645 N   0  0  0  0  0  0
   -6.3153   -0.3221   -0.5922 C   0  0  0  0  0  0
   -5.4126   -1.2568   -0.3658 N   0  0  0  0  0  0
   -4.1414   -0.9256   -0.0919 C   0  0  0  0  0  0
   -3.7957    0.4473   -0.0523 C   0  0  0  0  0  0
   -4.8061    1.4083   -0.3035 C   0  0  0  0  0  0
   -4.5216    2.7567   -0.2774 N   0  0  0  0  0  0
   -2.4752    0.8155    0.2320 C   0  0  0  0  0  0
   -1.5564   -0.1949    0.4646 C   0  0  0  0  0  0
   -1.9692   -1.5277    0.4090 C   0  0  0  0  0  0
   -3.2130   -1.8535    0.1405 N   0  0  0  0  0  0
   -0.2232    0.1180    0.7529 N   0  0  0  0  0  0
    0.7444   -0.9543    0.9980 C   0  0  0  0  0  0
    2.1149   -0.5034    0.5627 C   0  0  0  0  0  0
    3.0325   -1.4305    0.1052 C   0  0  0  0  0  0
    4.2947   -1.0197   -0.2959 C   0  0  0  0  0  0
    4.6366    0.3261   -0.2378 C   0  0  0  0  0  0
    3.7110    1.2551    0.2224 C   0  0  0  0  0  0
    2.4490    0.8368    0.6167 C   0  0  0  0  0  0
    4.0408    2.5731    0.2816 O   0  0  0  0  0  0
    2.8965    3.2629    0.7884 C   0  0  0  0  0  0
    5.8746    0.7332   -0.6300 O   0  0  0  0  0  0
    5.7892    1.0290   -2.0255 C   0  0  0  0  0  0
    5.1971   -1.9327   -0.7450 O   0  0  0  0  0  0
    4.5576   -3.2092   -0.6857 C   0  0  0  0  0  0
    0.7678   -1.2887    2.4908 C   0  0  0  0  0  0
   -7.6132   -0.7097   -0.8701 N   0  0  0  0  0  0
   -5.2229    3.4038   -0.4512 H   0  0  0  0  0  0
   -3.6200    3.0585   -0.0852 H   0  0  0  0  0  0
   -2.1821    1.8543    0.2686 H   0  0  0  0  0  0
   -1.2477   -2.3103    0.5913 H   0  0  0  0  0  0
    0.0602    1.0449    0.7904 H   0  0  0  0  0  0
    0.4564   -1.8400    0.4317 H   0  0  0  0  0  0
    2.7661   -2.4761    0.0603 H   0  0  0  0  0  0
    1.7290    1.5581    0.9741 H   0  0  0  0  0  0
    3.1144    4.3289    0.8540 H   0  0  0  0  0  0
    2.0511    3.1053    0.1187 H   0  0  0  0  0  0
    2.6512    2.8806    1.7793 H   0  0  0  0  0  0
    6.7625    1.3610   -2.3867 H   0  0  0  0  0  0
    5.4861    0.1339   -2.5687 H   0  0  0  0  0  0
    5.0539    1.8175   -2.1854 H   0  0  0  0  0  0
    5.2462   -3.9772   -1.0380 H   0  0  0  0  0  0
    4.2697   -3.4238    0.3434 H   0  0  0  0  0  0
    3.6693   -3.2003   -1.3172 H   0  0  0  0  0  0
    1.0558   -0.4030    3.0571 H   0  0  0  0  0  0
   -0.2235   -1.6148    2.8057 H   0  0  0  0  0  0
    1.4877   -2.0866    2.6732 H   0  0  0  0  0  0
   -8.2937   -0.0396   -1.0395 H   0  0  0  0  0  0
   -7.8431   -1.6517   -0.8956 H   0  0  0  0  0  0
  1  2  1  0  0  0
  1  6  2  0  0  0
  2  3  2  0  0  0
  2 27  1  0  0  0
  3  4  1  0  0  0
  4  5  2  0  0  0
  4 11  1  0  0  0
  5  6  1  0  0  0
  5  8  1  0  0  0
  6  7  1  0  0  0
  7 28  1  0  0  0
  7 29  1  0  0  0
  8  9  2  0  0  0
  8 30  1  0  0  0
  9 10  1  0  0  0
  9 12  1  0  0  0
 10 11  2  0  0  0
 10 31  1  0  0  0
 12 13  1  0  0  0
 12 32  1  0  0  0
 13 14  1  0  0  0
 13 26  1  0  0  0
 13 33  1  0  0  0
 14 15  1  0  0  0
 14 19  2  0  0  0
 15 16  2  0  0  0
 15 34  1  0  0  0
 16 17  1  0  0  0
 16 24  1  0  0  0
 17 18  2  0  0  0
 17 22  1  0  0  0
 18 19  1  0  0  0
 18 20  1  0  0  0
 19 35  1  0  0  0
 20 21  1  0  0  0
 21 36  1  0  0  0
 21 37  1  0  0  0
 21 38  1  0  0  0
 22 23  1  0  0  0
 23 39  1  0  0  0
 23 40  1  0  0  0
 23 41  1  0  0  0
 24 25  1  0  0  0
 25 42  1  0  0  0
 25 43  1  0  0  0
 25 44  1  0  0  0
 26 45  1  0  0  0
 26 46  1  0  0  0
 26 47  1  0  0  0
 27 48  1  0  0  0
 27 49  1  0  0  0
M  END
>  <ACTIVITY>
5.8962

>  <set_rl>
1

>  <Min_dist>
999.9

>  <Avg_dist>
999.9

>  <PC_uM>
9.2

>  <TG_uM>
0.194

>  <RL_uM>
1.27

$$$$
25-22
  Cerius2 12110214553D 1   1.00000                          
 
 45 47  0  0  0  0  0  0  0  0999 V2000
   -5.1833   -0.4704   -0.1473 N   0  0  0  0  0  0
   -5.0394   -0.3733    1.1715 C   0  0  0  0  0  0
   -3.9102   -0.0013    1.7429 N   0  0  0  0  0  0
   -2.8359    0.3013    0.9978 C   0  0  0  0  0  0
   -2.9454    0.2113   -0.4114 C   0  0  0  0  0  0
   -4.1826   -0.1936   -0.9707 C   0  0  0  0  0  0
   -4.3411   -0.2975   -2.3360 N   0  0  0  0  0  0
   -1.8371    0.5229   -1.2080 C   0  0  0  0  0  0
   -0.6693    0.9100   -0.5710 C   0  0  0  0  0  0
   -0.6346    0.9762    0.8233 C   0  0  0  0  0  0
   -1.6851    0.6799    1.5540 N   0  0  0  0  0  0
    0.4681    1.2320   -1.3200 N   0  0  0  0  0  0
    1.6606    1.7582   -0.6513 C   0  0  0  0  0  0
    2.5573    0.6153   -0.2504 C   0  0  0  0  0  0
    2.1869   -0.6853   -0.5333 C   0  0  0  0  0  0
    3.0123   -1.7370   -0.1647 C   0  0  0  0  0  0
    4.2097   -1.4832    0.4880 C   0  0  0  0  0  0
    4.5799   -0.1830    0.7708 C   0  0  0  0  0  0
    3.7568    0.8693    0.3974 C   0  0  0  0  0  0
    4.1216    2.1495    0.6754 O   0  0  0  0  0  0
    5.3815    2.0835    1.3465 C   0  0  0  0  0  0
    2.6475   -3.0172   -0.4428 O   0  0  0  0  0  0
    3.6887   -3.8605    0.0540 C   0  0  0  0  0  0
    0.4663    1.0429   -2.7727 C   0  0  0  0  0  0
   -6.1207   -0.6751    1.9786 N   0  0  0  0  0  0
   -5.1936   -0.5760   -2.7055 H   0  0  0  0  0  0
   -3.6001   -0.0922   -2.9272 H   0  0  0  0  0  0
   -1.8907    0.4631   -2.2850 H   0  0  0  0  0  0
    0.2790    1.2787    1.3134 H   0  0  0  0  0  0
    2.1970    2.4193   -1.3321 H   0  0  0  0  0  0
    1.3630    2.3154    0.2370 H   0  0  0  0  0  0
    1.2545   -0.8829   -1.0411 H   0  0  0  0  0  0
    4.8523   -2.3023    0.7753 H   0  0  0  0  0  0
    5.5120    0.0146    1.2792 H   0  0  0  0  0  0
    5.7162    3.0916    1.5909 H   0  0  0  0  0  0
    5.2749    1.5038    2.2634 H   0  0  0  0  0  0
    6.1144    1.6048    0.6971 H   0  0  0  0  0  0
    3.4394   -4.9023   -0.1470 H   0  0  0  0  0  0
    4.6269   -3.6093   -0.4408 H   0  0  0  0  0  0
    3.7940   -3.7129    1.1289 H   0  0  0  0  0  0
   -0.5267    0.7319   -3.0974 H   0  0  0  0  0  0
    0.7313    1.9804   -3.2615 H   0  0  0  0  0  0
    1.1928    0.2756   -3.0402 H   0  0  0  0  0  0
   -6.9612   -0.9506    1.5804 H   0  0  0  0  0  0
   -6.0389   -0.6114    2.9430 H   0  0  0  0  0  0
  1  2  1  0  0  0
  1  6  2  0  0  0
  2  3  2  0  0  0
  2 25  1  0  0  0
  3  4  1  0  0  0
  4  5  2  0  0  0
  4 11  1  0  0  0
  5  6  1  0  0  0
  5  8  1  0  0  0
  6  7  1  0  0  0
  7 26  1  0  0  0
  7 27  1  0  0  0
  8  9  2  0  0  0
  8 28  1  0  0  0
  9 10  1  0  0  0
  9 12  1  0  0  0
 10 11  2  0  0  0
 10 29  1  0  0  0
 12 13  1  0  0  0
 12 24  1  0  0  0
 13 14  1  0  0  0
 13 30  1  0  0  0
 13 31  1  0  0  0
 14 15  1  0  0  0
 14 19  2  0  0  0
 15 16  2  0  0  0
 15 32  1  0  0  0
 16 17  1  0  0  0
 16 22  1  0  0  0
 17 18  2  0  0  0
 17 33  1  0  0  0
 18 19  1  0  0  0
 18 34  1  0  0  0
 19 20  1  0  0  0
 20 21  1  0  0  0
 21 35  1  0  0  0
 21 36  1  0  0  0
 21 37  1  0  0  0
 22 23  1  0  0  0
 23 38  1  0  0  0
 23 39  1  0  0  0
 23 40  1  0  0  0
 24 41  1  0  0  0
 24 42  1  0  0  0
 24 43  1  0  0  0
 25 44  1  0  0  0
 25 45  1  0  0  0
M  END
>  <ACTIVITY>
7.24413

>  <set_rl>
1

>  <Min_dist>
999.9

>  <Avg_dist>
999.9

>  <PC_uM>
0.084

>  <TG_uM>
0.0063

>  <RL_uM>
0.057

$$$$
26-8
  Cerius2 12110214553D 1   1.00000                          
 
 53 56  0  0  0  0  0  0  0  0999 V2000
   -5.6964   -0.2837   -1.0865 N   0  0  0  0  0  0
   -6.2017   -0.1038    0.1304 C   0  0  0  0  0  0
   -5.4811    0.3285    1.1481 N   0  0  0  0  0  0
   -4.1797    0.6095    0.9906 C   0  0  0  0  0  0
   -3.5999    0.4316   -0.2895 C   0  0  0  0  0  0
   -4.4207   -0.0346   -1.3460 C   0  0  0  0  0  0
   -3.9062   -0.2250   -2.6097 N   0  0  0  0  0  0
   -2.2425    0.7203   -0.4732 C   0  0  0  0  0  0
   -1.5273    1.1673    0.6066 C   0  0  0  0  0  0
   -2.1551    1.3209    1.8370 C   0  0  0  0  0  0
   -3.4299    1.0480    2.0023 N   0  0  0  0  0  0
   -0.0629    1.4914    0.4605 C   0  0  0  0  0  0
    0.7064    0.2475    0.3755 N   0  0  0  0  0  0
    2.0938    0.2934    0.1886 C   0  0  0  0  0  0
    2.7401    1.5165    0.0839 C   0  0  0  0  0  0
    4.1124    1.5612   -0.1005 C   0  0  0  0  0  0
    4.8433    0.3798   -0.1808 C   0  0  0  0  0  0
    4.2000   -0.8421   -0.0769 C   0  0  0  0  0  0
    2.8267   -0.8892    0.1135 C   0  0  0  0  0  0
    2.1738   -2.1287    0.2189 N   0  0  0  0  0  0
    2.4206   -3.0800    1.1661 C   0  0  0  0  0  0
    1.5975   -4.1245    0.9390 C   0  0  0  0  0  0
    0.8142   -3.8078   -0.1885 C   0  0  0  0  0  0
    1.1833   -2.5789   -0.6053 C   0  0  0  0  0  0
    6.1913    0.4253   -0.3619 O   0  0  0  0  0  0
    6.6484   -0.9280   -0.4030 C   0  0  0  0  0  0
    4.7458    2.7606   -0.2036 O   0  0  0  0  0  0
    3.7410    3.7698   -0.0845 C   0  0  0  0  0  0
   -1.5870    0.5442   -1.8187 C   0  0  0  0  0  0
   -7.5393   -0.3810    0.3383 N   0  0  0  0  0  0
   -3.0295   -0.6248   -2.7212 H   0  0  0  0  0  0
   -4.4206    0.0409   -3.3879 H   0  0  0  0  0  0
   -1.5796    1.6738    2.6801 H   0  0  0  0  0  0
    0.0911    2.0764   -0.4462 H   0  0  0  0  0  0
    0.2701    2.0661    1.3247 H   0  0  0  0  0  0
    0.2549   -0.6079    0.4487 H   0  0  0  0  0  0
    2.1734    2.4338    0.1457 H   0  0  0  0  0  0
    4.7681   -1.7585   -0.1397 H   0  0  0  0  0  0
    3.1492   -3.0089    1.9601 H   0  0  0  0  0  0
    1.5484   -5.0365    1.5155 H   0  0  0  0  0  0
    0.0545   -4.4325   -0.6347 H   0  0  0  0  0  0
    0.7715   -2.0465   -1.4498 H   0  0  0  0  0  0
    7.7287   -0.9424   -0.5474 H   0  0  0  0  0  0
    6.4007   -1.4238    0.5356 H   0  0  0  0  0  0
    6.1645   -1.4501   -1.2284 H   0  0  0  0  0  0
    4.2035    4.7538   -0.1615 H   0  0  0  0  0  0
    3.0085    3.6492   -0.8827 H   0  0  0  0  0  0
    3.2447    3.6761    0.8814 H   0  0  0  0  0  0
   -1.3040   -0.5001   -1.9510 H   0  0  0  0  0  0
   -2.2856    0.8336   -2.6038 H   0  0  0  0  0  0
   -0.6975    1.1716   -1.8744 H   0  0  0  0  0  0
   -8.0883   -0.6996   -0.3952 H   0  0  0  0  0  0
   -7.9294   -0.2571    1.2177 H   0  0  0  0  0  0
  1  2  1  0  0  0
  1  6  2  0  0  0
  2  3  2  0  0  0
  2 30  1  0  0  0
  3  4  1  0  0  0
  4  5  2  0  0  0
  4 11  1  0  0  0
  5  6  1  0  0  0
  5  8  1  0  0  0
  6  7  1  0  0  0
  7 31  1  0  0  0
  7 32  1  0  0  0
  8  9  2  0  0  0
  8 29  1  0  0  0
  9 10  1  0  0  0
  9 12  1  0  0  0
 10 11  2  0  0  0
 10 33  1  0  0  0
 12 13  1  0  0  0
 12 34  1  0  0  0
 12 35  1  0  0  0
 13 14  1  0  0  0
 13 36  1  0  0  0
 14 15  1  0  0  0
 14 19  2  0  0  0
 15 16  2  0  0  0
 15 37  1  0  0  0
 16 17  1  0  0  0
 16 27  1  0  0  0
 17 18  2  0  0  0
 17 25  1  0  0  0
 18 19  1  0  0  0
 18 38  1  0  0  0
 19 20  1  0  0  0
 20 21  1  0  0  0
 20 24  1  0  0  0
 21 22  2  0  0  0
 21 39  1  0  0  0
 22 23  1  0  0  0
 22 40  1  0  0  0
 23 24  2  0  0  0
 23 41  1  0  0  0
 24 42  1  0  0  0
 25 26  1  0  0  0
 26 43  1  0  0  0
 26 44  1  0  0  0
 26 45  1  0  0  0
 27 28  1  0  0  0
 28 46  1  0  0  0
 28 47  1  0  0  0
 28 48  1  0  0  0
 29 49  1  0  0  0
 29 50  1  0  0  0
 29 51  1  0  0  0
 30 52  1  0  0  0
 30 53  1  0  0  0
M  END
>  <ACTIVITY>
5.45593

>  <set_rl>
1

>  <Min_dist>
999.9

>  <Avg_dist>
999.9

>  <PC_uM>
1.8

>  <TG_uM>
0.6

>  <RL_uM>
3.5

$$$$
28-5
  Cerius2 12110214553D 1   1.00000                          
 
 48 50  0  0  0  0  0  0  0  0999 V2000
   -5.6775   -0.0755    0.4760 N   0  0  0  0  0  0
   -5.5165   -1.2366   -0.1522 C   0  0  0  0  0  0
   -4.4060   -1.5583   -0.7887 N   0  0  0  0  0  0
   -3.3721   -0.7059   -0.8279 C   0  0  0  0  0  0
   -3.5004    0.5431   -0.1721 C   0  0  0  0  0  0
   -4.7150    0.8356    0.4961 C   0  0  0  0  0  0
   -4.8914    2.0358    1.1489 N   0  0  0  0  0  0
   -2.4310    1.4459   -0.2018 C   0  0  0  0  0  0
   -1.2946    1.0762   -0.8721 C   0  0  0  0  0  0
   -1.2313   -0.1642   -1.4956 C   0  0  0  0  0  0
   -2.2392   -1.0070   -1.4637 N   0  0  0  0  0  0
   -0.1158    2.0131   -0.9334 C   0  0  0  0  0  0
    0.7691    1.7599    0.2064 N   0  0  0  0  0  0
    1.8055    0.8240    0.0942 C   0  0  0  0  0  0
    3.0272    1.2033   -0.4447 C   0  0  0  0  0  0
    4.0533    0.2782   -0.5556 C   0  0  0  0  0  0
    3.8587   -1.0295   -0.1272 C   0  0  0  0  0  0
    2.6351   -1.4084    0.4122 C   0  0  0  0  0  0
    1.6119   -0.4805    0.5272 C   0  0  0  0  0  0
    2.4436   -2.6877    0.8317 O   0  0  0  0  0  0
    1.1059   -2.7635    1.3285 C   0  0  0  0  0  0
    4.8660   -1.9391   -0.2362 O   0  0  0  0  0  0
    5.6160   -1.8724    0.9783 C   0  0  0  0  0  0
    5.2500    0.6499   -1.0840 O   0  0  0  0  0  0
    5.1392    2.0332   -1.4250 C   0  0  0  0  0  0
    0.5861    2.4273    1.3629 C   0  0  0  0  0  0
    1.3736    2.2878    2.2748 O   0  0  0  0  0  0
   -6.5570   -2.1458   -0.1375 N   0  0  0  0  0  0
   -5.7283    2.2229    1.6023 H   0  0  0  0  0  0
   -4.1788    2.6939    1.1550 H   0  0  0  0  0  0
   -2.4997    2.4056    0.2888 H   0  0  0  0  0  0
   -0.3297   -0.4430   -2.0208 H   0  0  0  0  0  0
    0.4313    1.8484   -1.8617 H   0  0  0  0  0  0
   -0.4686    3.0438   -0.8976 H   0  0  0  0  0  0
    3.1782    2.2195   -0.7779 H   0  0  0  0  0  0
    0.6611   -0.7746    0.9467 H   0  0  0  0  0  0
    0.9050   -3.7762    1.6781 H   0  0  0  0  0  0
    0.9849   -2.0632    2.1549 H   0  0  0  0  0  0
    0.4073   -2.5091    0.5314 H   0  0  0  0  0  0
    6.4380   -2.5870    0.9374 H   0  0  0  0  0  0
    6.0154   -0.8660    1.1039 H   0  0  0  0  0  0
    4.9667   -2.1133    1.8200 H   0  0  0  0  0  0
    6.0797    2.3780   -1.8547 H   0  0  0  0  0  0
    4.3377    2.1652   -2.1518 H   0  0  0  0  0  0
    4.9157    2.6116   -0.5285 H   0  0  0  0  0  0
   -0.2618    3.0863    1.4777 H   0  0  0  0  0  0
   -7.3824   -1.9308    0.3244 H   0  0  0  0  0  0
   -6.4619   -2.9989   -0.5891 H   0  0  0  0  0  0
  1  2  1  0  0  0
  1  6  2  0  0  0
  2  3  2  0  0  0
  2 28  1  0  0  0
  3  4  1  0  0  0
  4  5  2  0  0  0
  4 11  1  0  0  0
  5  6  1  0  0  0
  5  8  1  0  0  0
  6  7  1  0  0  0
  7 29  1  0  0  0
  7 30  1  0  0  0
  8  9  2  0  0  0
  8 31  1  0  0  0
  9 10  1  0  0  0
  9 12  1  0  0  0
 10 11  2  0  0  0
 10 32  1  0  0  0
 12 13  1  0  0  0
 12 33  1  0  0  0
 12 34  1  0  0  0
 13 14  1  0  0  0
 13 26  1  0  0  0
 14 15  1  0  0  0
 14 19  2  0  0  0
 15 16  2  0  0  0
 15 35  1  0  0  0
 16 17  1  0  0  0
 16 24  1  0  0  0
 17 18  2  0  0  0
 17 22  1  0  0  0
 18 19  1  0  0  0
 18 20  1  0  0  0
 19 36  1  0  0  0
 20 21  1  0  0  0
 21 37  1  0  0  0
 21 38  1  0  0  0
 21 39  1  0  0  0
 22 23  1  0  0  0
 23 40  1  0  0  0
 23 41  1  0  0  0
 23 42  1  0  0  0
 24 25  1  0  0  0
 25 43  1  0  0  0
 25 44  1  0  0  0
 25 45  1  0  0  0
 26 27  2  0  0  0
 26 46  1  0  0  0
 28 47  1  0  0  0
 28 48  1  0  0  0
M  END
>  <ACTIVITY>
5.13077

>  <set_rl>
1

>  <Min_dist>
999.9

>  <Avg_dist>
999.9

>  <PC_uM>
18.5

>  <TG_uM>
1.1

>  <RL_uM>
7.4

$$$$
28-8
  Cerius2 12110214553D 1   1.00000                          
 
 37 39  0  0  0  0  0  0  0  0999 V2000
   -1.4267   -0.4049    0.4954 C   0  0  0  0  0  0
   -1.7300    0.7956    1.2717 C   0  0  0  0  0  0
   -2.8173    1.4821    0.9435 N   0  0  0  0  0  0
   -3.6016    1.0909   -0.0558 C   0  0  0  0  0  0
   -3.3727    0.0175   -0.7858 N   0  0  0  0  0  0
   -2.3077   -0.7625   -0.5568 C   0  0  0  0  0  0
   -2.0670   -1.8515   -1.2895 N   0  0  0  0  0  0
   -1.0247   -2.6146   -1.0645 C   0  0  0  0  0  0
   -0.1079   -2.3249   -0.0405 C   0  0  0  0  0  0
   -0.3114   -1.2009    0.7620 C   0  0  0  0  0  0
    1.0539   -3.2016    0.1879 C   0  0  0  0  0  0
    2.2668   -2.6666    0.4040 C   0  0  0  0  0  0
    2.4871   -1.2268    0.1817 C   0  0  0  0  0  0
    3.3439   -0.5106    1.0224 C   0  0  0  0  0  0
    3.5471    0.8358    0.8102 C   0  0  0  0  0  0
    2.9018    1.4812   -0.2367 C   0  0  0  0  0  0
    2.0495    0.7738   -1.0748 C   0  0  0  0  0  0
    1.8444   -0.5740   -0.8741 C   0  0  0  0  0  0
    3.1046    2.8090   -0.4415 O   0  0  0  0  0  0
    2.3157    3.1774   -1.5746 C   0  0  0  0  0  0
   -4.7186    1.8511   -0.3449 N   0  0  0  0  0  0
   -0.9167    1.1998    2.3074 N   0  0  0  0  0  0
   -0.8675   -3.4872   -1.6812 H   0  0  0  0  0  0
    0.3753   -0.9512    1.5573 H   0  0  0  0  0  0
    0.9304   -4.2745    0.1815 H   0  0  0  0  0  0
    3.0806   -3.2917    0.7407 H   0  0  0  0  0  0
    3.8456   -1.0115    1.8372 H   0  0  0  0  0  0
    4.2089    1.3900    1.4592 H   0  0  0  0  0  0
    1.5499    1.2801   -1.8876 H   0  0  0  0  0  0
    1.1817   -1.1233   -1.5265 H   0  0  0  0  0  0
    2.4467    4.2401   -1.7784 H   0  0  0  0  0  0
    2.6337    2.5992   -2.4422 H   0  0  0  0  0  0
    1.2651    2.9739   -1.3676 H   0  0  0  0  0  0
   -4.9123    2.6462    0.1759 H   0  0  0  0  0  0
   -5.3091    1.5897   -1.0687 H   0  0  0  0  0  0
   -1.1344    1.9996    2.8113 H   0  0  0  0  0  0
   -0.1262    0.6848    2.5327 H   0  0  0  0  0  0
  1  2  1  0  0  0
  1  6  2  0  0  0
  1 10  1  0  0  0
  2  3  2  0  0  0
  2 22  1  0  0  0
  3  4  1  0  0  0
  4  5  2  0  0  0
  4 21  1  0  0  0
  5  6  1  0  0  0
  6  7  1  0  0  0
  7  8  2  0  0  0
  8  9  1  0  0  0
  8 23  1  0  0  0
  9 10  2  0  0  0
  9 11  1  0  0  0
 10 24  1  0  0  0
 11 12  2  0  0  0
 11 25  1  0  0  0
 12 13  1  0  0  0
 12 26  1  0  0  0
 13 14  1  0  0  0
 13 18  2  0  0  0
 14 15  2  0  0  0
 14 27  1  0  0  0
 15 16  1  0  0  0
 15 28  1  0  0  0
 16 17  2  0  0  0
 16 19  1  0  0  0
 17 18  1  0  0  0
 17 29  1  0  0  0
 18 30  1  0  0  0
 19 20  1  0  0  0
 20 31  1  0  0  0
 20 32  1  0  0  0
 20 33  1  0  0  0
 21 34  1  0  0  0
 21 35  1  0  0  0
 22 36  1  0  0  0
 22 37  1  0  0  0
M  END
>  <ACTIVITY>
4.92812

>  <set_rl>
1

>  <Min_dist>
999.9

>  <Avg_dist>
999.9

>  <PC_uM>
5.3

>  <TG_uM>
1.5

>  <RL_uM>
11.8

$$$$
28-9
  Cerius2 12110214553D 1   1.00000                          
 
 47 49  0  0  0  0  0  0  0  0999 V2000
   -6.0099    1.1245    0.1809 N   0  0  0  0  0  0
   -6.4330   -0.1318    0.2881 C   0  0  0  0  0  0
   -5.6261   -1.1706    0.1806 N   0  0  0  0  0  0
   -4.3166   -0.9953   -0.0469 C   0  0  0  0  0  0
   -3.8227    0.3268   -0.1685 C   0  0  0  0  0  0
   -4.7340    1.4044   -0.0439 C   0  0  0  0  0  0
   -4.3054    2.7090   -0.1544 N   0  0  0  0  0  0
   -2.4580    0.5295   -0.4056 C   0  0  0  0  0  0
   -1.6519   -0.5734   -0.5107 C   0  0  0  0  0  0
   -2.1981   -1.8448   -0.3817 C   0  0  0  0  0  0
   -3.4802   -2.0278   -0.1591 N   0  0  0  0  0  0
   -0.1759   -0.4081   -0.7662 C   0  0  0  0  0  0
    0.5650   -0.3111    0.5689 C   0  0  0  0  0  0
    2.0410   -0.1458    0.3135 C   0  0  0  0  0  0
    2.5808    1.1202    0.1853 C   0  0  0  0  0  0
    3.9383    1.2766   -0.0503 C   0  0  0  0  0  0
    4.7565    0.1582   -0.1570 C   0  0  0  0  0  0
    4.2099   -1.1129   -0.0270 C   0  0  0  0  0  0
    2.8523   -1.2605    0.2137 C   0  0  0  0  0  0
    5.0063   -2.2104   -0.1310 O   0  0  0  0  0  0
    4.1633   -3.3507    0.0458 C   0  0  0  0  0  0
    6.0893    0.3075   -0.3885 O   0  0  0  0  0  0
    6.7235    0.3923    0.8892 C   0  0  0  0  0  0
    4.4683    2.5226   -0.1772 O   0  0  0  0  0  0
    3.3904    3.4478   -0.0211 C   0  0  0  0  0  0
   -7.7756   -0.3593    0.5227 N   0  0  0  0  0  0
   -4.9403    3.4371   -0.0669 H   0  0  0  0  0  0
   -3.3687    2.8994   -0.3196 H   0  0  0  0  0  0
   -2.0527    1.5257   -0.5033 H   0  0  0  0  0  0
   -1.5514   -2.7056   -0.4670 H   0  0  0  0  0  0
    0.1944   -1.2671   -1.3257 H   0  0  0  0  0  0
   -0.0065    0.5014   -1.3426 H   0  0  0  0  0  0
    0.1947    0.5479    1.1284 H   0  0  0  0  0  0
    0.3957   -1.2206    1.1454 H   0  0  0  0  0  0
    1.9443    1.9888    0.2683 H   0  0  0  0  0  0
    2.4269   -2.2480    0.3152 H   0  0  0  0  0  0
    4.7606   -4.2593   -0.0298 H   0  0  0  0  0  0
    3.6927   -3.3058    1.0279 H   0  0  0  0  0  0
    3.3936   -3.3566   -0.7260 H   0  0  0  0  0  0
    7.7983    0.5132    0.7539 H   0  0  0  0  0  0
    6.3275    1.2485    1.4353 H   0  0  0  0  0  0
    6.5286   -0.5200    1.4529 H   0  0  0  0  0  0
    3.7688    4.4656   -0.1155 H   0  0  0  0  0  0
    2.6410    3.2658   -0.7914 H   0  0  0  0  0  0
    2.9394    3.3175    0.9626 H   0  0  0  0  0  0
   -8.3870    0.3891    0.6056 H   0  0  0  0  0  0
   -8.1065   -1.2674    0.6045 H   0  0  0  0  0  0
  1  2  1  0  0  0
  1  6  2  0  0  0
  2  3  2  0  0  0
  2 26  1  0  0  0
  3  4  1  0  0  0
  4  5  2  0  0  0
  4 11  1  0  0  0
  5  6  1  0  0  0
  5  8  1  0  0  0
  6  7  1  0  0  0
  7 27  1  0  0  0
  7 28  1  0  0  0
  8  9  2  0  0  0
  8 29  1  0  0  0
  9 10  1  0  0  0
  9 12  1  0  0  0
 10 11  2  0  0  0
 10 30  1  0  0  0
 12 13  1  0  0  0
 12 31  1  0  0  0
 12 32  1  0  0  0
 13 14  1  0  0  0
 13 33  1  0  0  0
 13 34  1  0  0  0
 14 15  1  0  0  0
 14 19  2  0  0  0
 15 16  2  0  0  0
 15 35  1  0  0  0
 16 17  1  0  0  0
 16 24  1  0  0  0
 17 18  2  0  0  0
 17 22  1  0  0  0
 18 19  1  0  0  0
 18 20  1  0  0  0
 19 36  1  0  0  0
 20 21  1  0  0  0
 21 37  1  0  0  0
 21 38  1  0  0  0
 21 39  1  0  0  0
 22 23  1  0  0  0
 23 40  1  0  0  0
 23 41  1  0  0  0
 23 42  1  0  0  0
 24 25  1  0  0  0
 25 43  1  0  0  0
 25 44  1  0  0  0
 25 45  1  0  0  0
 26 46  1  0  0  0
 26 47  1  0  0  0
M  END
>  <ACTIVITY>
5.9431

>  <set_rl>
1

>  <Min_dist>
999.9

>  <Avg_dist>
999.9

>  <PC_uM>
5

>  <TG_uM>
0.2

>  <RL_uM>
1.14

$$$$
30-3
  Cerius2 12110214553D 1   1.00000                          
 
 45 48  0  0  0  0  0  0  0  0999 V2000
   -5.6147   -0.2417    0.0747 C   0  0  0  0  0  0
   -4.7917   -1.1461   -0.4225 N   0  0  0  0  0  0
   -3.4827   -0.8836   -0.5409 C   0  0  0  0  0  0
   -3.0064    0.3829   -0.1209 C   0  0  0  0  0  0
   -3.9343    1.3150    0.4051 C   0  0  0  0  0  0
   -5.2087    0.9578    0.4802 N   0  0  0  0  0  0
   -3.5232    2.5602    0.8273 N   0  0  0  0  0  0
   -1.6421    0.6747   -0.2359 C   0  0  0  0  0  0
   -0.8190   -0.2894   -0.7557 C   0  0  0  0  0  0
   -1.3482   -1.5126   -1.1497 C   0  0  0  0  0  0
   -2.6302   -1.7798   -1.0394 N   0  0  0  0  0  0
    0.6574   -0.0238   -0.9005 C   0  0  0  0  0  0
    1.3018   -0.1096    0.4168 N   0  0  0  0  0  0
    2.6789    0.0556    0.2035 C   0  0  0  0  0  0
    3.4059   -0.9135    0.8845 C   0  0  0  0  0  0
    4.7832   -0.9304    0.8196 C   0  0  0  0  0  0
    5.4547    0.0215    0.0658 C   0  0  0  0  0  0
    4.7360    0.9882   -0.6212 C   0  0  0  0  0  0
    3.3582    1.0068   -0.5546 C   0  0  0  0  0  0
    6.8132    0.0066    0.0012 O   0  0  0  0  0  0
    7.1986    1.0957   -0.8399 C   0  0  0  0  0  0
    2.4231   -1.8170    1.6024 C   0  0  0  0  0  0
    1.0815   -1.4870    0.9088 C   0  0  0  0  0  0
   -1.0949    2.0099    0.1988 C   0  0  0  0  0  0
   -6.9574   -0.5530    0.1730 N   0  0  0  0  0  0
   -2.8481    3.0438    0.3260 H   0  0  0  0  0  0
   -3.9088    2.9534    1.6258 H   0  0  0  0  0  0
   -0.6882   -2.2636   -1.5582 H   0  0  0  0  0  0
    1.0961   -0.7649   -1.5686 H   0  0  0  0  0  0
    0.8083    0.9732   -1.3145 H   0  0  0  0  0  0
    5.3395   -1.6847    1.3562 H   0  0  0  0  0  0
    5.2565    1.7290   -1.2100 H   0  0  0  0  0  0
    2.8039    1.7620   -1.0920 H   0  0  0  0  0  0
    8.2851    1.1244   -0.9221 H   0  0  0  0  0  0
    6.7627    0.9620   -1.8300 H   0  0  0  0  0  0
    6.8419    2.0313   -0.4092 H   0  0  0  0  0  0
    2.6851   -2.8650    1.4570 H   0  0  0  0  0  0
    2.3789   -1.5729    2.6639 H   0  0  0  0  0  0
    0.2593   -1.5153    1.6238 H   0  0  0  0  0  0
    0.8973   -2.1692    0.0789 H   0  0  0  0  0  0
   -1.2647    2.7455   -0.5875 H   0  0  0  0  0  0
   -1.5993    2.3298    1.1106 H   0  0  0  0  0  0
   -0.0252    1.9201    0.3876 H   0  0  0  0  0  0
   -7.5805    0.0961    0.5353 H   0  0  0  0  0  0
   -7.2768   -1.4206   -0.1204 H   0  0  0  0  0  0
  1  2  1  0  0  0
  1  6  2  0  0  0
  1 25  1  0  0  0
  2  3  2  0  0  0
  3  4  1  0  0  0
  3 11  1  0  0  0
  4  5  2  0  0  0
  4  8  1  0  0  0
  5  6  1  0  0  0
  5  7  1  0  0  0
  7 26  1  0  0  0
  7 27  1  0  0  0
  8  9  2  0  0  0
  8 24  1  0  0  0
  9 10  1  0  0  0
  9 12  1  0  0  0
 10 11  2  0  0  0
 10 28  1  0  0  0
 12 13  1  0  0  0
 12 29  1  0  0  0
 12 30  1  0  0  0
 13 14  1  0  0  0
 13 23  1  0  0  0
 14 15  1  0  0  0
 14 19  2  0  0  0
 15 16  2  0  0  0
 15 22  1  0  0  0
 16 17  1  0  0  0
 16 31  1  0  0  0
 17 18  2  0  0  0
 17 20  1  0  0  0
 18 19  1  0  0  0
 18 32  1  0  0  0
 19 33  1  0  0  0
 20 21  1  0  0  0
 21 34  1  0  0  0
 21 35  1  0  0  0
 21 36  1  0  0  0
 22 23  1  0  0  0
 22 37  1  0  0  0
 22 38  1  0  0  0
 23 39  1  0  0  0
 23 40  1  0  0  0
 24 41  1  0  0  0
 24 42  1  0  0  0
 24 43  1  0  0  0
 25 44  1  0  0  0
 25 45  1  0  0  0
M  END
>  <ACTIVITY>
6.76955

>  <set_rl>
1

>  <Min_dist>
999.9

>  <Avg_dist>
999.9

>  <PC_uM>
0.25

>  <TG_uM>
0.057

>  <RL_uM>
0.17

$$$$
30-4
  Cerius2 12110214553D 1   1.00000                          
 
 49 52  0  0  0  0  0  0  0  0999 V2000
   -6.0202   -0.2801    0.0183 C   0  0  0  0  0  0
   -5.2069   -1.0145   -0.7175 N   0  0  0  0  0  0
   -3.8936   -0.7488   -0.7526 C   0  0  0  0  0  0
   -3.4024    0.3352    0.0162 C   0  0  0  0  0  0
   -4.3205    1.0894    0.7873 C   0  0  0  0  0  0
   -5.6002    0.7449    0.7537 N   0  0  0  0  0  0
   -3.8947    2.1534    1.5519 N   0  0  0  0  0  0
   -2.0335    0.6272   -0.0072 C   0  0  0  0  0  0
   -1.2207   -0.1579   -0.7819 C   0  0  0  0  0  0
   -1.7645   -1.2071   -1.5133 C   0  0  0  0  0  0
   -3.0507   -1.4755   -1.4872 N   0  0  0  0  0  0
    0.2600    0.1160   -0.8411 C   0  0  0  0  0  0
    0.8903   -0.3266    0.4098 N   0  0  0  0  0  0
    2.2721   -0.1392    0.2534 C   0  0  0  0  0  0
    2.9746   -1.2677    0.6583 C   0  0  0  0  0  0
    4.3533   -1.2963    0.5977 C   0  0  0  0  0  0
    5.0512   -0.1965    0.1254 C   0  0  0  0  0  0
    4.3567    0.9362   -0.2878 C   0  0  0  0  0  0
    2.9751    0.9645   -0.2245 C   0  0  0  0  0  0
    5.0372    2.0170   -0.7547 O   0  0  0  0  0  0
    4.0614    3.0041   -1.0948 C   0  0  0  0  0  0
    6.4106   -0.2237    0.0663 O   0  0  0  0  0  0
    6.8196   -1.5035    0.5530 C   0  0  0  0  0  0
    1.9684   -2.3081    1.1090 C   0  0  0  0  0  0
    0.6399   -1.7801    0.5207 C   0  0  0  0  0  0
   -1.4706    1.7716    0.7956 C   0  0  0  0  0  0
   -7.3677   -0.5863    0.0200 N   0  0  0  0  0  0
   -4.4101    2.9750    1.5695 H   0  0  0  0  0  0
   -3.0796    2.0809    2.0727 H   0  0  0  0  0  0
   -1.1125   -1.8179   -2.1202 H   0  0  0  0  0  0
    0.6966   -0.4264   -1.6797 H   0  0  0  0  0  0
    0.4268    1.1850   -0.9735 H   0  0  0  0  0  0
    4.8889   -2.1773    0.9192 H   0  0  0  0  0  0
    2.4396    1.8453   -0.5467 H   0  0  0  0  0  0
    4.5623    3.8940   -1.4759 H   0  0  0  0  0  0
    3.3942    2.6069   -1.8598 H   0  0  0  0  0  0
    3.4834    3.2642   -0.2080 H   0  0  0  0  0  0
    7.9070   -1.5725    0.5245 H   0  0  0  0  0  0
    6.4743   -1.6292    1.5793 H   0  0  0  0  0  0
    6.3894   -2.2849   -0.0733 H   0  0  0  0  0  0
    2.2124   -3.2861    0.6940 H   0  0  0  0  0  0
    1.9186   -2.3510    2.1970 H   0  0  0  0  0  0
   -0.1895   -1.9789    1.1994 H   0  0  0  0  0  0
    0.4511   -2.2159   -0.4603 H   0  0  0  0  0  0
   -1.2994    1.4461    1.8217 H   0  0  0  0  0  0
   -0.5276    2.0953    0.3550 H   0  0  0  0  0  0
   -2.1776    2.6012    0.7908 H   0  0  0  0  0  0
   -7.9839   -0.0602    0.5533 H   0  0  0  0  0  0
   -7.6973   -1.3273   -0.5120 H   0  0  0  0  0  0
  1  2  1  0  0  0
  1  6  2  0  0  0
  1 27  1  0  0  0
  2  3  2  0  0  0
  3  4  1  0  0  0
  3 11  1  0  0  0
  4  5  2  0  0  0
  4  8  1  0  0  0
  5  6  1  0  0  0
  5  7  1  0  0  0
  7 28  1  0  0  0
  7 29  1  0  0  0
  8  9  2  0  0  0
  8 26  1  0  0  0
  9 10  1  0  0  0
  9 12  1  0  0  0
 10 11  2  0  0  0
 10 30  1  0  0  0
 12 13  1  0  0  0
 12 31  1  0  0  0
 12 32  1  0  0  0
 13 14  1  0  0  0
 13 25  1  0  0  0
 14 15  1  0  0  0
 14 19  2  0  0  0
 15 16  2  0  0  0
 15 24  1  0  0  0
 16 17  1  0  0  0
 16 33  1  0  0  0
 17 18  2  0  0  0
 17 22  1  0  0  0
 18 19  1  0  0  0
 18 20  1  0  0  0
 19 34  1  0  0  0
 20 21  1  0  0  0
 21 35  1  0  0  0
 21 36  1  0  0  0
 21 37  1  0  0  0
 22 23  1  0  0  0
 23 38  1  0  0  0
 23 39  1  0  0  0
 23 40  1  0  0  0
 24 25  1  0  0  0
 24 41  1  0  0  0
 24 42  1  0  0  0
 25 43  1  0  0  0
 25 44  1  0  0  0
 26 45  1  0  0  0
 26 46  1  0  0  0
 26 47  1  0  0  0
 27 48  1  0  0  0
 27 49  1  0  0  0
M  END
>  <ACTIVITY>
6.63827

>  <set_rl>
1

>  <Min_dist>
999.9

>  <Avg_dist>
999.9

>  <PC_uM>
0.41

>  <TG_uM>
0.049

>  <RL_uM>
0.23

$$$$
32-9
  Cerius2 12110214553D 1   1.00000                          
 
 48 50  0  0  0  0  0  0  0  0999 V2000
    2.6574   -0.1436   -0.1594 C   0  0  0  0  0  0
    3.0412   -1.3676    0.3977 C   0  0  0  0  0  0
    4.2598   -1.4863    0.9141 N   0  0  0  0  0  0
    5.0998   -0.4621    0.9024 C   0  0  0  0  0  0
    4.7613    0.7076    0.3814 N   0  0  0  0  0  0
    3.5603    0.8945   -0.1504 C   0  0  0  0  0  0
    3.2038    2.2368   -0.7338 C   0  0  0  0  0  0
    1.9551    2.0947   -1.6072 C   0  0  0  0  0  0
    0.9063    1.4206   -0.8291 N   0  0  0  0  0  0
    1.2852    0.0051   -0.7534 C   0  0  0  0  0  0
   -0.3222    1.4849   -1.6320 C   0  0  0  0  0  0
   -1.4444    0.8078   -0.8882 C   0  0  0  0  0  0
   -2.2423    1.5400   -0.0291 C   0  0  0  0  0  0
   -3.2757    0.9206    0.6575 C   0  0  0  0  0  0
   -3.5089   -0.4380    0.4806 C   0  0  0  0  0  0
   -2.7047   -1.1704   -0.3844 C   0  0  0  0  0  0
   -1.6767   -0.5425   -1.0713 C   0  0  0  0  0  0
   -2.9286   -2.5002   -0.5607 O   0  0  0  0  0  0
   -1.9519   -2.9632   -1.4953 C   0  0  0  0  0  0
   -4.5218   -1.0496    1.1530 O   0  0  0  0  0  0
   -5.6833   -0.9543    0.3259 C   0  0  0  0  0  0
   -4.0596    1.6416    1.5032 O   0  0  0  0  0  0
   -3.5760    2.9859    1.4696 C   0  0  0  0  0  0
    6.3619   -0.6180    1.4485 N   0  0  0  0  0  0
    2.1642   -2.4399    0.4113 N   0  0  0  0  0  0
    3.0052    2.9427    0.0726 H   0  0  0  0  0  0
    4.0326    2.6013   -1.3408 H   0  0  0  0  0  0
    1.6073    3.0821   -1.9105 H   0  0  0  0  0  0
    2.1928    1.5018   -2.4904 H   0  0  0  0  0  0
    1.2734   -0.4238   -1.7554 H   0  0  0  0  0  0
    0.5676   -0.5257   -0.1278 H   0  0  0  0  0  0
   -0.5835    2.5275   -1.8134 H   0  0  0  0  0  0
   -0.1607    0.9798   -2.5843 H   0  0  0  0  0  0
   -2.0604    2.5957    0.1079 H   0  0  0  0  0  0
   -1.0515   -1.1108   -1.7439 H   0  0  0  0  0  0
   -2.0923   -4.0301   -1.6691 H   0  0  0  0  0  0
   -2.0646   -2.4239   -2.4358 H   0  0  0  0  0  0
   -0.9536   -2.7888   -1.0939 H   0  0  0  0  0  0
   -6.5254   -1.4332    0.8256 H   0  0  0  0  0  0
   -5.9164    0.0952    0.1464 H   0  0  0  0  0  0
   -5.4940   -1.4523   -0.6250 H   0  0  0  0  0  0
   -4.1768    3.6049    2.1359 H   0  0  0  0  0  0
   -2.5358    3.0061    1.7945 H   0  0  0  0  0  0
   -3.6466    3.3721    0.4528 H   0  0  0  0  0  0
    6.6220   -1.4695    1.8334 H   0  0  0  0  0  0
    6.9864    0.1242    1.4462 H   0  0  0  0  0  0
    2.4381   -3.2855    0.7995 H   0  0  0  0  0  0
    1.2763   -2.3450    0.0325 H   0  0  0  0  0  0
  1  2  1  0  0  0
  1  6  2  0  0  0
  1 10  1  0  0  0
  2  3  2  0  0  0
  2 25  1  0  0  0
  3  4  1  0  0  0
  4  5  2  0  0  0
  4 24  1  0  0  0
  5  6  1  0  0  0
  6  7  1  0  0  0
  7  8  1  0  0  0
  7 26  1  0  0  0
  7 27  1  0  0  0
  8  9  1  0  0  0
  8 28  1  0  0  0
  8 29  1  0  0  0
  9 10  1  0  0  0
  9 11  1  0  0  0
 10 30  1  0  0  0
 10 31  1  0  0  0
 11 12  1  0  0  0
 11 32  1  0  0  0
 11 33  1  0  0  0
 12 13  1  0  0  0
 12 17  2  0  0  0
 13 14  2  0  0  0
 13 34  1  0  0  0
 14 15  1  0  0  0
 14 22  1  0  0  0
 15 16  2  0  0  0
 15 20  1  0  0  0
 16 17  1  0  0  0
 16 18  1  0  0  0
 17 35  1  0  0  0
 18 19  1  0  0  0
 19 36  1  0  0  0
 19 37  1  0  0  0
 19 38  1  0  0  0
 20 21  1  0  0  0
 21 39  1  0  0  0
 21 40  1  0  0  0
 21 41  1  0  0  0
 22 23  1  0  0  0
 23 42  1  0  0  0
 23 43  1  0  0  0
 23 44  1  0  0  0
 24 45  1  0  0  0
 24 46  1  0  0  0
 25 47  1  0  0  0
 25 48  1  0  0  0
M  END
>  <ACTIVITY>
5.65758

>  <set_rl>
1

>  <Min_dist>
999.9

>  <Avg_dist>
999.9

>  <PC_uM>
6.9

>  <TG_uM>
0.2

>  <RL_uM>
2.2

$$$$
34-2
  Cerius2 12110214553D 1   1.00000                          
 
 41 43  0  0  0  0  0  0  0  0999 V2000
   -4.9385    1.4190    0.0002 N   0  0  0  0  0  0
   -5.7345    0.3567   -0.0007 C   0  0  0  0  0  0
   -5.2683   -0.8804   -0.0009 N   0  0  0  0  0  0
   -3.9559   -1.1120   -0.0006 C   0  0  0  0  0  0
   -3.0778   -0.0135   -0.0001 C   0  0  0  0  0  0
   -3.6165    1.2829    0.0006 C   0  0  0  0  0  0
   -2.7910    2.3923    0.0015 N   0  0  0  0  0  0
   -1.7257   -0.5713    0.0001 C   0  0  0  0  0  0
   -1.8568   -1.9073   -0.0003 C   0  0  0  0  0  0
   -3.1875   -2.2435   -0.0007 N   0  0  0  0  0  0
   -3.5324   -3.1501   -0.0010 H   0  0  0  0  0  0
   -0.4338    0.2046    0.0002 C   0  0  0  0  0  0
    0.6960   -0.7281    0.0004 N   0  0  0  0  0  0
    2.0069   -0.2390    0.0005 C   0  0  0  0  0  0
    2.2371    1.1304    0.0004 C   0  0  0  0  0  0
    3.5314    1.6151    0.0001 C   0  0  0  0  0  0
    4.6019    0.7358   -0.0003 C   0  0  0  0  0  0
    4.3747   -0.6369   -0.0002 C   0  0  0  0  0  0
    3.0775   -1.1227    0.0064 C   0  0  0  0  0  0
    5.4251   -1.5007   -0.0014 O   0  0  0  0  0  0
    4.8751   -2.8196   -0.0010 C   0  0  0  0  0  0
    5.8758    1.2146   -0.0011 O   0  0  0  0  0  0
    5.7811    2.6405   -0.0015 C   0  0  0  0  0  0
   -7.1057    0.5518   -0.0009 N   0  0  0  0  0  0
   -3.1753    3.2829    0.0020 H   0  0  0  0  0  0
   -1.8275    2.2799    0.0017 H   0  0  0  0  0  0
   -1.0382   -2.6118   -0.0002 H   0  0  0  0  0  0
   -0.3868    0.8321   -0.8898 H   0  0  0  0  0  0
   -0.3870    0.8322    0.8901 H   0  0  0  0  0  0
    0.5352   -1.6847    0.0005 H   0  0  0  0  0  0
    1.4038    1.8175    0.0003 H   0  0  0  0  0  0
    3.7085    2.6805   -0.0004 H   0  0  0  0  0  0
    2.8992   -2.1879    0.0065 H   0  0  0  0  0  0
    5.6838   -3.5505   -0.0020 H   0  0  0  0  0  0
    4.2620   -2.9574    0.8896 H   0  0  0  0  0  0
    4.2601   -2.9572   -0.8903 H   0  0  0  0  0  0
    6.7824    3.0711   -0.0022 H   0  0  0  0  0  0
    5.2438    2.9687   -0.8913 H   0  0  0  0  0  0
    5.2448    2.9692    0.8887 H   0  0  0  0  0  0
   -7.4675    1.4518   -0.0005 H   0  0  0  0  0  0
   -7.7042   -0.2115   -0.0016 H   0  0  0  0  0  0
  1  2  1  0  0  0
  1  6  2  0  0  0
  2  3  2  0  0  0
  2 24  1  0  0  0
  3  4  1  0  0  0
  4  5  2  0  0  0
  4 10  1  0  0  0
  5  6  1  0  0  0
  5  8  1  0  0  0
  6  7  1  0  0  0
  7 25  1  0  0  0
  7 26  1  0  0  0
  8  9  2  0  0  0
  8 12  1  0  0  0
  9 10  1  0  0  0
  9 27  1  0  0  0
 10 11  1  0  0  0
 12 13  1  0  0  0
 12 28  1  0  0  0
 12 29  1  0  0  0
 13 14  1  0  0  0
 13 30  1  0  0  0
 14 15  1  0  0  0
 14 19  2  0  0  0
 15 16  2  0  0  0
 15 31  1  0  0  0
 16 17  1  0  0  0
 16 32  1  0  0  0
 17 18  2  0  0  0
 17 22  1  0  0  0
 18 19  1  0  0  0
 18 20  1  0  0  0
 19 33  1  0  0  0
 20 21  1  0  0  0
 21 34  1  0  0  0
 21 35  1  0  0  0
 21 36  1  0  0  0
 22 23  1  0  0  0
 23 37  1  0  0  0
 23 38  1  0  0  0
 23 39  1  0  0  0
 24 40  1  0  0  0
 24 41  1  0  0  0
M  END
>  <ACTIVITY>
3.93554

>  <set_rl>
1

>  <Min_dist>
999.9

>  <Avg_dist>
999.9

>  <PC_uM>
119

>  <TG_uM>
4.3

>  <RL_uM>
116

$$$$
34-7
  Cerius2 12110214553D 1   1.00000                          
 
 39 42  0  0  0  0  0  0  0  0999 V2000
   -4.8097    1.1212    0.0004 N   0  0  0  0  0  0
   -5.4382   -0.0480   -0.0005 C   0  0  0  0  0  0
   -4.7926   -1.2017   -0.0008 N   0  0  0  0  0  0
   -3.4604   -1.2348   -0.0008 C   0  0  0  0  0  0
   -2.7560   -0.0175   -0.0003 C   0  0  0  0  0  0
   -3.4823    1.1839    0.0005 C   0  0  0  0  0  0
   -2.8315    2.4042    0.0015 N   0  0  0  0  0  0
   -1.3359   -0.3673   -0.0003 C   0  0  0  0  0  0
   -1.2661   -1.7079   -0.0008 C   0  0  0  0  0  0
   -2.5317   -2.2389   -0.0010 N   0  0  0  0  0  0
   -2.7374   -3.1869   -0.0014 H   0  0  0  0  0  0
   -0.1742    0.5927   -0.0003 C   0  0  0  0  0  0
    1.0821   -0.1609   -0.0003 N   0  0  0  0  0  0
    2.3001    0.5155   -0.0004 C   0  0  0  0  0  0
    2.3304    1.8940   -0.0004 C   0  0  0  0  0  0
    3.5416    2.5788   -0.0005 C   0  0  0  0  0  0
    4.7277    1.9098   -0.0010 C   0  0  0  0  0  0
    4.7409    0.5048   -0.0010 C   0  0  0  0  0  0
    3.5143   -0.2041    0.0055 C   0  0  0  0  0  0
    3.5290   -1.6076    0.0064 C   0  0  0  0  0  0
    4.7191   -2.2691    0.0011 C   0  0  0  0  0  0
    5.9262   -1.5730   -0.0048 C   0  0  0  0  0  0
    5.9501   -0.2122   -0.0011 C   0  0  0  0  0  0
   -6.8232   -0.0598   -0.0005 N   0  0  0  0  0  0
   -3.3445    3.2274    0.0020 H   0  0  0  0  0  0
   -1.8620    2.4368    0.0016 H   0  0  0  0  0  0
   -0.3515   -2.2823   -0.0009 H   0  0  0  0  0  0
   -0.2215    1.2203   -0.8903 H   0  0  0  0  0  0
   -0.2215    1.2203    0.8897 H   0  0  0  0  0  0
    1.0659   -1.1307   -0.0003 H   0  0  0  0  0  0
    1.4036    2.4484   -0.0007 H   0  0  0  0  0  0
    3.5411    3.6588   -0.0005 H   0  0  0  0  0  0
    5.6578    2.4589   -0.0018 H   0  0  0  0  0  0
    2.6011   -2.1601    0.0116 H   0  0  0  0  0  0
    4.7276   -3.3491    0.0018 H   0  0  0  0  0  0
    6.8566   -2.1214   -0.0086 H   0  0  0  0  0  0
    6.8932    0.3141   -0.0061 H   0  0  0  0  0  0
   -7.3153    0.7762    0.0000 H   0  0  0  0  0  0
   -7.3011   -0.9039   -0.0012 H   0  0  0  0  0  0
  1  2  1  0  0  0
  1  6  2  0  0  0
  2  3  2  0  0  0
  2 24  1  0  0  0
  3  4  1  0  0  0
  4  5  2  0  0  0
  4 10  1  0  0  0
  5  6  1  0  0  0
  5  8  1  0  0  0
  6  7  1  0  0  0
  7 25  1  0  0  0
  7 26  1  0  0  0
  8  9  2  0  0  0
  8 12  1  0  0  0
  9 10  1  0  0  0
  9 27  1  0  0  0
 10 11  1  0  0  0
 12 13  1  0  0  0
 12 28  1  0  0  0
 12 29  1  0  0  0
 13 14  1  0  0  0
 13 30  1  0  0  0
 14 15  1  0  0  0
 14 19  2  0  0  0
 15 16  2  0  0  0
 15 31  1  0  0  0
 16 17  1  0  0  0
 16 32  1  0  0  0
 17 18  2  0  0  0
 17 33  1  0  0  0
 18 19  1  0  0  0
 18 23  1  0  0  0
 19 20  1  0  0  0
 20 21  2  0  0  0
 20 34  1  0  0  0
 21 22  1  0  0  0
 21 35  1  0  0  0
 22 23  2  0  0  0
 22 36  1  0  0  0
 23 37  1  0  0  0
 24 38  1  0  0  0
 24 39  1  0  0  0
M  END
>  <ACTIVITY>
4.22695

>  <set_rl>
1

>  <Min_dist>
999.9

>  <Avg_dist>
999.9

>  <PC_uM>
307

>  <TG_uM>
1.1

>  <RL_uM>
59.3

$$$$
38-12
  Cerius2 12110214553D 1   1.00000                          
 
 41 44  0  0  0  0  0  0  0  0999 V2000
   -4.8634   -0.3112   -0.9602 N   0  0  0  0  0  0
   -5.1889   -0.9293    0.1680 C   0  0  0  0  0  0
   -4.3612   -1.0156    1.1962 N   0  0  0  0  0  0
   -3.1465   -0.4755    1.1377 C   0  0  0  0  0  0
   -2.7632    0.1879   -0.0394 C   0  0  0  0  0  0
   -3.6704    0.2571   -1.1066 C   0  0  0  0  0  0
   -3.3321    0.9006   -2.2830 N   0  0  0  0  0  0
   -1.3991    0.6646    0.2016 C   0  0  0  0  0  0
   -1.0821    0.2712    1.4430 C   0  0  0  0  0  0
   -2.1124   -0.3998    1.9920 O   0  0  0  0  0  0
   -0.5282    1.4397   -0.7534 C   0  0  0  0  0  0
    0.7630    1.7188   -0.1200 N   0  0  0  0  0  0
    1.8182    0.8152   -0.2582 C   0  0  0  0  0  0
    3.0296    1.0846    0.3404 C   0  0  0  0  0  0
    4.0883    0.1733    0.1995 C   0  0  0  0  0  0
    3.8933   -1.0099   -0.5569 C   0  0  0  0  0  0
    2.6444   -1.2532   -1.1541 C   0  0  0  0  0  0
    1.6330   -0.3583   -0.9989 C   0  0  0  0  0  0
    4.9552   -1.9198   -0.6965 C   0  0  0  0  0  0
    6.1524   -1.6545   -0.1060 C   0  0  0  0  0  0
    6.3439   -0.4916    0.6380 C   0  0  0  0  0  0
    5.3393    0.4129    0.7948 C   0  0  0  0  0  0
    0.9469    2.9461    0.6586 C   0  0  0  0  0  0
   -6.4435   -1.5057    0.2732 N   0  0  0  0  0  0
   -3.9686    0.9415   -3.0138 H   0  0  0  0  0  0
   -2.4583    1.3111   -2.3774 H   0  0  0  0  0  0
   -0.1383    0.4638    1.9314 H   0  0  0  0  0  0
   -0.3697    0.8531   -1.6583 H   0  0  0  0  0  0
   -1.0174    2.3792   -1.0104 H   0  0  0  0  0  0
    3.1638    1.9901    0.9135 H   0  0  0  0  0  0
    2.4873   -2.1518   -1.7323 H   0  0  0  0  0  0
    0.6757   -0.5513   -1.4601 H   0  0  0  0  0  0
    4.8218   -2.8256   -1.2693 H   0  0  0  0  0  0
    6.9663   -2.3560   -0.2153 H   0  0  0  0  0  0
    7.3039   -0.3054    1.0966 H   0  0  0  0  0  0
    5.5020    1.3097    1.3741 H   0  0  0  0  0  0
    0.0211    3.5215    0.6539 H   0  0  0  0  0  0
    1.2100    2.6895    1.6847 H   0  0  0  0  0  0
    1.7464    3.5406    0.2163 H   0  0  0  0  0  0
   -7.0652   -1.4531   -0.4694 H   0  0  0  0  0  0
   -6.7007   -1.9621    1.0896 H   0  0  0  0  0  0
  1  2  1  0  0  0
  1  6  2  0  0  0
  2  3  2  0  0  0
  2 24  1  0  0  0
  3  4  1  0  0  0
  4  5  2  0  0  0
  4 10  1  0  0  0
  5  6  1  0  0  0
  5  8  1  0  0  0
  6  7  1  0  0  0
  7 25  1  0  0  0
  7 26  1  0  0  0
  8  9  2  0  0  0
  8 11  1  0  0  0
  9 10  1  0  0  0
  9 27  1  0  0  0
 11 12  1  0  0  0
 11 28  1  0  0  0
 11 29  1  0  0  0
 12 13  1  0  0  0
 12 23  1  0  0  0
 13 14  1  0  0  0
 13 18  2  0  0  0
 14 15  2  0  0  0
 14 30  1  0  0  0
 15 16  1  0  0  0
 15 22  1  0  0  0
 16 17  2  0  0  0
 16 19  1  0  0  0
 17 18  1  0  0  0
 17 31  1  0  0  0
 18 32  1  0  0  0
 19 20  2  0  0  0
 19 33  1  0  0  0
 20 21  1  0  0  0
 20 34  1  0  0  0
 21 22  2  0  0  0
 21 35  1  0  0  0
 22 36  1  0  0  0
 23 37  1  0  0  0
 23 38  1  0  0  0
 23 39  1  0  0  0
 24 40  1  0  0  0
 24 41  1  0  0  0
M  END
>  <ACTIVITY>
4.83565

>  <set_rl>
1

>  <Min_dist>
999.9

>  <Avg_dist>
999.9

>  <PC_uM>
14.8

>  <TG_uM>
23.6

>  <RL_uM>
14.6

$$$$
38-13
  Cerius2 12110214553D 1   1.00000                          
 
 32 34  0  0  0  0  0  0  0  0999 V2000
   -4.5608    1.5685    0.0008 N   0  0  0  0  0  0
   -5.3954    0.5368    0.0001 C   0  0  0  0  0  0
   -4.9756   -0.7176   -0.0007 N   0  0  0  0  0  0
   -3.6750   -0.9988   -0.0009 C   0  0  0  0  0  0
   -2.7585    0.0654   -0.0001 C   0  0  0  0  0  0
   -3.2446    1.3808    0.0008 C   0  0  0  0  0  0
   -2.3758    2.4568    0.0011 N   0  0  0  0  0  0
   -1.4316   -0.5555    0.0000 C   0  0  0  0  0  0
   -1.6410   -1.8793   -0.0007 C   0  0  0  0  0  0
   -2.9625   -2.1378   -0.0012 O   0  0  0  0  0  0
   -0.1005    0.1513   -0.0001 C   0  0  0  0  0  0
    0.9785   -0.8397    0.0001 N   0  0  0  0  0  0
    2.3117   -0.4209    0.0001 C   0  0  0  0  0  0
    3.3370   -1.3600    0.0002 C   0  0  0  0  0  0
    4.6542   -0.9427   -0.0003 C   0  0  0  0  0  0
    4.9534    0.4075   -0.0004 C   0  0  0  0  0  0
    3.9356    1.3448   -0.0001 C   0  0  0  0  0  0
    2.6154    0.9337   -0.0059 C   0  0  0  0  0  0
    4.3164    3.0385    0.0009 Cl  0  0  0  0  0  0
    2.9625   -3.0551    0.0015 Cl  0  0  0  0  0  0
   -6.7580    0.7828    0.0007 N   0  0  0  0  0  0
   -2.7248    3.3619    0.0017 H   0  0  0  0  0  0
   -1.4176    2.3065    0.0007 H   0  0  0  0  0  0
   -0.8637   -2.6290   -0.0011 H   0  0  0  0  0  0
   -0.0206    0.7754   -0.8901 H   0  0  0  0  0  0
   -0.0206    0.7756    0.8899 H   0  0  0  0  0  0
    0.7675   -1.7864    0.0002 H   0  0  0  0  0  0
    5.4509   -1.6718   -0.0002 H   0  0  0  0  0  0
    5.9838    0.7310   -0.0005 H   0  0  0  0  0  0
    1.8213    1.6657   -0.0060 H   0  0  0  0  0  0
   -7.0861    1.6957    0.0016 H   0  0  0  0  0  0
   -7.3846    0.0423    0.0002 H   0  0  0  0  0  0
  1  2  1  0  0  0
  1  6  2  0  0  0
  2  3  2  0  0  0
  2 21  1  0  0  0
  3  4  1  0  0  0
  4  5  2  0  0  0
  4 10  1  0  0  0
  5  6  1  0  0  0
  5  8  1  0  0  0
  6  7  1  0  0  0
  7 22  1  0  0  0
  7 23  1  0  0  0
  8  9  2  0  0  0
  8 11  1  0  0  0
  9 10  1  0  0  0
  9 24  1  0  0  0
 11 12  1  0  0  0
 11 25  1  0  0  0
 11 26  1  0  0  0
 12 13  1  0  0  0
 12 27  1  0  0  0
 13 14  1  0  0  0
 13 18  2  0  0  0
 14 15  2  0  0  0
 14 20  1  0  0  0
 15 16  1  0  0  0
 15 28  1  0  0  0
 16 17  2  0  0  0
 16 29  1  0  0  0
 17 18  1  0  0  0
 17 19  1  0  0  0
 18 30  1  0  0  0
 21 31  1  0  0  0
 21 32  1  0  0  0
M  END
>  <ACTIVITY>
4.14327

>  <set_rl>
1

>  <Min_dist>
999.9

>  <Avg_dist>
999.9

>  <PC_uM>
50.9

>  <TG_uM>
>47

>  <RL_uM>
71.9

$$$$
33-2
  Cerius2 12110214553D 1   1.00000                          
 
 52 54  0  0  0  0  0  0  0  0999 V2000
    6.1224   -2.2902    0.2364 N   0  0  0  0  0  0
    6.4548   -2.1187   -1.0368 C   0  0  0  0  0  0
    5.9591   -1.1400   -1.7758 N   0  0  0  0  0  0
    5.0910   -0.2727   -1.2609 C   0  0  0  0  0  0
    4.7133   -0.4197    0.0838 C   0  0  0  0  0  0
    5.2619   -1.4707    0.8328 C   0  0  0  0  0  0
    4.9160   -1.6507    2.1596 N   0  0  0  0  0  0
    3.7661    0.6659    0.3495 C   0  0  0  0  0  0
    3.6524    1.3486   -0.7983 C   0  0  0  0  0  0
    4.4334    0.7941   -1.7448 O   0  0  0  0  0  0
    3.0617    0.9559    1.6498 C   0  0  0  0  0  0
    2.2017    2.1308    1.4878 N   0  0  0  0  0  0
    0.8826    1.9755    1.0764 C   0  0  0  0  0  0
    0.0667    3.0930    0.9230 C   0  0  0  0  0  0
   -1.2392    2.9427    0.5160 C   0  0  0  0  0  0
   -1.7463    1.6660    0.2564 C   0  0  0  0  0  0
   -0.9244    0.5458    0.4114 C   0  0  0  0  0  0
    0.3823    0.7033    0.8132 C   0  0  0  0  0  0
   -3.1459    1.5012   -0.1796 C   0  0  0  0  0  0
   -3.8598    2.4764   -0.3136 O   0  0  0  0  0  0
   -3.6333    0.2698   -0.4295 N   0  0  0  0  0  0
   -5.0233    0.1061   -0.8625 C   0  0  0  0  0  0
   -5.0907    0.1632   -2.3669 C   0  0  0  0  0  0
   -4.1433   -0.2162   -3.0347 O   0  0  0  0  0  0
   -6.0928    0.5888   -2.9167 O   0  5  0  0  0  0
   -5.5522   -1.2457   -0.3792 C   0  0  0  0  0  0
   -5.4837   -1.3036    1.1482 C   0  0  0  0  0  0
   -6.0047   -2.6352    1.6242 C   0  0  0  0  0  0
   -6.0377   -2.8979    2.8717 O   0  0  0  0  0  0
   -6.4126   -3.4992    0.7796 O   0  5  0  0  0  0
    2.7316    3.4693    1.7594 C   0  0  0  0  0  0
    7.3556   -2.9978   -1.6139 N   0  0  0  0  0  0
    5.3026   -2.3816    2.6668 H   0  0  0  0  0  0
    4.2867   -1.0461    2.5831 H   0  0  0  0  0  0
    3.0259    2.2163   -0.9430 H   0  0  0  0  0  0
    2.4535    0.0967    1.9329 H   0  0  0  0  0  0
    3.8001    1.1505    2.4275 H   0  0  0  0  0  0
    0.4589    4.0790    1.1240 H   0  0  0  0  0  0
   -1.8718    3.8099    0.3975 H   0  0  0  0  0  0
   -1.3134   -0.4417    0.2120 H   0  0  0  0  0  0
    1.0178   -0.1617    0.9328 H   0  0  0  0  0  0
   -3.0638   -0.5081   -0.3226 H   0  0  0  0  0  0
   -5.6318    0.9062   -0.4409 H   0  0  0  0  0  0
   -6.5864   -1.3675   -0.7014 H   0  0  0  0  0  0
   -4.9437   -2.0457   -0.8008 H   0  0  0  0  0  0
   -4.4496   -1.1819    1.4704 H   0  0  0  0  0  0
   -6.0922   -0.5036    1.5698 H   0  0  0  0  0  0
    3.7741    3.3917    2.0679 H   0  0  0  0  0  0
    2.6640    4.0769    0.8570 H   0  0  0  0  0  0
    2.1508    3.9354    2.5555 H   0  0  0  0  0  0
    7.7307   -3.7220   -1.0888 H   0  0  0  0  0  0
    7.6114   -2.8895   -2.5433 H   0  0  0  0  0  0
  1  2  1  0  0  0
  1  6  2  0  0  0
  2  3  2  0  0  0
  2 32  1  0  0  0
  3  4  1  0  0  0
  4  5  2  0  0  0
  4 10  1  0  0  0
  5  6  1  0  0  0
  5  8  1  0  0  0
  6  7  1  0  0  0
  7 33  1  0  0  0
  7 34  1  0  0  0
  8  9  2  0  0  0
  8 11  1  0  0  0
  9 10  1  0  0  0
  9 35  1  0  0  0
 11 12  1  0  0  0
 11 36  1  0  0  0
 11 37  1  0  0  0
 12 13  1  0  0  0
 12 31  1  0  0  0
 13 14  1  0  0  0
 13 18  2  0  0  0
 14 15  2  0  0  0
 14 38  1  0  0  0
 15 16  1  0  0  0
 15 39  1  0  0  0
 16 17  2  0  0  0
 16 19  1  0  0  0
 17 18  1  0  0  0
 17 40  1  0  0  0
 18 41  1  0  0  0
 19 20  2  0  0  0
 19 21  1  0  0  0
 21 22  1  0  0  0
 21 42  1  0  0  0
 22 23  1  0  0  0
 22 26  1  0  0  0
 22 43  1  0  0  0
 23 24  2  0  0  0
 23 25  1  0  0  0
 26 27  1  0  0  0
 26 44  1  0  0  0
 26 45  1  0  0  0
 27 28  1  0  0  0
 27 46  1  0  0  0
 27 47  1  0  0  0
 28 29  2  0  0  0
 28 30  1  0  0  0
 31 48  1  0  0  0
 31 49  1  0  0  0
 31 50  1  0  0  0
 32 51  1  0  0  0
 32 52  1  0  0  0
M  CHG  2  25  -1  30  -1
M  END
>  <ACTIVITY>
6.36653

>  <set_rl>
1

>  <Min_dist>
999.9

>  <Avg_dist>
999.9

>  <PC_uM>
0.035

>  <TG_uM>
19.8

>  <RL_uM>
0.43

$$$$
34-9
  Cerius2 12110214553D 1   1.00000                          
 
 50 52  0  0  0  0  0  0  0  0999 V2000
   -6.7616   -1.9987    0.9020 N   0  0  0  0  0  0
   -7.8537   -1.3522    0.5126 C   0  0  0  0  0  0
   -7.8065   -0.1744   -0.0859 N   0  0  0  0  0  0
   -6.6380    0.4199   -0.3252 C   0  0  0  0  0  0
   -5.4567   -0.2317    0.0721 C   0  0  0  0  0  0
   -5.5536   -1.4815    0.7042 C   0  0  0  0  0  0
   -4.4186   -2.1584    1.1114 N   0  0  0  0  0  0
   -4.3545    0.6478   -0.3164 C   0  0  0  0  0  0
   -4.9043    1.7262   -0.8970 C   0  0  0  0  0  0
   -6.2711    1.6015   -0.9082 N   0  0  0  0  0  0
   -6.8864    2.2552   -1.2756 H   0  0  0  0  0  0
   -2.8844    0.3927   -0.1051 C   0  0  0  0  0  0
   -2.1121    1.5181   -0.6374 N   0  0  0  0  0  0
   -0.7240    1.5089   -0.5563 C   0  0  0  0  0  0
    0.0085    2.5791   -1.0625 C   0  0  0  0  0  0
    1.3823    2.5730   -0.9837 C   0  0  0  0  0  0
    2.0424    1.4907   -0.3945 C   0  0  0  0  0  0
    1.3040    0.4176    0.1129 C   0  0  0  0  0  0
   -0.0699    0.4322    0.0362 C   0  0  0  0  0  0
    3.5150    1.4807   -0.3089 C   0  0  0  0  0  0
    4.1561    2.4146   -0.7510 O   0  0  0  0  0  0
    4.1500    0.4365    0.2594 N   0  0  0  0  0  0
    5.6125    0.4266    0.3445 C   0  0  0  0  0  0
    6.0448    1.0690    1.6374 C   0  0  0  0  0  0
    5.3269    1.0029    2.6211 O   0  0  0  0  0  0
    7.1126    1.6550    1.7000 O   0  5  0  0  0  0
    6.1162   -1.0173    0.2990 C   0  0  0  0  0  0
    5.6773   -1.6695   -1.0136 C   0  0  0  0  0  0
    6.1735   -3.0918   -1.0584 C   0  0  0  0  0  0
    5.9188   -3.8243   -2.0707 O   0  0  0  0  0  0
    6.8481   -3.5627   -0.0840 O   0  5  0  0  0  0
   -9.0895   -1.9340    0.7418 N   0  0  0  0  0  0
   -4.4987   -3.0214    1.5472 H   0  0  0  0  0  0
   -3.5424   -1.7704    0.9614 H   0  0  0  0  0  0
   -4.3539    2.5657   -1.2953 H   0  0  0  0  0  0
   -2.6836    0.2862    0.9609 H   0  0  0  0  0  0
   -2.5964   -0.5225   -0.6224 H   0  0  0  0  0  0
   -2.5690    2.2696   -1.0464 H   0  0  0  0  0  0
   -0.5020    3.4149   -1.5179 H   0  0  0  0  0  0
    1.9500    3.4034   -1.3770 H   0  0  0  0  0  0
    1.8111   -0.4202    0.5683 H   0  0  0  0  0  0
   -0.6410   -0.3964    0.4283 H   0  0  0  0  0  0
    3.6386   -0.3085    0.6121 H   0  0  0  0  0  0
    6.0290    0.9834   -0.4949 H   0  0  0  0  0  0
    7.2044   -1.0247    0.3623 H   0  0  0  0  0  0
    5.6997   -1.5741    1.1384 H   0  0  0  0  0  0
    4.5892   -1.6621   -1.0769 H   0  0  0  0  0  0
    6.0938   -1.1127   -1.8530 H   0  0  0  0  0  0
   -9.1453   -2.7979    1.1794 H   0  0  0  0  0  0
   -9.8993   -1.4775    0.4648 H   0  0  0  0  0  0
  1  2  1  0  0  0
  1  6  2  0  0  0
  2  3  2  0  0  0
  2 32  1  0  0  0
  3  4  1  0  0  0
  4  5  2  0  0  0
  4 10  1  0  0  0
  5  6  1  0  0  0
  5  8  1  0  0  0
  6  7  1  0  0  0
  7 33  1  0  0  0
  7 34  1  0  0  0
  8  9  2  0  0  0
  8 12  1  0  0  0
  9 10  1  0  0  0
  9 35  1  0  0  0
 10 11  1  0  0  0
 12 13  1  0  0  0
 12 36  1  0  0  0
 12 37  1  0  0  0
 13 14  1  0  0  0
 13 38  1  0  0  0
 14 15  1  0  0  0
 14 19  2  0  0  0
 15 16  2  0  0  0
 15 39  1  0  0  0
 16 17  1  0  0  0
 16 40  1  0  0  0
 17 18  2  0  0  0
 17 20  1  0  0  0
 18 19  1  0  0  0
 18 41  1  0  0  0
 19 42  1  0  0  0
 20 21  2  0  0  0
 20 22  1  0  0  0
 22 23  1  0  0  0
 22 43  1  0  0  0
 23 24  1  0  0  0
 23 27  1  0  0  0
 23 44  1  0  0  0
 24 25  2  0  0  0
 24 26  1  0  0  0
 27 28  1  0  0  0
 27 45  1  0  0  0
 27 46  1  0  0  0
 28 29  1  0  0  0
 28 47  1  0  0  0
 28 48  1  0  0  0
 29 30  2  0  0  0
 29 31  1  0  0  0
 32 49  1  0  0  0
 32 50  1  0  0  0
M  CHG  2  26  -1  31  -1
M  END
>  <ACTIVITY>
7.35655

>  <set_rl>
1

>  <Min_dist>
999.9

>  <Avg_dist>
999.9

>  <PC_uM>
0.038

>  <TG_uM>
0.21

>  <RL_uM>
0.044

$$$$
38-6
  Cerius2 12110214553D 1   1.00000                          
 
 38 41  0  0  0  0  0  0  0  0999 V2000
   -4.8147    1.1178    0.0010 N   0  0  0  0  0  0
   -5.4294   -0.0582    0.0000 C   0  0  0  0  0  0
   -4.7706   -1.2052   -0.0009 N   0  0  0  0  0  0
   -3.4401   -1.2244   -0.0010 C   0  0  0  0  0  0
   -2.7514   -0.0003    0.0000 C   0  0  0  0  0  0
   -3.4873    1.1934    0.0009 C   0  0  0  0  0  0
   -2.8478    2.4196    0.0014 N   0  0  0  0  0  0
   -1.3281   -0.3473    0.0001 C   0  0  0  0  0  0
   -1.2724   -1.6865   -0.0008 C   0  0  0  0  0  0
   -2.5170   -2.2005   -0.0014 O   0  0  0  0  0  0
   -0.1626    0.6080    0.0002 C   0  0  0  0  0  0
    1.0907   -0.1507    0.0003 N   0  0  0  0  0  0
    2.3115    0.5207    0.0004 C   0  0  0  0  0  0
    3.5230   -0.2040    0.0005 C   0  0  0  0  0  0
    4.7522    0.4998    0.0001 C   0  0  0  0  0  0
    4.7447    1.9054    0.0001 C   0  0  0  0  0  0
    3.5616    2.5790    0.0005 C   0  0  0  0  0  0
    2.3473    1.8987   -0.0053 C   0  0  0  0  0  0
    5.9585   -0.2218    0.0003 C   0  0  0  0  0  0
    5.9294   -1.5825    0.0007 C   0  0  0  0  0  0
    4.7196   -2.2738    0.0006 C   0  0  0  0  0  0
    3.5322   -1.6075    0.0014 C   0  0  0  0  0  0
   -6.8138   -0.0857    0.0006 N   0  0  0  0  0  0
   -3.3684    3.2381    0.0021 H   0  0  0  0  0  0
   -1.8787    2.4611    0.0011 H   0  0  0  0  0  0
   -0.3624   -2.2682   -0.0012 H   0  0  0  0  0  0
   -0.2072    1.2357   -0.8898 H   0  0  0  0  0  0
   -0.2074    1.2357    0.8902 H   0  0  0  0  0  0
    1.0706   -1.1205    0.0003 H   0  0  0  0  0  0
    5.6769    2.4507    0.0002 H   0  0  0  0  0  0
    3.5654    3.6590    0.0005 H   0  0  0  0  0  0
    1.4227    2.4568   -0.0052 H   0  0  0  0  0  0
    6.9036    0.3009   -0.0004 H   0  0  0  0  0  0
    6.8577   -2.1345    0.0009 H   0  0  0  0  0  0
    4.7238   -3.3538    0.0003 H   0  0  0  0  0  0
    2.6020   -2.1562    0.0021 H   0  0  0  0  0  0
   -7.3154    0.7445    0.0016 H   0  0  0  0  0  0
   -7.2821   -0.9352   -0.0001 H   0  0  0  0  0  0
  1  2  1  0  0  0
  1  6  2  0  0  0
  2  3  2  0  0  0
  2 23  1  0  0  0
  3  4  1  0  0  0
  4  5  2  0  0  0
  4 10  1  0  0  0
  5  6  1  0  0  0
  5  8  1  0  0  0
  6  7  1  0  0  0
  7 24  1  0  0  0
  7 25  1  0  0  0
  8  9  2  0  0  0
  8 11  1  0  0  0
  9 10  1  0  0  0
  9 26  1  0  0  0
 11 12  1  0  0  0
 11 27  1  0  0  0
 11 28  1  0  0  0
 12 13  1  0  0  0
 12 29  1  0  0  0
 13 14  1  0  0  0
 13 18  2  0  0  0
 14 15  2  0  0  0
 14 22  1  0  0  0
 15 16  1  0  0  0
 15 19  1  0  0  0
 16 17  2  0  0  0
 16 30  1  0  0  0
 17 18  1  0  0  0
 17 31  1  0  0  0
 18 32  1  0  0  0
 19 20  2  0  0  0
 19 33  1  0  0  0
 20 21  1  0  0  0
 20 34  1  0  0  0
 21 22  2  0  0  0
 21 35  1  0  0  0
 22 36  1  0  0  0
 23 37  1  0  0  0
 23 38  1  0  0  0
M  END
>  <ACTIVITY>
4.92082

>  <set_rl>
1

>  <Min_dist>
999.9

>  <Avg_dist>
999.9

>  <PC_uM>
13.5

>  <TG_uM>
37

>  <RL_uM>
12

$$$$
34-4
  Cerius2 12110214553D 1   1.00000                          
 
 41 43  0  0  0  0  0  0  0  0999 V2000
   -4.6192    1.5037    0.0008 N   0  0  0  0  0  0
   -5.4446    0.4640   -0.0001 C   0  0  0  0  0  0
   -5.0131   -0.7856   -0.0006 N   0  0  0  0  0  0
   -3.7077   -1.0537   -0.0007 C   0  0  0  0  0  0
   -2.7992    0.0198   -0.0002 C   0  0  0  0  0  0
   -3.3016    1.3308    0.0007 C   0  0  0  0  0  0
   -2.4454    2.4167    0.0016 N   0  0  0  0  0  0
   -1.4633   -0.5755   -0.0004 C   0  0  0  0  0  0
   -1.6316   -1.9073   -0.0010 C   0  0  0  0  0  0
   -2.9712   -2.2062   -0.0011 N   0  0  0  0  0  0
   -3.3412   -3.1029   -0.0015 H   0  0  0  0  0  0
   -0.1502    0.1641   -0.0006 C   0  0  0  0  0  0
    0.9531   -0.7998   -0.0008 N   0  0  0  0  0  0
    2.2774   -0.3473   -0.0009 C   0  0  0  0  0  0
    2.5469    1.0132   -0.0009 C   0  0  0  0  0  0
    3.8599    1.4584   -0.0005 C   0  0  0  0  0  0
    4.9032    0.5444   -0.0007 C   0  0  0  0  0  0
    4.6370   -0.8125   -0.0012 C   0  0  0  0  0  0
    3.3275   -1.2627    0.0047 C   0  0  0  0  0  0
    3.0665   -2.5983    0.0046 O   0  0  0  0  0  0
    4.3299   -3.2660   -0.0023 C   0  0  0  0  0  0
    4.1251    2.7920   -0.0005 O   0  0  0  0  0  0
    5.5474    2.9303   -0.0001 C   0  0  0  0  0  0
   -6.8098    0.6973    0.0000 N   0  0  0  0  0  0
   -2.8048    3.3177    0.0023 H   0  0  0  0  0  0
   -1.4855    2.2775    0.0016 H   0  0  0  0  0  0
   -0.8330   -2.6344   -0.0012 H   0  0  0  0  0  0
   -0.0859    0.7901   -0.8905 H   0  0  0  0  0  0
   -0.0857    0.7900    0.8894 H   0  0  0  0  0  0
    0.7657   -1.7515   -0.0008 H   0  0  0  0  0  0
    1.7347    1.7252   -0.0015 H   0  0  0  0  0  0
    5.9253    0.8931   -0.0008 H   0  0  0  0  0  0
    5.4513   -1.5219   -0.0017 H   0  0  0  0  0  0
    4.1710   -4.3443   -0.0026 H   0  0  0  0  0  0
    4.8869   -2.9805   -0.8947 H   0  0  0  0  0  0
    4.8956   -2.9823    0.8853 H   0  0  0  0  0  0
    5.8096    3.9883   -0.0001 H   0  0  0  0  0  0
    5.9585    2.4541    0.8900 H   0  0  0  0  0  0
    5.9590    2.4540   -0.8900 H   0  0  0  0  0  0
   -7.1464    1.6071    0.0007 H   0  0  0  0  0  0
   -7.4294   -0.0490   -0.0006 H   0  0  0  0  0  0
  1  2  1  0  0  0
  1  6  2  0  0  0
  2  3  2  0  0  0
  2 24  1  0  0  0
  3  4  1  0  0  0
  4  5  2  0  0  0
  4 10  1  0  0  0
  5  6  1  0  0  0
  5  8  1  0  0  0
  6  7  1  0  0  0
  7 25  1  0  0  0
  7 26  1  0  0  0
  8  9  2  0  0  0
  8 12  1  0  0  0
  9 10  1  0  0  0
  9 27  1  0  0  0
 10 11  1  0  0  0
 12 13  1  0  0  0
 12 28  1  0  0  0
 12 29  1  0  0  0
 13 14  1  0  0  0
 13 30  1  0  0  0
 14 15  1  0  0  0
 14 19  2  0  0  0
 15 16  2  0  0  0
 15 31  1  0  0  0
 16 17  1  0  0  0
 16 22  1  0  0  0
 17 18  2  0  0  0
 17 32  1  0  0  0
 18 19  1  0  0  0
 18 33  1  0  0  0
 19 20  1  0  0  0
 20 21  1  0  0  0
 21 34  1  0  0  0
 21 35  1  0  0  0
 21 36  1  0  0  0
 22 23  1  0  0  0
 23 37  1  0  0  0
 23 38  1  0  0  0
 23 39  1  0  0  0
 24 40  1  0  0  0
 24 41  1  0  0  0
M  END
>  <ACTIVITY>
3.80688

>  <set_rl>
1

>  <Min_dist>
999.9

>  <Avg_dist>
999.9

>  <PC_uM>
45.7

>  <TG_uM>
1.7

>  <RL_uM>
156

$$$$
34-6
  Cerius2 12110214553D 1   1.00000                          
 
 33 35  0  0  0  0  0  0  0  0999 V2000
   -4.8108   -1.6067   -0.0004 N   0  0  0  0  0  0
   -5.7510   -0.6697    0.0001 C   0  0  0  0  0  0
   -5.4673    0.6215    0.0001 N   0  0  0  0  0  0
   -4.2018    1.0390    0.0000 C   0  0  0  0  0  0
   -3.1750    0.0780   -0.0001 C   0  0  0  0  0  0
   -3.5221   -1.2823   -0.0005 C   0  0  0  0  0  0
   -2.5458   -2.2617   -0.0011 N   0  0  0  0  0  0
   -1.9170    0.8242   -0.0003 C   0  0  0  0  0  0
   -2.2386    2.1275   -0.0002 C   0  0  0  0  0  0
   -3.6038    2.2691   -0.0001 N   0  0  0  0  0  0
   -4.0752    3.1169    0.0000 H   0  0  0  0  0  0
   -0.5271    0.2418    0.0000 C   0  0  0  0  0  0
    0.4570    1.3270   -0.0002 N   0  0  0  0  0  0
    1.8228    1.0315    0.0000 C   0  0  0  0  0  0
    2.7571    2.0597   -0.0003 C   0  0  0  0  0  0
    4.1064    1.7656   -0.0001 C   0  0  0  0  0  0
    4.5289    0.4479   -0.0002 C   0  0  0  0  0  0
    3.6003   -0.5794    0.0001 C   0  0  0  0  0  0
    2.2485   -0.2902    0.0062 C   0  0  0  0  0  0
    4.1340   -2.2313    0.0000 Cl  0  0  0  0  0  0
    6.2259    0.0820   -0.0011 Cl  0  0  0  0  0  0
   -7.0801   -1.0597    0.0002 N   0  0  0  0  0  0
   -2.7983   -3.1983   -0.0014 H   0  0  0  0  0  0
   -1.6084   -2.0122   -0.0012 H   0  0  0  0  0  0
   -1.5296    2.9422   -0.0003 H   0  0  0  0  0  0
   -0.3907   -0.3723    0.8902 H   0  0  0  0  0  0
   -0.3905   -0.3728   -0.8897 H   0  0  0  0  0  0
    0.1606    2.2506   -0.0005 H   0  0  0  0  0  0
    2.4284    3.0884   -0.0009 H   0  0  0  0  0  0
    4.8327    2.5649   -0.0003 H   0  0  0  0  0  0
    1.5242   -1.0914    0.0064 H   0  0  0  0  0  0
   -7.3089   -2.0023   -0.0001 H   0  0  0  0  0  0
   -7.7819   -0.3902    0.0006 H   0  0  0  0  0  0
  1  2  1  0  0  0
  1  6  2  0  0  0
  2  3  2  0  0  0
  2 22  1  0  0  0
  3  4  1  0  0  0
  4  5  2  0  0  0
  4 10  1  0  0  0
  5  6  1  0  0  0
  5  8  1  0  0  0
  6  7  1  0  0  0
  7 23  1  0  0  0
  7 24  1  0  0  0
  8  9  2  0  0  0
  8 12  1  0  0  0
  9 10  1  0  0  0
  9 25  1  0  0  0
 10 11  1  0  0  0
 12 13  1  0  0  0
 12 26  1  0  0  0
 12 27  1  0  0  0
 13 14  1  0  0  0
 13 28  1  0  0  0
 14 15  1  0  0  0
 14 19  2  0  0  0
 15 16  2  0  0  0
 15 29  1  0  0  0
 16 17  1  0  0  0
 16 30  1  0  0  0
 17 18  2  0  0  0
 17 21  1  0  0  0
 18 19  1  0  0  0
 18 20  1  0  0  0
 19 31  1  0  0  0
 22 32  1  0  0  0
 22 33  1  0  0  0
M  END
>  <ACTIVITY>
4.84164

>  <set_rl>
1

>  <Min_dist>
999.9

>  <Avg_dist>
999.9

>  <PC_uM>
35.3

>  <TG_uM>
1.4

>  <RL_uM>
14.4

$$$$
35-4
  Cerius2 12110214553D 1   1.00000                          
 
 42 45  0  0  0  0  0  0  0  0999 V2000
   -4.4564    1.2168   -0.8889 N   0  0  0  0  0  0
   -5.2646    0.2168   -0.5592 C   0  0  0  0  0  0
   -4.8279   -0.8878    0.0214 N   0  0  0  0  0  0
   -3.5345   -1.0418    0.3027 C   0  0  0  0  0  0
   -2.6442   -0.0055   -0.0309 C   0  0  0  0  0  0
   -3.1516    1.1500   -0.6460 C   0  0  0  0  0  0
   -2.3131    2.1942   -0.9911 N   0  0  0  0  0  0
   -1.3179   -0.4543    0.3918 C   0  0  0  0  0  0
   -1.4740   -1.6745    0.9295 C   0  0  0  0  0  0
   -2.7968   -2.0373    0.8819 N   0  0  0  0  0  0
   -3.1558   -2.8763    1.2108 H   0  0  0  0  0  0
   -0.0247    0.3064    0.2504 C   0  0  0  0  0  0
    1.0773   -0.4949    0.7995 N   0  0  0  0  0  0
    2.2383    0.2585    0.6400 C   0  0  0  0  0  0
    2.3503    1.4979    1.2336 C   0  0  0  0  0  0
    3.5056    2.2582    1.0803 C   0  0  0  0  0  0
    4.5549    1.8019    0.3419 C   0  0  0  0  0  0
    4.4812    0.5439   -0.2796 C   0  0  0  0  0  0
    3.3128   -0.2425   -0.1259 C   0  0  0  0  0  0
    3.2410   -1.4993   -0.7466 C   0  0  0  0  0  0
    4.2925   -1.9464   -1.4871 C   0  0  0  0  0  0
    5.4424   -1.1740   -1.6386 C   0  0  0  0  0  0
    5.5490    0.0472   -1.0473 C   0  0  0  0  0  0
    0.8403   -0.6043    2.2451 C   0  0  0  0  0  0
   -6.6170    0.3351   -0.8336 N   0  0  0  0  0  0
   -2.6758    2.9874   -1.4157 H   0  0  0  0  0  0
   -1.3624    2.1335   -0.8086 H   0  0  0  0  0  0
   -0.6782   -2.2796    1.3381 H   0  0  0  0  0  0
    0.1639    0.5096   -0.8037 H   0  0  0  0  0  0
   -0.0956    1.2480    0.7949 H   0  0  0  0  0  0
    1.5321    1.8832    1.8239 H   0  0  0  0  0  0
    3.5710    3.2263    1.5545 H   0  0  0  0  0  0
    5.4430    2.4068    0.2338 H   0  0  0  0  0  0
    2.3562   -2.1089   -0.6371 H   0  0  0  0  0  0
    4.2347   -2.9139   -1.9636 H   0  0  0  0  0  0
    6.2628   -1.5517   -2.2309 H   0  0  0  0  0  0
    6.4461    0.6351   -1.1737 H   0  0  0  0  0  0
    1.6363   -1.1936    2.7002 H   0  0  0  0  0  0
    0.8273    0.3918    2.6875 H   0  0  0  0  0  0
   -0.1186   -1.0922    2.4202 H   0  0  0  0  0  0
   -6.9572    1.1378   -1.2589 H   0  0  0  0  0  0
   -7.2240   -0.3846   -0.6004 H   0  0  0  0  0  0
  1  2  1  0  0  0
  1  6  2  0  0  0
  2  3  2  0  0  0
  2 25  1  0  0  0
  3  4  1  0  0  0
  4  5  2  0  0  0
  4 10  1  0  0  0
  5  6  1  0  0  0
  5  8  1  0  0  0
  6  7  1  0  0  0
  7 26  1  0  0  0
  7 27  1  0  0  0
  8  9  2  0  0  0
  8 12  1  0  0  0
  9 10  1  0  0  0
  9 28  1  0  0  0
 10 11  1  0  0  0
 12 13  1  0  0  0
 12 29  1  0  0  0
 12 30  1  0  0  0
 13 14  1  0  0  0
 13 24  1  0  0  0
 14 15  1  0  0  0
 14 19  2  0  0  0
 15 16  2  0  0  0
 15 31  1  0  0  0
 16 17  1  0  0  0
 16 32  1  0  0  0
 17 18  2  0  0  0
 17 33  1  0  0  0
 18 19  1  0  0  0
 18 23  1  0  0  0
 19 20  1  0  0  0
 20 21  2  0  0  0
 20 34  1  0  0  0
 21 22  1  0  0  0
 21 35  1  0  0  0
 22 23  2  0  0  0
 22 36  1  0  0  0
 23 37  1  0  0  0
 24 38  1  0  0  0
 24 39  1  0  0  0
 24 40  1  0  0  0
 25 41  1  0  0  0
 25 42  1  0  0  0
M  END
>  <ACTIVITY>
5.08619

>  <set_rl>
1

>  <Min_dist>
999.9

>  <Avg_dist>
999.9

>  <PC_uM>
209

>  <TG_uM>
0.87

>  <RL_uM>
8.2

$$$$
35-5
  Cerius2 12110214553D 1   1.00000                          
 
 40 42  0  0  0  0  0  0  0  0999 V2000
   -4.3456   -1.0415   -1.4220 N   0  0  0  0  0  0
   -5.4229   -0.4529   -0.9171 C   0  0  0  0  0  0
   -5.3779    0.3008    0.1681 N   0  0  0  0  0  0
   -4.2267    0.5015    0.8087 C   0  0  0  0  0  0
   -3.0613   -0.1048    0.3064 C   0  0  0  0  0  0
   -3.1553   -0.8967   -0.8490 C   0  0  0  0  0  0
   -2.0355   -1.5117   -1.3784 N   0  0  0  0  0  0
   -1.9759    0.2907    1.2034 C   0  0  0  0  0  0
   -2.5192    1.0737    2.1488 C   0  0  0  0  0  0
   -3.8665    1.2075    1.9233 N   0  0  0  0  0  0
   -4.4738    1.7265    2.4736 H   0  0  0  0  0  0
   -0.5264   -0.1052    1.0887 C   0  0  0  0  0  0
    0.3546    1.1128    0.0734 S   0  0  0  0  0  0
    1.9756    0.4228    0.1055 C   0  0  0  0  0  0
    2.2166   -0.7526    0.8057 C   0  0  0  0  0  0
    3.4875   -1.2945    0.8320 C   0  0  0  0  0  0
    4.5239   -0.6672    0.1599 C   0  0  0  0  0  0
    4.2860    0.5101   -0.5429 C   0  0  0  0  0  0
    3.0113    1.0509   -0.5740 C   0  0  0  0  0  0
    5.3031    1.1264   -1.2023 O   0  0  0  0  0  0
    4.7504    2.2920   -1.8171 C   0  0  0  0  0  0
    5.7750   -1.2021    0.1873 O   0  0  0  0  0  0
    5.6989   -2.3901    0.9779 C   0  0  0  0  0  0
   -6.6405   -0.6349   -1.5516 N   0  0  0  0  0  0
   -2.1134   -2.0564   -2.1773 H   0  0  0  0  0  0
   -1.1722   -1.3983   -0.9509 H   0  0  0  0  0  0
   -1.9776    1.5299    2.9643 H   0  0  0  0  0  0
   -0.0798   -0.1411    2.0824 H   0  0  0  0  0  0
   -0.4539   -1.0877    0.6222 H   0  0  0  0  0  0
    1.4100   -1.2431    1.3302 H   0  0  0  0  0  0
    3.6731   -2.2080    1.3775 H   0  0  0  0  0  0
    2.8248    1.9643   -1.1192 H   0  0  0  0  0  0
    5.5328    2.8218   -2.3605 H   0  0  0  0  0  0
    3.9620    1.9981   -2.5100 H   0  0  0  0  0  0
    4.3349    2.9451   -1.0498 H   0  0  0  0  0  0
    6.6829   -2.8562    1.0289 H   0  0  0  0  0  0
    5.3645   -2.1364    1.9838 H   0  0  0  0  0  0
    4.9913   -3.0839    0.5239 H   0  0  0  0  0  0
   -6.6944   -1.1841   -2.3494 H   0  0  0  0  0  0
   -7.4394   -0.2133   -1.1982 H   0  0  0  0  0  0
  1  2  1  0  0  0
  1  6  2  0  0  0
  2  3  2  0  0  0
  2 24  1  0  0  0
  3  4  1  0  0  0
  4  5  2  0  0  0
  4 10  1  0  0  0
  5  6  1  0  0  0
  5  8  1  0  0  0
  6  7  1  0  0  0
  7 25  1  0  0  0
  7 26  1  0  0  0
  8  9  2  0  0  0
  8 12  1  0  0  0
  9 10  1  0  0  0
  9 27  1  0  0  0
 10 11  1  0  0  0
 12 13  1  0  0  0
 12 28  1  0  0  0
 12 29  1  0  0  0
 13 14  1  0  0  0
 14 15  1  0  0  0
 14 19  2  0  0  0
 15 16  2  0  0  0
 15 30  1  0  0  0
 16 17  1  0  0  0
 16 31  1  0  0  0
 17 18  2  0  0  0
 17 22  1  0  0  0
 18 19  1  0  0  0
 18 20  1  0  0  0
 19 32  1  0  0  0
 20 21  1  0  0  0
 21 33  1  0  0  0
 21 34  1  0  0  0
 21 35  1  0  0  0
 22 23  1  0  0  0
 23 36  1  0  0  0
 23 37  1  0  0  0
 23 38  1  0  0  0
 24 39  1  0  0  0
 24 40  1  0  0  0
M  END
>  <ACTIVITY>
4.77728

>  <set_rl>
1

>  <Min_dist>
999.9

>  <Avg_dist>
999.9

>  <PC_uM>
11.1

>  <TG_uM>
2.6

>  <RL_uM>
16.7

$$$$
35-6
  Cerius2 12110214553D 1   1.00000                          
 
 32 34  0  0  0  0  0  0  0  0999 V2000
   -4.4131   -1.6312   -0.7187 N   0  0  0  0  0  0
   -5.5106   -0.9597   -0.3924 C   0  0  0  0  0  0
   -5.4722    0.1965    0.2477 N   0  0  0  0  0  0
   -4.3072    0.7415    0.5965 C   0  0  0  0  0  0
   -3.1203    0.0617    0.2698 C   0  0  0  0  0  0
   -3.2081   -1.1632   -0.4107 C   0  0  0  0  0  0
   -2.0673   -1.8661   -0.7526 N   0  0  0  0  0  0
   -2.0239    0.8893    0.7719 C   0  0  0  0  0  0
   -2.5821    1.9676    1.3445 C   0  0  0  0  0  0
   -3.9489    1.8907    1.2459 N   0  0  0  0  0  0
   -4.5694    2.5538    1.5866 H   0  0  0  0  0  0
   -0.5509    0.5890    0.6671 C   0  0  0  0  0  0
    0.1020    1.2944   -0.8714 S   0  0  0  0  0  0
    1.7904    0.8081   -0.7386 C   0  0  0  0  0  0
    2.6939    1.1495   -1.7380 C   0  0  0  0  0  0
    4.0166    0.7677   -1.6315 C   0  0  0  0  0  0
    4.4435    0.0452   -0.5311 C   0  0  0  0  0  0
    3.5461   -0.2967    0.4667 C   0  0  0  0  0  0
    2.2221    0.0878    0.3680 C   0  0  0  0  0  0
    4.0857   -1.2031    1.8454 Cl  0  0  0  0  0  0
    6.1071   -0.4338   -0.4016 Cl  0  0  0  0  0  0
   -6.7430   -1.4902   -0.7360 N   0  0  0  0  0  0
   -2.1410   -2.7113   -1.2227 H   0  0  0  0  0  0
   -1.1933   -1.5139   -0.5222 H   0  0  0  0  0  0
   -2.0375    2.7744    1.8124 H   0  0  0  0  0  0
   -0.0293    1.0274    1.5179 H   0  0  0  0  0  0
   -0.3993   -0.4904    0.6649 H   0  0  0  0  0  0
    2.3615    1.7127   -2.5975 H   0  0  0  0  0  0
    4.7187    1.0330   -2.4081 H   0  0  0  0  0  0
    1.5223   -0.1786    1.1463 H   0  0  0  0  0  0
   -6.7924   -2.3372   -1.2061 H   0  0  0  0  0  0
   -7.5568   -1.0147   -0.5064 H   0  0  0  0  0  0
  1  2  1  0  0  0
  1  6  2  0  0  0
  2  3  2  0  0  0
  2 22  1  0  0  0
  3  4  1  0  0  0
  4  5  2  0  0  0
  4 10  1  0  0  0
  5  6  1  0  0  0
  5  8  1  0  0  0
  6  7  1  0  0  0
  7 23  1  0  0  0
  7 24  1  0  0  0
  8  9  2  0  0  0
  8 12  1  0  0  0
  9 10  1  0  0  0
  9 25  1  0  0  0
 10 11  1  0  0  0
 12 13  1  0  0  0
 12 26  1  0  0  0
 12 27  1  0  0  0
 13 14  1  0  0  0
 14 15  1  0  0  0
 14 19  2  0  0  0
 15 16  2  0  0  0
 15 28  1  0  0  0
 16 17  1  0  0  0
 16 29  1  0  0  0
 17 18  2  0  0  0
 17 21  1  0  0  0
 18 19  1  0  0  0
 18 20  1  0  0  0
 19 30  1  0  0  0
 22 31  1  0  0  0
 22 32  1  0  0  0
M  END
>  <ACTIVITY>
5.27572

>  <set_rl>
1

>  <Min_dist>
999.9

>  <Avg_dist>
999.9

>  <PC_uM>
58.5

>  <TG_uM>
11.6

>  <RL_uM>
5.3

$$$$
38-11
  Cerius2 12110214553D 1   1.00000                          
 
 42 45  0  0  0  0  0  0  0  0999 V2000
   -5.0232    0.9066    0.0414 N   0  0  0  0  0  0
   -5.4638   -0.3451    0.0492 C   0  0  0  0  0  0
   -4.6481   -1.3864    0.0446 N   0  0  0  0  0  0
   -3.3285   -1.2156    0.0319 C   0  0  0  0  0  0
   -2.8215    0.0942    0.0234 C   0  0  0  0  0  0
   -3.7202    1.1707    0.0286 C   0  0  0  0  0  0
   -3.2622    2.4756    0.0201 N   0  0  0  0  0  0
   -1.3633   -0.0462    0.0107 C   0  0  0  0  0  0
   -1.1171   -1.3637    0.0124 C   0  0  0  0  0  0
   -2.2756   -2.0500    0.0249 O   0  0  0  0  0  0
   -0.3461    1.0656   -0.0026 C   0  0  0  0  0  0
    1.0026    0.4935   -0.0127 N   0  0  0  0  0  0
    2.1161    1.3330   -0.0258 C   0  0  0  0  0  0
    1.9500    2.7109   -0.0293 C   0  0  0  0  0  0
    3.0542    3.5406   -0.0423 C   0  0  0  0  0  0
    4.3306    3.0051   -0.0519 C   0  0  0  0  0  0
    4.5113    1.6369   -0.0485 C   0  0  0  0  0  0
    3.4060    0.7896   -0.0296 C   0  0  0  0  0  0
    3.5948   -0.6814   -0.0259 C   0  0  0  0  0  0
    4.2961   -1.2940    1.0112 C   0  0  0  0  0  0
    4.4683   -2.6633    1.0096 C   0  0  0  0  0  0
    3.9464   -3.4275   -0.0185 C   0  0  0  0  0  0
    3.2500   -2.8248   -1.0506 C   0  0  0  0  0  0
    3.0667   -1.4570   -1.0565 C   0  0  0  0  0  0
   -6.8301   -0.5699    0.0630 N   0  0  0  0  0  0
   -3.8942    3.2114    0.0238 H   0  0  0  0  0  0
   -2.3090    2.6550    0.0104 H   0  0  0  0  0  0
   -0.1335   -1.8097    0.0046 H   0  0  0  0  0  0
   -0.4880    1.6773   -0.8935 H   0  0  0  0  0  0
   -0.4719    1.6837    0.8863 H   0  0  0  0  0  0
    1.1210   -0.4693   -0.0102 H   0  0  0  0  0  0
    0.9566    3.1347   -0.0222 H   0  0  0  0  0  0
    2.9211    4.6123   -0.0453 H   0  0  0  0  0  0
    5.1887    3.6608   -0.0623 H   0  0  0  0  0  0
    5.5090    1.2236   -0.0567 H   0  0  0  0  0  0
    4.7042   -0.6983    1.8142 H   0  0  0  0  0  0
    5.0118   -3.1391    1.8125 H   0  0  0  0  0  0
    4.0836   -4.4988   -0.0156 H   0  0  0  0  0  0
    2.8453   -3.4263   -1.8511 H   0  0  0  0  0  0
    2.5225   -0.9875   -1.8627 H   0  0  0  0  0  0
   -7.4450    0.1803    0.0668 H   0  0  0  0  0  0
   -7.1722   -1.4775    0.0688 H   0  0  0  0  0  0
  1  2  1  0  0  0
  1  6  2  0  0  0
  2  3  2  0  0  0
  2 25  1  0  0  0
  3  4  1  0  0  0
  4  5  2  0  0  0
  4 10  1  0  0  0
  5  6  1  0  0  0
  5  8  1  0  0  0
  6  7  1  0  0  0
  7 26  1  0  0  0
  7 27  1  0  0  0
  8  9  2  0  0  0
  8 11  1  0  0  0
  9 10  1  0  0  0
  9 28  1  0  0  0
 11 12  1  0  0  0
 11 29  1  0  0  0
 11 30  1  0  0  0
 12 13  1  0  0  0
 12 31  1  0  0  0
 13 14  1  0  0  0
 13 18  2  0  0  0
 14 15  2  0  0  0
 14 32  1  0  0  0
 15 16  1  0  0  0
 15 33  1  0  0  0
 16 17  2  0  0  0
 16 34  1  0  0  0
 17 18  1  0  0  0
 17 35  1  0  0  0
 18 19  1  0  0  0
 19 20  1  0  0  0
 19 24  2  0  0  0
 20 21  2  0  0  0
 20 36  1  0  0  0
 21 22  1  0  0  0
 21 37  1  0  0  0
 22 23  2  0  0  0
 22 38  1  0  0  0
 23 24  1  0  0  0
 23 39  1  0  0  0
 24 40  1  0  0  0
 25 41  1  0  0  0
 25 42  1  0  0  0
M  END
>  <ACTIVITY>
3.86328

>  <set_rl>
1

>  <Min_dist>
999.9

>  <Avg_dist>
999.9

>  <PC_uM>
7.7

>  <TG_uM>
45.4

>  <RL_uM>
137

$$$$
38-10
  Cerius2 12110214553D 1   1.00000                          
 
 43 46  0  0  0  0  0  0  0  0999 V2000
   -6.0121    1.2023    0.0682 N   0  0  0  0  0  0
   -6.7283    0.0853    0.0487 C   0  0  0  0  0  0
   -6.1735   -1.1147    0.0073 N   0  0  0  0  0  0
   -4.8501   -1.2509   -0.0167 C   0  0  0  0  0  0
   -4.0560   -0.0926    0.0028 C   0  0  0  0  0  0
   -4.6834    1.1607    0.0467 C   0  0  0  0  0  0
   -3.9381    2.3255    0.0667 N   0  0  0  0  0  0
   -2.6690   -0.5633   -0.0309 C   0  0  0  0  0  0
   -2.7319   -1.9017   -0.0664 C   0  0  0  0  0  0
   -4.0169   -2.3040   -0.0579 O   0  0  0  0  0  0
   -1.4238    0.2854   -0.0274 C   0  0  0  0  0  0
   -0.2426   -0.5803   -0.0685 N   0  0  0  0  0  0
    1.0380   -0.0166   -0.0730 C   0  0  0  0  0  0
    2.1579   -0.8369   -0.1120 C   0  0  0  0  0  0
    3.4215   -0.2799   -0.1169 C   0  0  0  0  0  0
    3.5724    1.0988   -0.0831 C   0  0  0  0  0  0
    2.4541    1.9189   -0.0437 C   0  0  0  0  0  0
    1.1897    1.3635   -0.0445 C   0  0  0  0  0  0
    4.8169    1.6466   -0.0880 O   0  0  0  0  0  0
    5.6995    0.6170   -0.0024 C   0  0  0  0  0  0
    6.2564    0.0813   -1.1550 C   0  0  0  0  0  0
    7.1537   -0.9651   -1.0651 C   0  0  0  0  0  0
    7.4972   -1.4787    0.1719 C   0  0  0  0  0  0
    6.9434   -0.9470    1.3219 C   0  0  0  0  0  0
    6.0499    0.1032    1.2381 C   0  0  0  0  0  0
   -8.1096    0.1796    0.0729 N   0  0  0  0  0  0
   -4.3842    3.1863    0.0971 H   0  0  0  0  0  0
   -2.9692    2.2817    0.0503 H   0  0  0  0  0  0
   -1.8771   -2.5610   -0.0975 H   0  0  0  0  0  0
   -1.4265    0.9381   -0.9004 H   0  0  0  0  0  0
   -1.3993    0.8908    0.8787 H   0  0  0  0  0  0
   -0.3484   -1.5442   -0.0925 H   0  0  0  0  0  0
    2.0406   -1.9102   -0.1380 H   0  0  0  0  0  0
    4.2926   -0.9177   -0.1469 H   0  0  0  0  0  0
    2.5723    2.9920   -0.0170 H   0  0  0  0  0  0
    0.3193    2.0020   -0.0142 H   0  0  0  0  0  0
    5.9882    0.4818   -2.1214 H   0  0  0  0  0  0
    7.5872   -1.3826   -1.9619 H   0  0  0  0  0  0
    8.1989   -2.2968    0.2399 H   0  0  0  0  0  0
    7.2128   -1.3504    2.2868 H   0  0  0  0  0  0
    5.6178    0.5183    2.1366 H   0  0  0  0  0  0
   -8.5358    1.0505    0.1036 H   0  0  0  0  0  0
   -8.6510   -0.6251    0.0592 H   0  0  0  0  0  0
  1  2  1  0  0  0
  1  6  2  0  0  0
  2  3  2  0  0  0
  2 26  1  0  0  0
  3  4  1  0  0  0
  4  5  2  0  0  0
  4 10  1  0  0  0
  5  6  1  0  0  0
  5  8  1  0  0  0
  6  7  1  0  0  0
  7 27  1  0  0  0
  7 28  1  0  0  0
  8  9  2  0  0  0
  8 11  1  0  0  0
  9 10  1  0  0  0
  9 29  1  0  0  0
 11 12  1  0  0  0
 11 30  1  0  0  0
 11 31  1  0  0  0
 12 13  1  0  0  0
 12 32  1  0  0  0
 13 14  1  0  0  0
 13 18  2  0  0  0
 14 15  2  0  0  0
 14 33  1  0  0  0
 15 16  1  0  0  0
 15 34  1  0  0  0
 16 17  2  0  0  0
 16 19  1  0  0  0
 17 18  1  0  0  0
 17 35  1  0  0  0
 18 36  1  0  0  0
 19 20  1  0  0  0
 20 21  1  0  0  0
 20 25  2  0  0  0
 21 22  2  0  0  0
 21 37  1  0  0  0
 22 23  1  0  0  0
 22 38  1  0  0  0
 23 24  2  0  0  0
 23 39  1  0  0  0
 24 25  1  0  0  0
 24 40  1  0  0  0
 25 41  1  0  0  0
 26 42  1  0  0  0
 26 43  1  0  0  0
M  END
>  <ACTIVITY>
4.79048

>  <set_rl>
1

>  <Min_dist>
999.9

>  <Avg_dist>
999.9

>  <PC_uM>
8.1

>  <TG_uM>
32.4

>  <RL_uM>
16.2

$$$$
40-4
  Cerius2 12110214553D 1   1.00000                          
 
 41 43  0  0  0  0  0  0  0  0999 V2000
   -4.4598    0.3106    0.9295 N   0  0  0  0  0  0
   -4.5799   -0.9959    0.7276 C   0  0  0  0  0  0
   -3.6346   -1.6852    0.1044 N   0  0  0  0  0  0
   -2.5466   -1.0801   -0.3314 C   0  0  0  0  0  0
   -2.3517    0.3062   -0.1523 C   0  0  0  0  0  0
   -3.4006    0.9899    0.5234 C   0  0  0  0  0  0
   -3.3136    2.3510    0.7522 N   0  0  0  0  0  0
   -1.1028    0.8216   -0.6881 C   0  0  0  0  0  0
   -0.2529   -0.0205   -1.2927 C   0  0  0  0  0  0
   -1.0807   -1.5959   -1.1858 S   0  0  0  0  0  0
    1.0839    0.2906   -1.9151 C   0  0  0  0  0  0
    2.1672    0.1442   -0.8778 C   0  0  0  0  0  0
    2.7932   -1.0744   -0.7000 C   0  0  0  0  0  0
    3.7904   -1.2090    0.2543 C   0  0  0  0  0  0
    4.1594   -0.1199    1.0302 C   0  0  0  0  0  0
    3.5337    1.0983    0.8524 C   0  0  0  0  0  0
    2.5398    1.2343   -0.1057 C   0  0  0  0  0  0
    1.9240    2.4339   -0.2811 O   0  0  0  0  0  0
    2.5110    3.3403    0.6548 C   0  0  0  0  0  0
    4.4063   -2.4086    0.4296 O   0  0  0  0  0  0
    5.3716   -2.2295    1.4679 C   0  0  0  0  0  0
   -0.7675    2.2857   -0.5658 C   0  0  0  0  0  0
   -5.7143   -1.6515    1.1771 N   0  0  0  0  0  0
   -4.1195    2.8705    0.8993 H   0  0  0  0  0  0
   -2.4468    2.7861    0.7657 H   0  0  0  0  0  0
    1.2718   -0.4006   -2.7367 H   0  0  0  0  0  0
    1.0793    1.3126   -2.2939 H   0  0  0  0  0  0
    2.5056   -1.9224   -1.3038 H   0  0  0  0  0  0
    4.9358   -0.2248    1.7736 H   0  0  0  0  0  0
    3.8207    1.9461    1.4568 H   0  0  0  0  0  0
    2.0467    4.3210    0.5511 H   0  0  0  0  0  0
    2.3539    2.9691    1.6675 H   0  0  0  0  0  0
    3.5803    3.4221    0.4596 H   0  0  0  0  0  0
    5.8935   -3.1699    1.6449 H   0  0  0  0  0  0
    6.0897   -1.4661    1.1687 H   0  0  0  0  0  0
    4.8677   -1.9159    2.3823 H   0  0  0  0  0  0
   -0.3283    2.4773    0.4132 H   0  0  0  0  0  0
   -0.0555    2.5616   -1.3437 H   0  0  0  0  0  0
   -1.6761    2.8772   -0.6785 H   0  0  0  0  0  0
   -6.4116   -1.1560    1.6345 H   0  0  0  0  0  0
   -5.8114   -2.6060    1.0344 H   0  0  0  0  0  0
  1  2  1  0  0  0
  1  6  2  0  0  0
  2  3  2  0  0  0
  2 23  1  0  0  0
  3  4  1  0  0  0
  4  5  2  0  0  0
  4 10  1  0  0  0
  5  6  1  0  0  0
  5  8  1  0  0  0
  6  7  1  0  0  0
  7 24  1  0  0  0
  7 25  1  0  0  0
  8  9  2  0  0  0
  8 22  1  0  0  0
  9 10  1  0  0  0
  9 11  1  0  0  0
 11 12  1  0  0  0
 11 26  1  0  0  0
 11 27  1  0  0  0
 12 13  1  0  0  0
 12 17  2  0  0  0
 13 14  2  0  0  0
 13 28  1  0  0  0
 14 15  1  0  0  0
 14 20  1  0  0  0
 15 16  2  0  0  0
 15 29  1  0  0  0
 16 17  1  0  0  0
 16 30  1  0  0  0
 17 18  1  0  0  0
 18 19  1  0  0  0
 19 31  1  0  0  0
 19 32  1  0  0  0
 19 33  1  0  0  0
 20 21  1  0  0  0
 21 34  1  0  0  0
 21 35  1  0  0  0
 21 36  1  0  0  0
 22 37  1  0  0  0
 22 38  1  0  0  0
 22 39  1  0  0  0
 23 40  1  0  0  0
 23 41  1  0  0  0
M  END
>  <ACTIVITY>
6.39794

>  <set_rl>
1

>  <Min_dist>
999.9

>  <Avg_dist>
999.9

>  <PC_uM>
14

>  <TG_uM>
0.07

>  <RL_uM>
0.4

$$$$
40-9
  Cerius2 12110214553D 1   1.00000                          
 
 41 43  0  0  0  0  0  0  0  0999 V2000
   -3.4191   -1.7706   -0.1287 N   0  0  0  0  0  0
   -4.5955   -1.2058    0.1148 C   0  0  0  0  0  0
   -4.7212    0.1108    0.2028 N   0  0  0  0  0  0
   -3.6697    0.8921    0.0491 C   0  0  0  0  0  0
   -2.3881    0.3612   -0.2115 C   0  0  0  0  0  0
   -2.3182   -1.0573   -0.2948 C   0  0  0  0  0  0
   -1.1112   -1.6838   -0.5461 N   0  0  0  0  0  0
   -1.3345    1.3519   -0.3556 C   0  0  0  0  0  0
   -1.6378    2.6522   -0.2363 C   0  0  0  0  0  0
   -3.3916    2.6432    0.0842 S   0  0  0  0  0  0
    0.0826    0.9223   -0.6355 C   0  0  0  0  0  0
    0.7897    0.6060    0.6839 C   0  0  0  0  0  0
    2.2068    0.1764    0.4040 C   0  0  0  0  0  0
    3.2170    1.1175    0.3551 C   0  0  0  0  0  0
    4.5211    0.7221    0.0980 C   0  0  0  0  0  0
    4.8112   -0.6184   -0.1102 C   0  0  0  0  0  0
    3.8013   -1.5591   -0.0613 C   0  0  0  0  0  0
    2.4976   -1.1642    0.2011 C   0  0  0  0  0  0
    1.5033   -2.0906    0.2496 O   0  0  0  0  0  0
    2.1083   -3.3597   -0.0063 C   0  0  0  0  0  0
    5.5154    1.6484    0.0495 O   0  0  0  0  0  0
    6.7254    0.9414   -0.2299 C   0  0  0  0  0  0
   -5.7130   -2.0075    0.2795 N   0  0  0  0  0  0
   -1.0978   -2.5802   -0.9164 H   0  0  0  0  0  0
   -0.2779   -1.2267   -0.3520 H   0  0  0  0  0  0
   -0.9769    3.5028   -0.3151 H   0  0  0  0  0  0
    0.0749    0.0331   -1.2659 H   0  0  0  0  0  0
    0.6115    1.7261   -1.1476 H   0  0  0  0  0  0
    0.7974    1.4953    1.3142 H   0  0  0  0  0  0
    0.2608   -0.1978    1.1960 H   0  0  0  0  0  0
    2.9911    2.1612    0.5168 H   0  0  0  0  0  0
    5.8268   -0.9262   -0.3107 H   0  0  0  0  0  0
    4.0271   -2.6027   -0.2238 H   0  0  0  0  0  0
    1.3458   -4.1381    0.0226 H   0  0  0  0  0  0
    2.5774   -3.3468   -0.9901 H   0  0  0  0  0  0
    2.8631   -3.5621    0.7536 H   0  0  0  0  0  0
    7.5552    1.6464   -0.2786 H   0  0  0  0  0  0
    6.9122    0.2143    0.5604 H   0  0  0  0  0  0
    6.6317    0.4240   -1.1848 H   0  0  0  0  0  0
   -5.6315   -2.9720    0.2166 H   0  0  0  0  0  0
   -6.5771   -1.6044    0.4578 H   0  0  0  0  0  0
  1  2  1  0  0  0
  1  6  2  0  0  0
  2  3  2  0  0  0
  2 23  1  0  0  0
  3  4  1  0  0  0
  4  5  2  0  0  0
  4 10  1  0  0  0
  5  6  1  0  0  0
  5  8  1  0  0  0
  6  7  1  0  0  0
  7 24  1  0  0  0
  7 25  1  0  0  0
  8  9  2  0  0  0
  8 11  1  0  0  0
  9 10  1  0  0  0
  9 26  1  0  0  0
 11 12  1  0  0  0
 11 27  1  0  0  0
 11 28  1  0  0  0
 12 13  1  0  0  0
 12 29  1  0  0  0
 12 30  1  0  0  0
 13 14  1  0  0  0
 13 18  2  0  0  0
 14 15  2  0  0  0
 14 31  1  0  0  0
 15 16  1  0  0  0
 15 21  1  0  0  0
 16 17  2  0  0  0
 16 32  1  0  0  0
 17 18  1  0  0  0
 17 33  1  0  0  0
 18 19  1  0  0  0
 19 20  1  0  0  0
 20 34  1  0  0  0
 20 35  1  0  0  0
 20 36  1  0  0  0
 21 22  1  0  0  0
 22 37  1  0  0  0
 22 38  1  0  0  0
 22 39  1  0  0  0
 23 40  1  0  0  0
 23 41  1  0  0  0
M  END
>  <ACTIVITY>
5.50864

>  <set_rl>
1

>  <Min_dist>
999.9

>  <Avg_dist>
999.9

>  <PC_uM>
28

>  <TG_uM>
5.8

>  <RL_uM>
3.1

$$$$
40-TABLE2-1
  Cerius2 12110214553D 1   1.00000                          
 
 30 32  0  0  0  0  0  0  0  0999 V2000
   -3.6590    0.7695    0.0927 N   0  0  0  0  0  0
   -3.8652   -0.5334   -0.0560 C   0  0  0  0  0  0
   -2.8529   -1.3840   -0.1545 N   0  0  0  0  0  0
   -1.6091   -0.9486   -0.1062 C   0  0  0  0  0  0
   -1.3140    0.4243    0.0505 C   0  0  0  0  0  0
   -2.4435    1.2864    0.1504 C   0  0  0  0  0  0
   -2.2707    2.6491    0.3065 N   0  0  0  0  0  0
    0.0990    0.7467    0.0857 C   0  0  0  0  0  0
    1.0035   -0.2551   -0.0300 C   0  0  0  0  0  0
   -0.0110   -1.7119   -0.1954 S   0  0  0  0  0  0
    2.4788   -0.1625   -0.0215 C   0  0  0  0  0  0
    3.2282   -0.9899    0.8164 C   0  0  0  0  0  0
    4.6048   -0.8984    0.8194 C   0  0  0  0  0  0
    5.2425    0.0109   -0.0057 C   0  0  0  0  0  0
    4.5055    0.8339   -0.8387 C   0  0  0  0  0  0
    3.1287    0.7486   -0.8557 C   0  0  0  0  0  0
    0.5546    2.1740    0.2479 C   0  0  0  0  0  0
   -5.1629   -1.0136   -0.1089 N   0  0  0  0  0  0
   -2.9783    3.2605    0.0487 H   0  0  0  0  0  0
   -1.4418    2.9939    0.6738 H   0  0  0  0  0  0
    2.7316   -1.6998    1.4612 H   0  0  0  0  0  0
    5.1858   -1.5377    1.4675 H   0  0  0  0  0  0
    6.3204    0.0788    0.0007 H   0  0  0  0  0  0
    5.0095    1.5418   -1.4801 H   0  0  0  0  0  0
    2.5546    1.3913   -1.5066 H   0  0  0  0  0  0
    0.5542    2.4375    1.3056 H   0  0  0  0  0  0
    1.5624    2.2816   -0.1530 H   0  0  0  0  0  0
   -0.1235    2.8354   -0.2915 H   0  0  0  0  0  0
   -5.9105   -0.3997   -0.0375 H   0  0  0  0  0  0
   -5.3243   -1.9639   -0.2174 H   0  0  0  0  0  0
  1  2  1  0  0  0
  1  6  2  0  0  0
  2  3  2  0  0  0
  2 18  1  0  0  0
  3  4  1  0  0  0
  4  5  2  0  0  0
  4 10  1  0  0  0
  5  6  1  0  0  0
  5  8  1  0  0  0
  6  7  1  0  0  0
  7 19  1  0  0  0
  7 20  1  0  0  0
  8  9  2  0  0  0
  8 17  1  0  0  0
  9 10  1  0  0  0
  9 11  1  0  0  0
 11 12  1  0  0  0
 11 16  2  0  0  0
 12 13  2  0  0  0
 12 21  1  0  0  0
 13 14  1  0  0  0
 13 22  1  0  0  0
 14 15  2  0  0  0
 14 23  1  0  0  0
 15 16  1  0  0  0
 15 24  1  0  0  0
 16 25  1  0  0  0
 17 26  1  0  0  0
 17 27  1  0  0  0
 17 28  1  0  0  0
 18 29  1  0  0  0
 18 30  1  0  0  0
M  END
>  <ACTIVITY>
4.24413

>  <set_rl>
1

>  <Min_dist>
999.9

>  <Avg_dist>
999.9

>  <PC_uM>
26

>  <TG_uM>
3.9

>  <RL_uM>
57

$$$$
16-10
  Cerius2 12110214553D 1   1.00000                          
 
 44 46  0  0  0  0  0  0  0  0999 V2000
   -5.3758   -1.7605    0.2298 N   0  0  0  0  0  0
   -6.3203   -0.8377    0.0937 C   0  0  0  0  0  0
   -6.0132    0.4389   -0.0882 N   0  0  0  0  0  0
   -4.7515    0.8201   -0.1375 C   0  0  0  0  0  0
   -3.6953   -0.1060   -0.0001 C   0  0  0  0  0  0
   -4.0888   -1.4596    0.1921 C   0  0  0  0  0  0
   -3.1352   -2.4503    0.3389 N   0  0  0  0  0  0
   -2.3635    0.4707   -0.0776 C   0  0  0  0  0  0
   -2.2319    1.7912   -0.2670 C   0  0  0  0  0  0
   -3.9162    2.3689   -0.3569 S   0  0  0  0  0  0
   -1.1445   -0.4056    0.0539 C   0  0  0  0  0  0
    0.0601    0.4280    0.0391 N   0  0  0  0  0  0
    1.3252   -0.1706    0.0292 C   0  0  0  0  0  0
    2.4672    0.6200    0.0152 C   0  0  0  0  0  0
    3.7206    0.0275    0.0053 C   0  0  0  0  0  0
    3.8339   -1.3577    0.0094 C   0  0  0  0  0  0
    2.6910   -2.1477    0.0234 C   0  0  0  0  0  0
    1.4382   -1.5539    0.0390 C   0  0  0  0  0  0
    2.8013   -3.5032    0.0271 O   0  0  0  0  0  0
    1.4713   -4.0257    0.0420 C   0  0  0  0  0  0
    5.0648   -1.9405   -0.0007 O   0  0  0  0  0  0
    5.4407   -2.0879   -1.3715 C   0  0  0  0  0  0
    4.8388    0.8015   -0.0089 O   0  0  0  0  0  0
    5.2248    0.9946    1.3534 C   0  0  0  0  0  0
    2.3123    2.5047    0.0089 Br  0  0  0  0  0  0
   -7.6519   -1.2159    0.1423 N   0  0  0  0  0  0
   -3.4090   -3.3716    0.4697 H   0  0  0  0  0  0
   -2.1924   -2.2239    0.3110 H   0  0  0  0  0  0
   -1.3222    2.3679   -0.3459 H   0  0  0  0  0  0
   -1.1932   -0.9572    0.9928 H   0  0  0  0  0  0
   -1.1105   -1.1081   -0.7789 H   0  0  0  0  0  0
   -0.0191    1.3947    0.0363 H   0  0  0  0  0  0
    0.5499   -2.1680    0.0499 H   0  0  0  0  0  0
    1.5090   -5.1151    0.0454 H   0  0  0  0  0  0
    0.9540   -3.6772    0.9359 H   0  0  0  0  0  0
    0.9365   -3.6834   -0.8440 H   0  0  0  0  0  0
    6.3964   -2.6085   -1.4322 H   0  0  0  0  0  0
    4.6791   -2.6639   -1.8971 H   0  0  0  0  0  0
    5.5333   -1.1037   -1.8307 H   0  0  0  0  0  0
    6.0728    1.6780    1.3974 H   0  0  0  0  0  0
    4.3890    1.4162    1.9116 H   0  0  0  0  0  0
    5.5071    0.0367    1.7903 H   0  0  0  0  0  0
   -7.8869   -2.1477    0.2747 H   0  0  0  0  0  0
   -8.3494   -0.5491    0.0439 H   0  0  0  0  0  0
  1  2  1  0  0  0
  1  6  2  0  0  0
  2  3  2  0  0  0
  2 26  1  0  0  0
  3  4  1  0  0  0
  4  5  2  0  0  0
  4 10  1  0  0  0
  5  6  1  0  0  0
  5  8  1  0  0  0
  6  7  1  0  0  0
  7 27  1  0  0  0
  7 28  1  0  0  0
  8  9  2  0  0  0
  8 11  1  0  0  0
  9 10  1  0  0  0
  9 29  1  0  0  0
 11 12  1  0  0  0
 11 30  1  0  0  0
 11 31  1  0  0  0
 12 13  1  0  0  0
 12 32  1  0  0  0
 13 14  1  0  0  0
 13 18  2  0  0  0
 14 15  2  0  0  0
 14 25  1  0  0  0
 15 16  1  0  0  0
 15 23  1  0  0  0
 16 17  2  0  0  0
 16 21  1  0  0  0
 17 18  1  0  0  0
 17 19  1  0  0  0
 18 33  1  0  0  0
 19 20  1  0  0  0
 20 34  1  0  0  0
 20 35  1  0  0  0
 20 36  1  0  0  0
 21 22  1  0  0  0
 22 37  1  0  0  0
 22 38  1  0  0  0
 22 39  1  0  0  0
 23 24  1  0  0  0
 24 40  1  0  0  0
 24 41  1  0  0  0
 24 42  1  0  0  0
 26 43  1  0  0  0
 26 44  1  0  0  0
M  END
>  <ACTIVITY>
4.36653

>  <set_rl>
1

>  <Min_dist>
999.9

>  <Avg_dist>
999.9

>  <PC_uM>
200

>  <TG_uM>
25

>  <RL_uM>
43

$$$$
36-6A
  Cerius2 12110214553D 1   1.00000                          
 
 44 46  0  0  0  0  0  0  0  0999 V2000
   -3.2821   -3.0708    0.5698 N   0  0  0  0  0  0
   -4.5128   -2.8048    0.1493 C   0  0  0  0  0  0
   -4.8642   -1.5810   -0.2189 N   0  0  0  0  0  0
   -3.9895   -0.5947   -0.1737 C   0  0  0  0  0  0
   -2.6639   -0.8040    0.2630 C   0  0  0  0  0  0
   -2.3481   -2.1378    0.6440 C   0  0  0  0  0  0
   -1.0772   -2.4551    1.0884 N   0  0  0  0  0  0
   -1.8235    0.3820    0.2549 C   0  0  0  0  0  0
   -2.3437    1.5500   -0.1511 C   0  0  0  0  0  0
   -4.0290    1.1357   -0.5593 S   0  0  0  0  0  0
   -1.4923    3.2347   -0.2631 Br  0  0  0  0  0  0
   -0.3854    0.3005    0.6978 C   0  0  0  0  0  0
    0.4421   -0.1728   -0.4146 N   0  0  0  0  0  0
    1.8217   -0.3299   -0.2429 C   0  0  0  0  0  0
    2.6055   -0.7784   -1.2973 C   0  0  0  0  0  0
    3.9724   -0.9343   -1.1278 C   0  0  0  0  0  0
    4.5582   -0.6414    0.0979 C   0  0  0  0  0  0
    3.7729   -0.1924    1.1528 C   0  0  0  0  0  0
    2.4069   -0.0316    0.9802 C   0  0  0  0  0  0
    4.3453    0.0945    2.3526 O   0  0  0  0  0  0
    3.2939    0.5253    3.2193 C   0  0  0  0  0  0
    5.9010   -0.7947    0.2652 O   0  0  0  0  0  0
    6.5060    0.4510   -0.0874 C   0  0  0  0  0  0
    4.7400   -1.3741   -2.1606 O   0  0  0  0  0  0
    3.8613   -1.5856   -3.2675 C   0  0  0  0  0  0
   -5.4475   -3.8259    0.0939 N   0  0  0  0  0  0
   -0.9373   -3.2449    1.6340 H   0  0  0  0  0  0
   -0.3259   -1.8880    0.8544 H   0  0  0  0  0  0
   -0.0448    1.2879    1.0095 H   0  0  0  0  0  0
   -0.3015   -0.3935    1.5340 H   0  0  0  0  0  0
    0.0335   -0.3773   -1.2703 H   0  0  0  0  0  0
    2.1501   -1.0064   -2.2496 H   0  0  0  0  0  0
    1.7966    0.3176    1.7999 H   0  0  0  0  0  0
    3.7067    0.7678    4.1985 H   0  0  0  0  0  0
    2.8149    1.4092    2.7979 H   0  0  0  0  0  0
    2.5582   -0.2723    3.3224 H   0  0  0  0  0  0
    7.5870    0.3764    0.0314 H   0  0  0  0  0  0
    6.2701    0.6888   -1.1246 H   0  0  0  0  0  0
    6.1226    1.2379    0.5621 H   0  0  0  0  0  0
    4.4345   -1.9407   -4.1238 H   0  0  0  0  0  0
    3.1111   -2.3294   -2.9988 H   0  0  0  0  0  0
    3.3679   -0.6482   -3.5240 H   0  0  0  0  0  0
   -5.2000   -4.7250    0.3609 H   0  0  0  0  0  0
   -6.3494   -3.6417   -0.2120 H   0  0  0  0  0  0
  1  2  1  0  0  0
  1  6  2  0  0  0
  2  3  2  0  0  0
  2 26  1  0  0  0
  3  4  1  0  0  0
  4  5  2  0  0  0
  4 10  1  0  0  0
  5  6  1  0  0  0
  5  8  1  0  0  0
  6  7  1  0  0  0
  7 27  1  0  0  0
  7 28  1  0  0  0
  8  9  2  0  0  0
  8 12  1  0  0  0
  9 10  1  0  0  0
  9 11  1  0  0  0
 12 13  1  0  0  0
 12 29  1  0  0  0
 12 30  1  0  0  0
 13 14  1  0  0  0
 13 31  1  0  0  0
 14 15  1  0  0  0
 14 19  2  0  0  0
 15 16  2  0  0  0
 15 32  1  0  0  0
 16 17  1  0  0  0
 16 24  1  0  0  0
 17 18  2  0  0  0
 17 22  1  0  0  0
 18 19  1  0  0  0
 18 20  1  0  0  0
 19 33  1  0  0  0
 20 21  1  0  0  0
 21 34  1  0  0  0
 21 35  1  0  0  0
 21 36  1  0  0  0
 22 23  1  0  0  0
 23 37  1  0  0  0
 23 38  1  0  0  0
 23 39  1  0  0  0
 24 25  1  0  0  0
 25 40  1  0  0  0
 25 41  1  0  0  0
 25 42  1  0  0  0
 26 43  1  0  0  0
 26 44  1  0  0  0
M  END
>  <ACTIVITY>
4.76955

>  <set_rl>
1

>  <Min_dist>
999.9

>  <Avg_dist>
999.9

>  <PC_uM>
13

>  <TG_uM>
34

>  <RL_uM>
17

$$$$
41-4D
  Cerius2 12110214553D 1   1.00000                          
 
 43 47  0  0  0  0  0  0  0  0999 V2000
   -5.7859    1.5205    0.0010 N   0  0  0  0  0  0
   -6.6193    0.4879    0.0003 C   0  0  0  0  0  0
   -6.1982   -0.7661   -0.0005 N   0  0  0  0  0  0
   -4.8973   -1.0458   -0.0006 C   0  0  0  0  0  0
   -3.9819    0.0194    0.0001 C   0  0  0  0  0  0
   -4.4695    1.3343    0.0009 C   0  0  0  0  0  0
   -3.6019    2.4112    0.0012 N   0  0  0  0  0  0
   -2.6543   -0.6000    0.0002 C   0  0  0  0  0  0
   -2.8623   -1.9241   -0.0004 C   0  0  0  0  0  0
   -4.1835   -2.1840   -0.0009 O   0  0  0  0  0  0
   -1.3241    0.1082    0.0002 C   0  0  0  0  0  0
   -0.2439   -0.8815    0.0003 N   0  0  0  0  0  0
    1.0871   -0.4618    0.0003 C   0  0  0  0  0  0
    2.1131   -1.4007    0.0004 C   0  0  0  0  0  0
    3.4260   -0.9855    0.0000 C   0  0  0  0  0  0
    3.7350    0.3731   -0.0007 C   0  0  0  0  0  0
    2.7018    1.3128   -0.0011 C   0  0  0  0  0  0
    1.3887    0.8951   -0.0057 C   0  0  0  0  0  0
    5.2089    0.5439   -0.0003 C   0  0  0  0  0  0
    5.8210   -0.7070    0.0006 C   0  0  0  0  0  0
    7.1957   -0.8083    0.0012 C   0  0  0  0  0  0
    7.9747    0.3357    0.0013 C   0  0  0  0  0  0
    7.3761    1.5825    0.0008 C   0  0  0  0  0  0
    6.0010    1.6934   -0.0007 C   0  0  0  0  0  0
    4.7284   -1.7479    0.0008 C   0  0  0  0  0  0
   -7.9822    0.7324    0.0009 N   0  0  0  0  0  0
   -3.9518    3.3159    0.0018 H   0  0  0  0  0  0
   -2.6435    2.2619    0.0008 H   0  0  0  0  0  0
   -2.0841   -2.6729   -0.0009 H   0  0  0  0  0  0
   -1.2448    0.7324   -0.8899 H   0  0  0  0  0  0
   -1.2449    0.7326    0.8901 H   0  0  0  0  0  0
   -0.4538   -1.8285    0.0004 H   0  0  0  0  0  0
    1.8802   -2.4553    0.0013 H   0  0  0  0  0  0
    2.9322    2.3680   -0.0012 H   0  0  0  0  0  0
    0.5918    1.6239   -0.0064 H   0  0  0  0  0  0
    7.6652   -1.7809    0.0019 H   0  0  0  0  0  0
    9.0517    0.2546    0.0020 H   0  0  0  0  0  0
    7.9876    2.4727    0.0012 H   0  0  0  0  0  0
    5.5376    2.6689   -0.0011 H   0  0  0  0  0  0
    4.8002   -2.3671    0.8950 H   0  0  0  0  0  0
    4.8008   -2.3681   -0.8926 H   0  0  0  0  0  0
   -8.3113    1.6449    0.0018 H   0  0  0  0  0  0
   -8.6080   -0.0088    0.0004 H   0  0  0  0  0  0
  1  2  1  0  0  0
  1  6  2  0  0  0
  2  3  2  0  0  0
  2 26  1  0  0  0
  3  4  1  0  0  0
  4  5  2  0  0  0
  4 10  1  0  0  0
  5  6  1  0  0  0
  5  8  1  0  0  0
  6  7  1  0  0  0
  7 27  1  0  0  0
  7 28  1  0  0  0
  8  9  2  0  0  0
  8 11  1  0  0  0
  9 10  1  0  0  0
  9 29  1  0  0  0
 11 12  1  0  0  0
 11 30  1  0  0  0
 11 31  1  0  0  0
 12 13  1  0  0  0
 12 32  1  0  0  0
 13 14  1  0  0  0
 13 18  2  0  0  0
 14 15  2  0  0  0
 14 33  1  0  0  0
 15 16  1  0  0  0
 15 25  1  0  0  0
 16 17  2  0  0  0
 16 19  1  0  0  0
 17 18  1  0  0  0
 17 34  1  0  0  0
 18 35  1  0  0  0
 19 20  1  0  0  0
 19 24  2  0  0  0
 20 21  2  0  0  0
 20 25  1  0  0  0
 21 22  1  0  0  0
 21 36  1  0  0  0
 22 23  2  0  0  0
 22 37  1  0  0  0
 23 24  1  0  0  0
 23 38  1  0  0  0
 24 39  1  0  0  0
 25 40  1  0  0  0
 25 41  1  0  0  0
 26 42  1  0  0  0
 26 43  1  0  0  0
M  END
>  <ACTIVITY>
3.30103

>  <set_rl>
1

>  <Min_dist>
999.9

>  <Avg_dist>
999.9

>  <PC_uM>
36.2

>  <TG_uM>
27.7

>  <RL_uM>
>10

$$$$
41-7B
  Cerius2 12110214553D 1   1.00000                          
 
 41 44  0  0  0  0  0  0  0  0999 V2000
   -4.8328   -1.6053    0.9046 N   0  0  0  0  0  0
   -5.8629   -1.2809    0.1335 C   0  0  0  0  0  0
   -5.8320   -0.2540   -0.6997 N   0  0  0  0  0  0
   -4.7458    0.5082   -0.7987 C   0  0  0  0  0  0
   -3.6335    0.1981    0.0008 C   0  0  0  0  0  0
   -3.7069   -0.8990    0.8712 C   0  0  0  0  0  0
   -2.6343   -1.2378    1.6757 N   0  0  0  0  0  0
   -2.6168    1.1996   -0.3304 C   0  0  0  0  0  0
   -3.1679    1.9956   -1.2574 C   0  0  0  0  0  0
   -4.4212    1.5865   -1.5314 O   0  0  0  0  0  0
   -1.2321    1.3126    0.2535 C   0  0  0  0  0  0
   -0.0734    0.3377   -0.7453 S   0  0  0  0  0  0
    1.4213    0.6409    0.1372 C   0  0  0  0  0  0
    2.6101    0.0681   -0.2930 C   0  0  0  0  0  0
    3.7879    0.3107    0.4076 C   0  0  0  0  0  0
    3.7673    1.1274    1.5373 C   0  0  0  0  0  0
    2.5810    1.6937    1.9592 C   0  0  0  0  0  0
    1.4116    1.4586    1.2615 C   0  0  0  0  0  0
    5.0625   -0.2988   -0.0465 C   0  0  0  0  0  0
    6.2450    0.4366    0.0004 C   0  0  0  0  0  0
    7.4275   -0.1352   -0.4233 C   0  0  0  0  0  0
    7.4402   -1.4359   -0.8937 C   0  0  0  0  0  0
    6.2691   -2.1704   -0.9429 C   0  0  0  0  0  0
    5.0820   -1.6105   -0.5160 C   0  0  0  0  0  0
   -7.0141   -2.0471    0.2033 N   0  0  0  0  0  0
   -2.6977   -1.9990    2.2735 H   0  0  0  0  0  0
   -1.8184   -0.7141    1.6421 H   0  0  0  0  0  0
   -2.6784    2.8415   -1.7171 H   0  0  0  0  0  0
   -0.9219    2.3575    0.2534 H   0  0  0  0  0  0
   -1.2371    0.9351    1.2760 H   0  0  0  0  0  0
    2.6210   -0.5641   -1.1685 H   0  0  0  0  0  0
    4.6799    1.3169    2.0829 H   0  0  0  0  0  0
    2.5676    2.3257    2.8349 H   0  0  0  0  0  0
    0.4861    1.9038    1.5957 H   0  0  0  0  0  0
    6.2361    1.4524    0.3672 H   0  0  0  0  0  0
    8.3446    0.4340   -0.3877 H   0  0  0  0  0  0
    8.3677   -1.8795   -1.2242 H   0  0  0  0  0  0
    6.2846   -3.1854   -1.3114 H   0  0  0  0  0  0
    4.1682   -2.1849   -0.5547 H   0  0  0  0  0  0
   -7.0566   -2.8046    0.8078 H   0  0  0  0  0  0
   -7.7780   -1.8264   -0.3522 H   0  0  0  0  0  0
  1  2  1  0  0  0
  1  6  2  0  0  0
  2  3  2  0  0  0
  2 25  1  0  0  0
  3  4  1  0  0  0
  4  5  2  0  0  0
  4 10  1  0  0  0
  5  6  1  0  0  0
  5  8  1  0  0  0
  6  7  1  0  0  0
  7 26  1  0  0  0
  7 27  1  0  0  0
  8  9  2  0  0  0
  8 11  1  0  0  0
  9 10  1  0  0  0
  9 28  1  0  0  0
 11 12  1  0  0  0
 11 29  1  0  0  0
 11 30  1  0  0  0
 12 13  1  0  0  0
 13 14  1  0  0  0
 13 18  2  0  0  0
 14 15  2  0  0  0
 14 31  1  0  0  0
 15 16  1  0  0  0
 15 19  1  0  0  0
 16 17  2  0  0  0
 16 32  1  0  0  0
 17 18  1  0  0  0
 17 33  1  0  0  0
 18 34  1  0  0  0
 19 20  1  0  0  0
 19 24  2  0  0  0
 20 21  2  0  0  0
 20 35  1  0  0  0
 21 22  1  0  0  0
 21 36  1  0  0  0
 22 23  2  0  0  0
 22 37  1  0  0  0
 23 24  1  0  0  0
 23 38  1  0  0  0
 24 39  1  0  0  0
 25 40  1  0  0  0
 25 41  1  0  0  0
M  END
>  <ACTIVITY>
4.50864

>  <set_rl>
1

>  <Min_dist>
999.9

>  <Avg_dist>
999.9

>  <PC_uM>
22

>  <TG_uM>
23

>  <RL_uM>
31

$$$$
41-7C
  Cerius2 12110214553D 1   1.00000                          
 
 41 44  0  0  0  0  0  0  0  0999 V2000
   -4.9315   -1.8892    0.1470 N   0  0  0  0  0  0
   -6.0491   -1.1748    0.1088 C   0  0  0  0  0  0
   -6.0506    0.1469    0.1631 N   0  0  0  0  0  0
   -4.9093    0.8242    0.2599 C   0  0  0  0  0  0
   -3.7038    0.1048    0.3032 C   0  0  0  0  0  0
   -3.7457   -1.2957    0.2431 C   0  0  0  0  0  0
   -2.5817   -2.0413    0.2832 N   0  0  0  0  0  0
   -2.6455    1.1124    0.4081 C   0  0  0  0  0  0
   -3.2644    2.3012    0.4194 C   0  0  0  0  0  0
   -4.5970    2.1288    0.3320 O   0  0  0  0  0  0
   -1.1615    0.8627    0.4881 C   0  0  0  0  0  0
   -0.4625    0.8315   -1.1855 S   0  0  0  0  0  0
    1.2315    0.5319   -0.8041 C   0  0  0  0  0  0
    2.1664    0.4288   -1.8287 C   0  0  0  0  0  0
    3.4919    0.1945   -1.5322 C   0  0  0  0  0  0
    3.8953    0.0612   -0.2042 C   0  0  0  0  0  0
    2.9567    0.1653    0.8215 C   0  0  0  0  0  0
    1.6329    0.4045    0.5215 C   0  0  0  0  0  0
    5.3212   -0.1915    0.1168 C   0  0  0  0  0  0
    5.9141    0.4374    1.2102 C   0  0  0  0  0  0
    7.2410    0.1982    1.5045 C   0  0  0  0  0  0
    7.9824   -0.6638    0.7167 C   0  0  0  0  0  0
    7.3992   -1.2908   -0.3698 C   0  0  0  0  0  0
    6.0716   -1.0631   -0.6703 C   0  0  0  0  0  0
   -7.2602   -1.8383    0.0078 N   0  0  0  0  0  0
   -2.6242   -3.0095    0.2408 H   0  0  0  0  0  0
   -1.7227   -1.5962    0.3537 H   0  0  0  0  0  0
   -2.7671    3.2573    0.4888 H   0  0  0  0  0  0
   -0.6896    1.6588    1.0641 H   0  0  0  0  0  0
   -0.9799   -0.0951    0.9756 H   0  0  0  0  0  0
    1.8536    0.5321   -2.8572 H   0  0  0  0  0  0
    4.2175    0.1138   -2.3281 H   0  0  0  0  0  0
    3.2674    0.0623    1.8507 H   0  0  0  0  0  0
    0.9057    0.4855    1.3158 H   0  0  0  0  0  0
    5.3363    1.1109    1.8258 H   0  0  0  0  0  0
    7.7016    0.6852    2.3513 H   0  0  0  0  0  0
    9.0206   -0.8478    0.9504 H   0  0  0  0  0  0
    7.9827   -1.9628   -0.9815 H   0  0  0  0  0  0
    5.6172   -1.5531   -1.5188 H   0  0  0  0  0  0
   -7.2805   -2.8072   -0.0336 H   0  0  0  0  0  0
   -8.0884   -1.3342   -0.0215 H   0  0  0  0  0  0
  1  2  1  0  0  0
  1  6  2  0  0  0
  2  3  2  0  0  0
  2 25  1  0  0  0
  3  4  1  0  0  0
  4  5  2  0  0  0
  4 10  1  0  0  0
  5  6  1  0  0  0
  5  8  1  0  0  0
  6  7  1  0  0  0
  7 26  1  0  0  0
  7 27  1  0  0  0
  8  9  2  0  0  0
  8 11  1  0  0  0
  9 10  1  0  0  0
  9 28  1  0  0  0
 11 12  1  0  0  0
 11 29  1  0  0  0
 11 30  1  0  0  0
 12 13  1  0  0  0
 13 14  1  0  0  0
 13 18  2  0  0  0
 14 15  2  0  0  0
 14 31  1  0  0  0
 15 16  1  0  0  0
 15 32  1  0  0  0
 16 17  2  0  0  0
 16 19  1  0  0  0
 17 18  1  0  0  0
 17 33  1  0  0  0
 18 34  1  0  0  0
 19 20  1  0  0  0
 19 24  2  0  0  0
 20 21  2  0  0  0
 20 35  1  0  0  0
 21 22  1  0  0  0
 21 36  1  0  0  0
 22 23  2  0  0  0
 22 37  1  0  0  0
 23 24  1  0  0  0
 23 38  1  0  0  0
 24 39  1  0  0  0
 25 40  1  0  0  0
 25 41  1  0  0  0
M  END
>  <ACTIVITY>
3.45469

>  <set_rl>
1

>  <Min_dist>
999.9

>  <Avg_dist>
999.9

>  <PC_uM>
41

>  <TG_uM>
79

>  <RL_uM>
351

$$$$
40-TABLE2-3
  Cerius2 12110214553D 1   1.00000                          
 
 33 35  0  0  0  0  0  0  0  0999 V2000
   -3.7140    0.7339    0.6109 N   0  0  0  0  0  0
   -3.8964   -0.5806    0.6433 C   0  0  0  0  0  0
   -2.9445   -1.4167    0.2536 N   0  0  0  0  0  0
   -1.7872   -0.9541   -0.1781 C   0  0  0  0  0  0
   -1.5235    0.4310   -0.2403 C   0  0  0  0  0  0
   -2.5834    1.2762    0.1916 C   0  0  0  0  0  0
   -2.4329    2.6508    0.1723 N   0  0  0  0  0  0
   -0.2030    0.7796   -0.7375 C   0  0  0  0  0  0
    0.6429   -0.1987   -1.0901 C   0  0  0  0  0  0
   -0.2868   -1.6870   -0.7751 S   0  0  0  0  0  0
    2.0458   -0.0708   -1.6256 C   0  0  0  0  0  0
    3.0229   -0.0654   -0.4784 C   0  0  0  0  0  0
    3.5547   -1.2553   -0.0178 C   0  0  0  0  0  0
    4.4510   -1.2503    1.0346 C   0  0  0  0  0  0
    4.8158   -0.0553    1.6261 C   0  0  0  0  0  0
    4.2847    1.1347    1.1649 C   0  0  0  0  0  0
    3.3918    1.1300    0.1097 C   0  0  0  0  0  0
    0.2101    2.2240   -0.8559 C   0  0  0  0  0  0
   -5.1042   -1.0881    1.0932 N   0  0  0  0  0  0
   -3.2149    3.2239    0.1422 H   0  0  0  0  0  0
   -1.5453    3.0418    0.1888 H   0  0  0  0  0  0
    2.2619   -0.9131   -2.2830 H   0  0  0  0  0  0
    2.1375    0.8599   -2.1855 H   0  0  0  0  0  0
    3.2697   -2.1889   -0.4799 H   0  0  0  0  0  0
    4.8659   -2.1800    1.3950 H   0  0  0  0  0  0
    5.5155   -0.0515    2.4488 H   0  0  0  0  0  0
    4.5695    2.0682    1.6272 H   0  0  0  0  0  0
    2.9768    2.0598   -0.2507 H   0  0  0  0  0  0
    0.5716    2.5787    0.1093 H   0  0  0  0  0  0
    1.0040    2.3152   -1.5971 H   0  0  0  0  0  0
   -0.6465    2.8227   -1.1654 H   0  0  0  0  0  0
   -5.8069   -0.4845    1.3808 H   0  0  0  0  0  0
   -5.2472   -2.0471    1.1206 H   0  0  0  0  0  0
  1  2  1  0  0  0
  1  6  2  0  0  0
  2  3  2  0  0  0
  2 19  1  0  0  0
  3  4  1  0  0  0
  4  5  2  0  0  0
  4 10  1  0  0  0
  5  6  1  0  0  0
  5  8  1  0  0  0
  6  7  1  0  0  0
  7 20  1  0  0  0
  7 21  1  0  0  0
  8  9  2  0  0  0
  8 18  1  0  0  0
  9 10  1  0  0  0
  9 11  1  0  0  0
 11 12  1  0  0  0
 11 22  1  0  0  0
 11 23  1  0  0  0
 12 13  1  0  0  0
 12 17  2  0  0  0
 13 14  2  0  0  0
 13 24  1  0  0  0
 14 15  1  0  0  0
 14 25  1  0  0  0
 15 16  2  0  0  0
 15 26  1  0  0  0
 16 17  1  0  0  0
 16 27  1  0  0  0
 17 28  1  0  0  0
 18 29  1  0  0  0
 18 30  1  0  0  0
 18 31  1  0  0  0
 19 32  1  0  0  0
 19 33  1  0  0  0
M  END
>  <ACTIVITY>
4.85387

>  <set_rl>
1

>  <Min_dist>
999.9

>  <Avg_dist>
999.9

>  <PC_uM>
35

>  <TG_uM>
6.2

>  <RL_uM>
14

$$$$
16-12
  Cerius2 12110214553D 1   1.00000                          
 
 45 47  0  0  0  0  0  0  0  0999 V2000
   -4.1573   -1.6829   -0.2800 N   0  0  0  0  0  0
   -5.3623   -1.1982   -0.0055 C   0  0  0  0  0  0
   -5.5610    0.1031    0.1499 N   0  0  0  0  0  0
   -4.5557    0.9491    0.0339 C   0  0  0  0  0  0
   -3.2478    0.5050   -0.2562 C   0  0  0  0  0  0
   -3.0990   -0.9013   -0.4119 C   0  0  0  0  0  0
   -1.8600   -1.4454   -0.6974 N   0  0  0  0  0  0
   -2.2520    1.5594   -0.3519 C   0  0  0  0  0  0
   -2.6270    2.8328   -0.1658 C   0  0  0  0  0  0
   -4.3759    2.7090    0.1576 S   0  0  0  0  0  0
   -0.8145    1.2248   -0.6565 C   0  0  0  0  0  0
   -0.0759    0.9146    0.6470 C   0  0  0  0  0  0
    1.3897    0.7148    0.3587 C   0  0  0  0  0  0
    2.2188    1.8112    0.2095 C   0  0  0  0  0  0
    3.5675    1.6318   -0.0559 C   0  0  0  0  0  0
    4.0867    0.3474   -0.1715 C   0  0  0  0  0  0
    3.2509   -0.7521   -0.0206 C   0  0  0  0  0  0
    1.9029   -0.5644    0.2496 C   0  0  0  0  0  0
    0.7639   -2.0598    0.4560 Br  0  0  0  0  0  0
    3.7542   -2.0107   -0.1329 O   0  0  0  0  0  0
    3.7482   -2.3353   -1.5245 C   0  0  0  0  0  0
    5.4102    0.1676   -0.4324 O   0  0  0  0  0  0
    6.0598   -0.0066    0.8285 C   0  0  0  0  0  0
    4.3819    2.7111   -0.2033 O   0  0  0  0  0  0
    3.5653    3.8711   -0.0313 C   0  0  0  0  0  0
   -6.4323   -2.0687    0.1206 N   0  0  0  0  0  0
   -1.0524   -0.9610   -0.4651 H   0  0  0  0  0  0
   -1.7986   -2.3114   -1.1299 H   0  0  0  0  0  0
   -2.0153    3.7221   -0.2026 H   0  0  0  0  0  0
   -0.7750    0.3551   -1.3123 H   0  0  0  0  0  0
   -0.3406    2.0735   -1.1495 H   0  0  0  0  0  0
   -0.1996    1.7457    1.3414 H   0  0  0  0  0  0
   -0.4861    0.0070    1.0899 H   0  0  0  0  0  0
    1.8150    2.8088    0.2994 H   0  0  0  0  0  0
    4.0619   -3.3707   -1.6575 H   0  0  0  0  0  0
    2.7420   -2.2063   -1.9234 H   0  0  0  0  0  0
    4.4362   -1.6764   -2.0543 H   0  0  0  0  0  0
    7.1375   -0.0672    0.6767 H   0  0  0  0  0  0
    5.8311    0.8406    1.4751 H   0  0  0  0  0  0
    5.7063   -0.9259    1.2954 H   0  0  0  0  0  0
    4.1777    4.7661   -0.1413 H   0  0  0  0  0  0
    2.7771    3.8755   -0.7842 H   0  0  0  0  0  0
    3.1183    3.8567    0.9627 H   0  0  0  0  0  0
   -6.2972   -3.0227    0.0084 H   0  0  0  0  0  0
   -7.3167   -1.7244    0.3210 H   0  0  0  0  0  0
  1  2  1  0  0  0
  1  6  2  0  0  0
  2  3  2  0  0  0
  2 26  1  0  0  0
  3  4  1  0  0  0
  4  5  2  0  0  0
  4 10  1  0  0  0
  5  6  1  0  0  0
  5  8  1  0  0  0
  6  7  1  0  0  0
  7 27  1  0  0  0
  7 28  1  0  0  0
  8  9  2  0  0  0
  8 11  1  0  0  0
  9 10  1  0  0  0
  9 29  1  0  0  0
 11 12  1  0  0  0
 11 30  1  0  0  0
 11 31  1  0  0  0
 12 13  1  0  0  0
 12 32  1  0  0  0
 12 33  1  0  0  0
 13 14  1  0  0  0
 13 18  2  0  0  0
 14 15  2  0  0  0
 14 34  1  0  0  0
 15 16  1  0  0  0
 15 24  1  0  0  0
 16 17  2  0  0  0
 16 22  1  0  0  0
 17 18  1  0  0  0
 17 20  1  0  0  0
 18 19  1  0  0  0
 20 21  1  0  0  0
 21 35  1  0  0  0
 21 36  1  0  0  0
 21 37  1  0  0  0
 22 23  1  0  0  0
 23 38  1  0  0  0
 23 39  1  0  0  0
 23 40  1  0  0  0
 24 25  1  0  0  0
 25 41  1  0  0  0
 25 42  1  0  0  0
 25 43  1  0  0  0
 26 44  1  0  0  0
 26 45  1  0  0  0
M  END
>  <ACTIVITY>
5.55284

>  <set_rl>
1

>  <Min_dist>
999.9

>  <Avg_dist>
999.9

>  <PC_uM>
49

>  <TG_uM>
2.5

>  <RL_uM>
2.8

$$$$
41-5B
  Cerius2 12110214553D 1   1.00000                          
 
 51 55  0  0  0  0  0  0  0  0999 V2000
   -6.0497   -0.8290   -0.4933 N   0  0  0  0  0  0
   -6.3250   -0.7319    0.8012 C   0  0  0  0  0  0
   -5.4762   -0.2112    1.6718 N   0  0  0  0  0  0
   -4.2904    0.2442    1.2756 C   0  0  0  0  0  0
   -3.9604    0.1597   -0.0870 C   0  0  0  0  0  0
   -4.8884   -0.3993   -0.9775 C   0  0  0  0  0  0
   -4.6024   -0.5014   -2.3267 N   0  0  0  0  0  0
   -2.6169    0.7320   -0.2048 C   0  0  0  0  0  0
   -2.2596    1.0986    1.0339 C   0  0  0  0  0  0
   -3.2464    0.8104    1.9036 O   0  0  0  0  0  0
   -1.8015    0.8781   -1.4636 C   0  0  0  0  0  0
   -0.5145    1.4999   -1.1424 N   0  0  0  0  0  0
    0.5836    0.7008   -0.8031 C   0  0  0  0  0  0
    1.7995    1.2893   -0.4997 C   0  0  0  0  0  0
    2.8887    0.4896   -0.1629 C   0  0  0  0  0  0
    2.7542   -0.9062   -0.1312 C   0  0  0  0  0  0
    1.5252   -1.4816   -0.4378 C   0  0  0  0  0  0
    0.4503   -0.6841   -0.7657 C   0  0  0  0  0  0
    3.9756   -1.4539    0.2287 N   0  0  0  0  0  0
    4.9074   -0.4524    0.4338 C   0  0  0  0  0  0
    4.2863    0.7840    0.2038 C   0  0  0  0  0  0
    5.0108    1.9656    0.3439 C   0  0  0  0  0  0
    6.3387    1.9151    0.7089 C   0  0  0  0  0  0
    6.9544    0.6937    0.9366 C   0  0  0  0  0  0
    6.2495   -0.4826    0.8016 C   0  0  0  0  0  0
    4.2413   -2.8875    0.3719 C   0  0  0  0  0  0
    4.7127   -3.4551   -0.9684 C   0  0  0  0  0  0
   -0.3768    2.9580   -1.1762 C   0  0  0  0  0  0
   -7.5482   -1.1930    1.2580 N   0  0  0  0  0  0
   -5.2528   -0.8900   -2.9323 H   0  0  0  0  0  0
   -3.7513   -0.1844   -2.6674 H   0  0  0  0  0  0
   -1.3178    1.5576    1.2962 H   0  0  0  0  0  0
   -1.6306   -0.1051   -1.9020 H   0  0  0  0  0  0
   -2.3402    1.5043   -2.1748 H   0  0  0  0  0  0
    1.9029    2.3641   -0.5245 H   0  0  0  0  0  0
    1.4127   -2.5555   -0.4162 H   0  0  0  0  0  0
   -0.5009   -1.1375   -1.0023 H   0  0  0  0  0  0
    4.5335    2.9180    0.1667 H   0  0  0  0  0  0
    6.9020    2.8302    0.8176 H   0  0  0  0  0  0
    7.9956    0.6641    1.2220 H   0  0  0  0  0  0
    6.7385   -1.4286    0.9818 H   0  0  0  0  0  0
    5.0157   -3.0402    1.1237 H   0  0  0  0  0  0
    3.3288   -3.3970    0.6815 H   0  0  0  0  0  0
    4.9104   -4.5218   -0.8619 H   0  0  0  0  0  0
    3.9383   -3.3024   -1.7202 H   0  0  0  0  0  0
    5.6252   -2.9457   -1.2781 H   0  0  0  0  0  0
   -1.3293    3.4065   -1.4585 H   0  0  0  0  0  0
   -0.0836    3.3182   -0.1901 H   0  0  0  0  0  0
    0.3851    3.2342   -1.9052 H   0  0  0  0  0  0
   -8.1846   -1.5780    0.6354 H   0  0  0  0  0  0
   -7.7686   -1.1310    2.2006 H   0  0  0  0  0  0
  1  2  1  0  0  0
  1  6  2  0  0  0
  2  3  2  0  0  0
  2 29  1  0  0  0
  3  4  1  0  0  0
  4  5  2  0  0  0
  4 10  1  0  0  0
  5  6  1  0  0  0
  5  8  1  0  0  0
  6  7  1  0  0  0
  7 30  1  0  0  0
  7 31  1  0  0  0
  8  9  2  0  0  0
  8 11  1  0  0  0
  9 10  1  0  0  0
  9 32  1  0  0  0
 11 12  1  0  0  0
 11 33  1  0  0  0
 11 34  1  0  0  0
 12 13  1  0  0  0
 12 28  1  0  0  0
 13 14  1  0  0  0
 13 18  2  0  0  0
 14 15  2  0  0  0
 14 35  1  0  0  0
 15 16  1  0  0  0
 15 21  1  0  0  0
 16 17  2  0  0  0
 16 19  1  0  0  0
 17 18  1  0  0  0
 17 36  1  0  0  0
 18 37  1  0  0  0
 19 20  1  0  0  0
 19 26  1  0  0  0
 20 21  2  0  0  0
 20 25  1  0  0  0
 21 22  1  0  0  0
 22 23  2  0  0  0
 22 38  1  0  0  0
 23 24  1  0  0  0
 23 39  1  0  0  0
 24 25  2  0  0  0
 24 40  1  0  0  0
 25 41  1  0  0  0
 26 27  1  0  0  0
 26 42  1  0  0  0
 26 43  1  0  0  0
 27 44  1  0  0  0
 27 45  1  0  0  0
 27 46  1  0  0  0
 28 47  1  0  0  0
 28 48  1  0  0  0
 28 49  1  0  0  0
 29 50  1  0  0  0
 29 51  1  0  0  0
M  END
>  <ACTIVITY>
4.6073

>  <set_rl>
1

>  <Min_dist>
999.9

>  <Avg_dist>
999.9

>  <PC_uM>
18.7

>  <TG_uM>
22.6

>  <RL_uM>
24.7

$$$$
43-7
  Cerius2 12110214553D 1   1.00000                          
 
 43 45  0  0  0  0  0  0  0  0999 V2000
   -3.8646   -1.8778   -0.4473 N   0  0  0  0  0  0
   -4.9338   -1.0322   -0.4743 C   0  0  0  0  0  0
   -4.8393    0.2256   -0.1081 N   0  0  0  0  0  0
   -3.6751    0.7410    0.3133 C   0  0  0  0  0  0
   -2.5413   -0.0823    0.3619 C   0  0  0  0  0  0
   -1.4475    0.7537    0.8538 C   0  0  0  0  0  0
   -1.9611    1.9771    1.0639 C   0  0  0  0  0  0
   -3.2952    1.9788    0.7427 N   0  0  0  0  0  0
   -3.8823    2.7479    0.8108 H   0  0  0  0  0  0
   -1.1895    3.1666    1.5747 C   0  0  0  0  0  0
   -0.0207    0.3257    1.0818 C   0  0  0  0  0  0
    0.7551    0.5407   -0.1422 N   0  0  0  0  0  0
    2.1159    0.2154   -0.1743 C   0  0  0  0  0  0
    2.8550    0.4193   -1.3378 C   0  0  0  0  0  0
    4.2009    0.0967   -1.3670 C   0  0  0  0  0  0
    4.8125   -0.4277   -0.2427 C   0  0  0  0  0  0
    4.0797   -0.6322    0.9166 C   0  0  0  0  0  0
    2.7325   -0.3051    0.9534 C   0  0  0  0  0  0
    4.6837   -1.1488    2.0199 O   0  0  0  0  0  0
    6.0523   -1.3724    1.6749 C   0  0  0  0  0  0
    2.2541    0.9348   -2.4447 O   0  0  0  0  0  0
    3.2590    1.0229   -3.4569 C   0  0  0  0  0  0
   -2.6561   -1.4328   -0.0344 C   0  0  0  0  0  0
   -1.6916   -2.1778   -0.0048 O   0  0  0  0  0  0
   -6.1482   -1.5107   -0.8982 N   0  0  0  0  0  0
   -3.9719   -2.8021   -0.7211 H   0  0  0  0  0  0
   -0.7707    3.7170    0.7322 H   0  0  0  0  0  0
   -1.8573    3.8181    2.1383 H   0  0  0  0  0  0
   -0.3825    2.8251    2.2229 H   0  0  0  0  0  0
    0.4097    0.9134    1.8927 H   0  0  0  0  0  0
    0.0037   -0.7313    1.3465 H   0  0  0  0  0  0
    0.3257    0.9084   -0.9303 H   0  0  0  0  0  0
    4.7739    0.2543   -2.2688 H   0  0  0  0  0  0
    5.8626   -0.6786   -0.2678 H   0  0  0  0  0  0
    2.1619   -0.4645    1.8564 H   0  0  0  0  0  0
    6.5800   -1.7885    2.5331 H   0  0  0  0  0  0
    6.1071   -2.0718    0.8407 H   0  0  0  0  0  0
    6.5137   -0.4275    1.3878 H   0  0  0  0  0  0
    2.8223    1.4328   -4.3676 H   0  0  0  0  0  0
    4.0633    1.6741   -3.1146 H   0  0  0  0  0  0
    3.6578    0.0291   -3.6605 H   0  0  0  0  0  0
   -6.9192   -0.9227   -0.9236 H   0  0  0  0  0  0
   -6.2355   -2.4371   -1.1724 H   0  0  0  0  0  0
  1  2  1  0  0  0
  1 23  1  0  0  0
  1 26  1  0  0  0
  2  3  2  0  0  0
  2 25  1  0  0  0
  3  4  1  0  0  0
  4  5  2  0  0  0
  4  8  1  0  0  0
  5  6  1  0  0  0
  5 23  1  0  0  0
  6  7  2  0  0  0
  6 11  1  0  0  0
  7  8  1  0  0  0
  7 10  1  0  0  0
  8  9  1  0  0  0
 10 27  1  0  0  0
 10 28  1  0  0  0
 10 29  1  0  0  0
 11 12  1  0  0  0
 11 30  1  0  0  0
 11 31  1  0  0  0
 12 13  1  0  0  0
 12 32  1  0  0  0
 13 14  1  0  0  0
 13 18  2  0  0  0
 14 15  2  0  0  0
 14 21  1  0  0  0
 15 16  1  0  0  0
 15 33  1  0  0  0
 16 17  2  0  0  0
 16 34  1  0  0  0
 17 18  1  0  0  0
 17 19  1  0  0  0
 18 35  1  0  0  0
 19 20  1  0  0  0
 20 36  1  0  0  0
 20 37  1  0  0  0
 20 38  1  0  0  0
 21 22  1  0  0  0
 22 39  1  0  0  0
 22 40  1  0  0  0
 22 41  1  0  0  0
 23 24  2  0  0  0
 25 42  1  0  0  0
 25 43  1  0  0  0
M  END
>  <ACTIVITY>
4.3279

>  <set_rl>
1

>  <Min_dist>
999.9

>  <Avg_dist>
999.9

>  <PC_uM>
47

>  <TG_uM>
2.2

>  <RL_uM>
47

$$$$
43-8
  Cerius2 12110214553D 1   1.00000                          
 
 43 45  0  0  0  0  0  0  0  0999 V2000
   -4.0757   -1.9291    0.3775 N   0  0  0  0  0  0
   -5.1568   -1.2418   -0.0894 C   0  0  0  0  0  0
   -5.0939    0.0331   -0.3986 N   0  0  0  0  0  0
   -3.9520    0.7242   -0.2681 C   0  0  0  0  0  0
   -2.8075    0.0689    0.2076 C   0  0  0  0  0  0
   -1.7433    1.0709    0.2377 C   0  0  0  0  0  0
   -2.2826    2.2201   -0.2015 C   0  0  0  0  0  0
   -3.6056    2.0218   -0.5069 N   0  0  0  0  0  0
   -4.2067    2.7046   -0.8437 H   0  0  0  0  0  0
   -1.5466    3.5281   -0.3381 C   0  0  0  0  0  0
   -0.3178    0.8562    0.6771 C   0  0  0  0  0  0
    0.4931    0.4547   -0.4750 N   0  0  0  0  0  0
    1.8564    0.1978   -0.3139 C   0  0  0  0  0  0
    2.6254   -0.1827   -1.4056 C   0  0  0  0  0  0
    3.9787   -0.4371   -1.2448 C   0  0  0  0  0  0
    4.5645   -0.3116    0.0061 C   0  0  0  0  0  0
    3.7970    0.0680    1.0972 C   0  0  0  0  0  0
    2.4447    0.3283    0.9371 C   0  0  0  0  0  0
    4.3718    0.1898    2.3226 O   0  0  0  0  0  0
    5.7544   -0.1347    2.1643 C   0  0  0  0  0  0
    4.7314   -0.8100   -2.3131 O   0  0  0  0  0  0
    6.0647   -0.9965   -1.8339 C   0  0  0  0  0  0
   -2.8882   -1.3019    0.5367 C   0  0  0  0  0  0
   -1.9135   -1.9039    0.9534 O   0  0  0  0  0  0
   -6.3493   -1.9038   -0.2414 N   0  0  0  0  0  0
   -4.1596   -2.8696    0.5998 H   0  0  0  0  0  0
   -1.1099    3.5970   -1.3344 H   0  0  0  0  0  0
   -2.2423    4.3538   -0.1885 H   0  0  0  0  0  0
   -0.7553    3.5796    0.4098 H   0  0  0  0  0  0
    0.0772    1.7824    1.0944 H   0  0  0  0  0  0
   -0.2852    0.0733    1.4348 H   0  0  0  0  0  0
    0.0832    0.3674   -1.3498 H   0  0  0  0  0  0
    2.1693   -0.2808   -2.3797 H   0  0  0  0  0  0
    5.6188   -0.5099    0.1306 H   0  0  0  0  0  0
    1.8473    0.6239    1.7868 H   0  0  0  0  0  0
    6.2598   -0.0506    3.1264 H   0  0  0  0  0  0
    5.8479   -1.1552    1.7928 H   0  0  0  0  0  0
    6.2102    0.5541    1.4530 H   0  0  0  0  0  0
    6.7088   -1.2979   -2.6600 H   0  0  0  0  0  0
    6.4321   -0.0624   -1.4089 H   0  0  0  0  0  0
    6.0702   -1.7714   -1.0674 H   0  0  0  0  0  0
   -7.1283   -1.4300   -0.5724 H   0  0  0  0  0  0
   -6.4131   -2.8456   -0.0180 H   0  0  0  0  0  0
  1  2  1  0  0  0
  1 23  1  0  0  0
  1 26  1  0  0  0
  2  3  2  0  0  0
  2 25  1  0  0  0
  3  4  1  0  0  0
  4  5  2  0  0  0
  4  8  1  0  0  0
  5  6  1  0  0  0
  5 23  1  0  0  0
  6  7  2  0  0  0
  6 11  1  0  0  0
  7  8  1  0  0  0
  7 10  1  0  0  0
  8  9  1  0  0  0
 10 27  1  0  0  0
 10 28  1  0  0  0
 10 29  1  0  0  0
 11 12  1  0  0  0
 11 30  1  0  0  0
 11 31  1  0  0  0
 12 13  1  0  0  0
 12 32  1  0  0  0
 13 14  1  0  0  0
 13 18  2  0  0  0
 14 15  2  0  0  0
 14 33  1  0  0  0
 15 16  1  0  0  0
 15 21  1  0  0  0
 16 17  2  0  0  0
 16 34  1  0  0  0
 17 18  1  0  0  0
 17 19  1  0  0  0
 18 35  1  0  0  0
 19 20  1  0  0  0
 20 36  1  0  0  0
 20 37  1  0  0  0
 20 38  1  0  0  0
 21 22  1  0  0  0
 22 39  1  0  0  0
 22 40  1  0  0  0
 22 41  1  0  0  0
 23 24  2  0  0  0
 25 42  1  0  0  0
 25 43  1  0  0  0
M  END
>  <ACTIVITY>
4.69897

>  <set_rl>
1

>  <Min_dist>
999.9

>  <Avg_dist>
999.9

>  <PC_uM>
20

>  <TG_uM>
2.6

>  <RL_uM>
20

$$$$
43-9
  Cerius2 12110214553D 1   1.00000                          
 
 43 45  0  0  0  0  0  0  0  0999 V2000
   -3.9316   -1.9403    0.2785 N   0  0  0  0  0  0
   -4.9958   -1.1952   -0.1355 C   0  0  0  0  0  0
   -4.9169    0.1056   -0.2982 N   0  0  0  0  0  0
   -3.7746    0.7673   -0.0622 C   0  0  0  0  0  0
   -2.6470    0.0525    0.3658 C   0  0  0  0  0  0
   -1.5777    1.0350    0.5350 C   0  0  0  0  0  0
   -2.0981    2.2311    0.2140 C   0  0  0  0  0  0
   -3.4140    2.0803   -0.1451 N   0  0  0  0  0  0
   -4.0018    2.8020   -0.4182 H   0  0  0  0  0  0
   -1.3507    3.5394    0.2436 C   0  0  0  0  0  0
   -0.1656    0.7595    0.9834 C   0  0  0  0  0  0
    0.6727    0.4822   -0.1856 N   0  0  0  0  0  0
    2.0352    0.1952   -0.0192 C   0  0  0  0  0  0
    2.8330   -0.0686   -1.1304 C   0  0  0  0  0  0
    4.1780   -0.3516   -0.9628 C   0  0  0  0  0  0
    4.7284   -0.3720    0.3105 C   0  0  0  0  0  0
    3.9331   -0.1092    1.4153 C   0  0  0  0  0  0
    2.5909    0.1794    1.2508 C   0  0  0  0  0  0
    6.0493   -0.6504    0.4751 O   0  0  0  0  0  0
    6.3109   -0.5967    1.8789 C   0  0  0  0  0  0
    2.2916   -0.0486   -2.3779 O   0  0  0  0  0  0
    3.3473   -0.3535   -3.2913 C   0  0  0  0  0  0
   -2.7448   -1.3458    0.5369 C   0  0  0  0  0  0
   -1.7851   -1.9995    0.9081 O   0  0  0  0  0  0
   -6.1881   -1.8252   -0.3910 N   0  0  0  0  0  0
   -4.0272   -2.8990    0.3917 H   0  0  0  0  0  0
   -0.8877    3.7154   -0.7273 H   0  0  0  0  0  0
   -2.0449    4.3494    0.4672 H   0  0  0  0  0  0
   -0.5790    3.4996    1.0123 H   0  0  0  0  0  0
    0.2241    1.6296    1.5118 H   0  0  0  0  0  0
   -0.1576   -0.1035    1.6492 H   0  0  0  0  0  0
    0.2853    0.4971   -1.0747 H   0  0  0  0  0  0
    4.7982   -0.5568   -1.8228 H   0  0  0  0  0  0
    4.3636   -0.1260    2.4057 H   0  0  0  0  0  0
    1.9732    0.3841    2.1128 H   0  0  0  0  0  0
    7.3633   -0.8145    2.0610 H   0  0  0  0  0  0
    6.0757    0.3992    2.2545 H   0  0  0  0  0  0
    5.6933   -1.3338    2.3921 H   0  0  0  0  0  0
    2.9591   -0.3490   -4.3099 H   0  0  0  0  0  0
    4.1347    0.3946   -3.1993 H   0  0  0  0  0  0
    3.7534   -1.3385   -3.0616 H   0  0  0  0  0  0
   -6.9552   -1.3101   -0.6863 H   0  0  0  0  0  0
   -6.2636   -2.7854   -0.2763 H   0  0  0  0  0  0
  1  2  1  0  0  0
  1 23  1  0  0  0
  1 26  1  0  0  0
  2  3  2  0  0  0
  2 25  1  0  0  0
  3  4  1  0  0  0
  4  5  2  0  0  0
  4  8  1  0  0  0
  5  6  1  0  0  0
  5 23  1  0  0  0
  6  7  2  0  0  0
  6 11  1  0  0  0
  7  8  1  0  0  0
  7 10  1  0  0  0
  8  9  1  0  0  0
 10 27  1  0  0  0
 10 28  1  0  0  0
 10 29  1  0  0  0
 11 12  1  0  0  0
 11 30  1  0  0  0
 11 31  1  0  0  0
 12 13  1  0  0  0
 12 32  1  0  0  0
 13 14  1  0  0  0
 13 18  2  0  0  0
 14 15  2  0  0  0
 14 21  1  0  0  0
 15 16  1  0  0  0
 15 33  1  0  0  0
 16 17  2  0  0  0
 16 19  1  0  0  0
 17 18  1  0  0  0
 17 34  1  0  0  0
 18 35  1  0  0  0
 19 20  1  0  0  0
 20 36  1  0  0  0
 20 37  1  0  0  0
 20 38  1  0  0  0
 21 22  1  0  0  0
 22 39  1  0  0  0
 22 40  1  0  0  0
 22 41  1  0  0  0
 23 24  2  0  0  0
 25 42  1  0  0  0
 25 43  1  0  0  0
M  END
>  <ACTIVITY>
4.79588

>  <set_rl>
1

>  <Min_dist>
999.9

>  <Avg_dist>
999.9

>  <PC_uM>
16

>  <TG_uM>
7.1

>  <RL_uM>
16

$$$$
43-10
  Cerius2 12110214553D 1   1.00000                          
 
 47 49  0  0  0  0  0  0  0  0999 V2000
   -4.4416    0.8689   -1.7029 N   0  0  0  0  0  0
   -5.5028    0.8133   -0.8485 C   0  0  0  0  0  0
   -5.4093    0.2800    0.3480 N   0  0  0  0  0  0
   -4.2541   -0.2396    0.7888 C   0  0  0  0  0  0
   -3.1290   -0.2103   -0.0470 C   0  0  0  0  0  0
   -2.0437   -0.8406    0.7029 C   0  0  0  0  0  0
   -2.5536   -1.1973    1.8934 C   0  0  0  0  0  0
   -3.8774   -0.8412    1.9537 N   0  0  0  0  0  0
   -4.4602   -0.9945    2.7139 H   0  0  0  0  0  0
   -1.7883   -1.8842    2.9950 C   0  0  0  0  0  0
   -0.6278   -1.0502    0.2314 C   0  0  0  0  0  0
    0.1860    0.1115    0.5983 N   0  0  0  0  0  0
    1.5441    0.1477    0.2641 C   0  0  0  0  0  0
    2.3150    1.2487    0.6119 C   0  0  0  0  0  0
    3.6607    1.2853    0.2811 C   0  0  0  0  0  0
    4.2380    0.2197   -0.3987 C   0  0  0  0  0  0
    3.4657   -0.8820   -0.7465 C   0  0  0  0  0  0
    2.1215   -0.9197   -0.4101 C   0  0  0  0  0  0
    4.0299   -1.9253   -1.4118 O   0  0  0  0  0  0
    2.9955   -2.8885   -1.6227 C   0  0  0  0  0  0
    5.5599    0.2552   -0.7244 O   0  0  0  0  0  0
    6.2707   -0.3273    0.3700 C   0  0  0  0  0  0
    4.4156    2.3641    0.6215 O   0  0  0  0  0  0
    3.5498    3.2767    1.2995 C   0  0  0  0  0  0
   -3.2425    0.3659   -1.3313 C   0  0  0  0  0  0
   -2.2854    0.4084   -2.0849 O   0  0  0  0  0  0
   -6.7077    1.3319   -1.2519 N   0  0  0  0  0  0
   -4.5480    1.2666   -2.5811 H   0  0  0  0  0  0
   -1.3400   -1.1351    3.6477 H   0  0  0  0  0  0
   -2.4675   -2.5104    3.5735 H   0  0  0  0  0  0
   -1.0038   -2.5039    2.5607 H   0  0  0  0  0  0
   -0.2172   -1.9442    0.7007 H   0  0  0  0  0  0
   -0.6198   -1.1720   -0.8517 H   0  0  0  0  0  0
   -0.2167    0.8554    1.0728 H   0  0  0  0  0  0
    1.8661    2.0770    1.1399 H   0  0  0  0  0  0
    1.5212   -1.7760   -0.6800 H   0  0  0  0  0  0
    3.4024   -3.7478   -2.1557 H   0  0  0  0  0  0
    2.5988   -3.2123   -0.6604 H   0  0  0  0  0  0
    2.1963   -2.4401   -2.2128 H   0  0  0  0  0  0
    7.3390   -0.3210    0.1539 H   0  0  0  0  0  0
    6.0796    0.2489    1.2752 H   0  0  0  0  0  0
    5.9355   -1.3543    0.5155 H   0  0  0  0  0  0
    4.1136    4.1621    1.5934 H   0  0  0  0  0  0
    2.7365    3.5678    0.6349 H   0  0  0  0  0  0
    3.1391    2.7962    2.1875 H   0  0  0  0  0  0
   -7.4729    1.3007   -0.6566 H   0  0  0  0  0  0
   -6.7941    1.7298   -2.1323 H   0  0  0  0  0  0
  1  2  1  0  0  0
  1 25  1  0  0  0
  1 28  1  0  0  0
  2  3  2  0  0  0
  2 27  1  0  0  0
  3  4  1  0  0  0
  4  5  2  0  0  0
  4  8  1  0  0  0
  5  6  1  0  0  0
  5 25  1  0  0  0
  6  7  2  0  0  0
  6 11  1  0  0  0
  7  8  1  0  0  0
  7 10  1  0  0  0
  8  9  1  0  0  0
 10 29  1  0  0  0
 10 30  1  0  0  0
 10 31  1  0  0  0
 11 12  1  0  0  0
 11 32  1  0  0  0
 11 33  1  0  0  0
 12 13  1  0  0  0
 12 34  1  0  0  0
 13 14  1  0  0  0
 13 18  2  0  0  0
 14 15  2  0  0  0
 14 35  1  0  0  0
 15 16  1  0  0  0
 15 23  1  0  0  0
 16 17  2  0  0  0
 16 21  1  0  0  0
 17 18  1  0  0  0
 17 19  1  0  0  0
 18 36  1  0  0  0
 19 20  1  0  0  0
 20 37  1  0  0  0
 20 38  1  0  0  0
 20 39  1  0  0  0
 21 22  1  0  0  0
 22 40  1  0  0  0
 22 41  1  0  0  0
 22 42  1  0  0  0
 23 24  1  0  0  0
 24 43  1  0  0  0
 24 44  1  0  0  0
 24 45  1  0  0  0
 25 26  2  0  0  0
 27 46  1  0  0  0
 27 47  1  0  0  0
M  END
>  <ACTIVITY>
4.65758

>  <set_rl>
1

>  <Min_dist>
999.9

>  <Avg_dist>
999.9

>  <PC_uM>
22

>  <TG_uM>
9.3

>  <RL_uM>
22

$$$$
43-11
  Cerius2 12110214553D 1   1.00000                          
 
 35 37  0  0  0  0  0  0  0  0999 V2000
   -3.8525   -0.8506   -1.7295 N   0  0  0  0  0  0
   -4.9259   -0.3729   -1.0375 C   0  0  0  0  0  0
   -4.8208    0.0761    0.1922 N   0  0  0  0  0  0
   -3.6411    0.0853    0.8301 C   0  0  0  0  0  0
   -2.5025   -0.3941    0.1674 C   0  0  0  0  0  0
   -1.3915   -0.2558    1.1075 C   0  0  0  0  0  0
   -1.9007    0.2749    2.2316 C   0  0  0  0  0  0
   -3.2480    0.4826    2.0745 N   0  0  0  0  0  0
   -3.8350    0.8576    2.7495 H   0  0  0  0  0  0
   -1.1124    0.5936    3.4758 C   0  0  0  0  0  0
    0.0463   -0.6357    0.8632 C   0  0  0  0  0  0
    0.7648    0.5094    0.2988 N   0  0  0  0  0  0
    2.1223    0.3975   -0.0137 C   0  0  0  0  0  0
    2.7916   -0.7984    0.2102 C   0  0  0  0  0  0
    4.1342   -0.9059   -0.1004 C   0  0  0  0  0  0
    4.8115    0.1770   -0.6336 C   0  0  0  0  0  0
    4.1479    1.3690   -0.8577 C   0  0  0  0  0  0
    2.8041    1.4813   -0.5546 C   0  0  0  0  0  0
    1.9719    2.9785   -0.8363 Cl  0  0  0  0  0  0
    4.9719   -2.4005    0.1791 Cl  0  0  0  0  0  0
   -2.6287   -0.8742   -1.1546 C   0  0  0  0  0  0
   -1.6604   -1.2989   -1.7613 O   0  0  0  0  0  0
   -6.1560   -0.3603   -1.6460 N   0  0  0  0  0  0
   -3.9678   -1.1781   -2.6352 H   0  0  0  0  0  0
   -0.7348    1.6143    3.4152 H   0  0  0  0  0  0
   -1.7571    0.4960    4.3493 H   0  0  0  0  0  0
   -0.2753   -0.0990    3.5629 H   0  0  0  0  0  0
    0.5102   -0.9272    1.8055 H   0  0  0  0  0  0
    0.0876   -1.4710    0.1642 H   0  0  0  0  0  0
    0.2983    1.3453    0.1419 H   0  0  0  0  0  0
    2.2637   -1.6435    0.6269 H   0  0  0  0  0  0
    5.8607    0.0907   -0.8748 H   0  0  0  0  0  0
    4.6793    2.2123   -1.2735 H   0  0  0  0  0  0
   -6.9301   -0.0239   -1.1681 H   0  0  0  0  0  0
   -6.2512   -0.6880   -2.5540 H   0  0  0  0  0  0
  1  2  1  0  0  0
  1 21  1  0  0  0
  1 24  1  0  0  0
  2  3  2  0  0  0
  2 23  1  0  0  0
  3  4  1  0  0  0
  4  5  2  0  0  0
  4  8  1  0  0  0
  5  6  1  0  0  0
  5 21  1  0  0  0
  6  7  2  0  0  0
  6 11  1  0  0  0
  7  8  1  0  0  0
  7 10  1  0  0  0
  8  9  1  0  0  0
 10 25  1  0  0  0
 10 26  1  0  0  0
 10 27  1  0  0  0
 11 12  1  0  0  0
 11 28  1  0  0  0
 11 29  1  0  0  0
 12 13  1  0  0  0
 12 30  1  0  0  0
 13 14  1  0  0  0
 13 18  2  0  0  0
 14 15  2  0  0  0
 14 31  1  0  0  0
 15 16  1  0  0  0
 15 20  1  0  0  0
 16 17  2  0  0  0
 16 32  1  0  0  0
 17 18  1  0  0  0
 17 33  1  0  0  0
 18 19  1  0  0  0
 21 22  2  0  0  0
 23 34  1  0  0  0
 23 35  1  0  0  0
M  END
>  <ACTIVITY>
4.60206

>  <set_rl>
1

>  <Min_dist>
999.9

>  <Avg_dist>
999.9

>  <PC_uM>
25

>  <TG_uM>
0.66

>  <RL_uM>
25

$$$$
43-16
  Cerius2 12110214553D 1   1.00000                          
 
 46 48  0  0  0  0  0  0  0  0999 V2000
   -4.7433    1.0119   -0.1241 N   0  0  0  0  0  0
   -5.1555    0.1057    0.8075 C   0  0  0  0  0  0
   -4.3999   -0.8995    1.1866 N   0  0  0  0  0  0
   -3.1761   -1.0825    0.6695 C   0  0  0  0  0  0
   -2.6995   -0.1813   -0.2929 C   0  0  0  0  0  0
   -1.3598   -0.6397   -0.6569 C   0  0  0  0  0  0
   -1.1167   -1.7406    0.0735 C   0  0  0  0  0  0
   -2.1995   -2.0133    0.8712 N   0  0  0  0  0  0
   -2.2613   -2.7590    1.4885 H   0  0  0  0  0  0
    0.1519   -2.5524    0.0245 C   0  0  0  0  0  0
   -0.4318   -0.0014   -1.6581 C   0  0  0  0  0  0
    0.3946    1.0044   -0.9860 N   0  0  0  0  0  0
    1.6797    0.6743   -0.5500 C   0  0  0  0  0  0
    2.4146    1.5843    0.1983 C   0  0  0  0  0  0
    3.6899    1.2556    0.6310 C   0  0  0  0  0  0
    4.2319    0.0182    0.3167 C   0  0  0  0  0  0
    3.4988   -0.8912   -0.4310 C   0  0  0  0  0  0
    2.2210   -0.5664   -0.8598 C   0  0  0  0  0  0
    4.0311   -2.1030   -0.7392 O   0  0  0  0  0  0
    5.3371   -2.1397   -0.1603 C   0  0  0  0  0  0
    4.4095    2.1462    1.3630 O   0  0  0  0  0  0
    5.6632    1.5250    1.6533 C   0  0  0  0  0  0
   -0.1270    2.3564   -0.7712 C   0  0  0  0  0  0
   -3.5215    0.8953   -0.6920 C   0  0  0  0  0  0
   -3.1401    1.6980   -1.5265 O   0  0  0  0  0  0
   -6.4002    0.2488    1.3677 N   0  0  0  0  0  0
   -5.3296    1.7400   -0.3831 H   0  0  0  0  0  0
    0.8949   -2.1057    0.6851 H   0  0  0  0  0  0
   -0.0564   -3.5720    0.3488 H   0  0  0  0  0  0
    0.5348   -2.5668   -0.9960 H   0  0  0  0  0  0
    0.2104   -0.7652   -2.0967 H   0  0  0  0  0  0
   -1.0176    0.4758   -2.4438 H   0  0  0  0  0  0
    1.9928    2.5480    0.4428 H   0  0  0  0  0  0
    5.2256   -0.2372    0.6542 H   0  0  0  0  0  0
    1.6503   -1.2746   -1.4421 H   0  0  0  0  0  0
    5.8061   -3.0983   -0.3822 H   0  0  0  0  0  0
    5.9419   -1.3342   -0.5768 H   0  0  0  0  0  0
    5.2594   -2.0146    0.9197 H   0  0  0  0  0  0
    6.2782    2.2054    2.2423 H   0  0  0  0  0  0
    5.4925    0.6084    2.2180 H   0  0  0  0  0  0
    6.1754    1.2871    0.7209 H   0  0  0  0  0  0
   -1.1370    2.4246   -1.1753 H   0  0  0  0  0  0
   -0.1477    2.5724    0.2970 H   0  0  0  0  0  0
    0.5156    3.0781   -1.2754 H   0  0  0  0  0  0
   -6.7091   -0.3870    2.0319 H   0  0  0  0  0  0
   -6.9709    0.9857    1.0993 H   0  0  0  0  0  0
  1  2  1  0  0  0
  1 24  1  0  0  0
  1 27  1  0  0  0
  2  3  2  0  0  0
  2 26  1  0  0  0
  3  4  1  0  0  0
  4  5  2  0  0  0
  4  8  1  0  0  0
  5  6  1  0  0  0
  5 24  1  0  0  0
  6  7  2  0  0  0
  6 11  1  0  0  0
  7  8  1  0  0  0
  7 10  1  0  0  0
  8  9  1  0  0  0
 10 28  1  0  0  0
 10 29  1  0  0  0
 10 30  1  0  0  0
 11 12  1  0  0  0
 11 31  1  0  0  0
 11 32  1  0  0  0
 12 13  1  0  0  0
 12 23  1  0  0  0
 13 14  1  0  0  0
 13 18  2  0  0  0
 14 15  2  0  0  0
 14 33  1  0  0  0
 15 16  1  0  0  0
 15 21  1  0  0  0
 16 17  2  0  0  0
 16 34  1  0  0  0
 17 18  1  0  0  0
 17 19  1  0  0  0
 18 35  1  0  0  0
 19 20  1  0  0  0
 20 36  1  0  0  0
 20 37  1  0  0  0
 20 38  1  0  0  0
 21 22  1  0  0  0
 22 39  1  0  0  0
 22 40  1  0  0  0
 22 41  1  0  0  0
 23 42  1  0  0  0
 23 43  1  0  0  0
 23 44  1  0  0  0
 24 25  2  0  0  0
 26 45  1  0  0  0
 26 46  1  0  0  0
M  END
>  <ACTIVITY>
4.06048

>  <set_rl>
1

>  <Min_dist>
999.9

>  <Avg_dist>
999.9

>  <PC_uM>
87

>  <TG_uM>
4.2

>  <RL_uM>
87

$$$$
43-17
  Cerius2 12110214553D 1   1.00000                          
 
 50 52  0  0  0  0  0  0  0  0999 V2000
   -5.0945   -0.4703   -0.8249 N   0  0  0  0  0  0
   -5.4833    0.5933   -0.0656 C   0  0  0  0  0  0
   -4.6817    1.1582    0.8081 N   0  0  0  0  0  0
   -3.4316    0.7102    0.9952 C   0  0  0  0  0  0
   -2.9771   -0.3813    0.2418 C   0  0  0  0  0  0
   -1.6000   -0.6283    0.6660 C   0  0  0  0  0  0
   -1.3162    0.2867    1.6078 C   0  0  0  0  0  0
   -2.4078    1.0929    1.8115 N   0  0  0  0  0  0
   -2.4457    1.8279    2.4434 H   0  0  0  0  0  0
    0.0005    0.4091    2.3305 C   0  0  0  0  0  0
   -0.6779   -1.7017    0.1479 C   0  0  0  0  0  0
    0.1806   -1.1440   -0.9000 N   0  0  0  0  0  0
    1.4229   -0.5933   -0.5670 C   0  0  0  0  0  0
    2.4092   -1.3940   -0.0072 C   0  0  0  0  0  0
    3.6403   -0.8490    0.3230 C   0  0  0  0  0  0
    3.8870    0.4992    0.0934 C   0  0  0  0  0  0
    2.8993    1.3000   -0.4670 C   0  0  0  0  0  0
    1.6706    0.7524   -0.8019 C   0  0  0  0  0  0
    3.1398    2.6195   -0.6920 O   0  0  0  0  0  0
    1.9158    3.1883   -1.1612 C   0  0  0  0  0  0
    5.0961    1.0354    0.4179 O   0  0  0  0  0  0
    5.9308    0.8995   -0.7340 C   0  0  0  0  0  0
    4.6062   -1.6334    0.8718 O   0  0  0  0  0  0
    4.0577   -2.9484    0.9810 C   0  0  0  0  0  0
   -0.2616   -1.1630   -2.2965 C   0  0  0  0  0  0
   -3.8487   -0.9799   -0.6942 C   0  0  0  0  0  0
   -3.4878   -1.9307   -1.3663 O   0  0  0  0  0  0
   -6.7533    1.0900   -0.2195 N   0  0  0  0  0  0
   -5.7146   -0.8652   -1.4578 H   0  0  0  0  0  0
    0.6287    1.1392    1.8200 H   0  0  0  0  0  0
   -0.1765    0.7355    3.3553 H   0  0  0  0  0  0
    0.5018   -0.5588    2.3388 H   0  0  0  0  0  0
   -0.0593   -2.0745    0.9643 H   0  0  0  0  0  0
   -1.2684   -2.5204   -0.2636 H   0  0  0  0  0  0
    2.2172   -2.4416    0.1715 H   0  0  0  0  0  0
    0.9030    1.3746   -1.2378 H   0  0  0  0  0  0
    2.0560    4.2542   -1.3412 H   0  0  0  0  0  0
    1.6199    2.6990   -2.0892 H   0  0  0  0  0  0
    1.1379    3.0458   -0.4112 H   0  0  0  0  0  0
    6.9148    1.3171   -0.5209 H   0  0  0  0  0  0
    6.0311   -0.1559   -0.9875 H   0  0  0  0  0  0
    5.4831    1.4335   -1.5721 H   0  0  0  0  0  0
    4.7997   -3.6164    1.4183 H   0  0  0  0  0  0
    3.1732   -2.9214    1.6175 H   0  0  0  0  0  0
    3.7817   -3.3104   -0.0094 H   0  0  0  0  0  0
   -1.2458   -1.6271   -2.3597 H   0  0  0  0  0  0
   -0.3165   -0.1420   -2.6742 H   0  0  0  0  0  0
    0.4484   -1.7340   -2.8948 H   0  0  0  0  0  0
   -7.0462    1.8463    0.3127 H   0  0  0  0  0  0
   -7.3582    0.6849   -0.8606 H   0  0  0  0  0  0
  1  2  1  0  0  0
  1 26  1  0  0  0
  1 29  1  0  0  0
  2  3  2  0  0  0
  2 28  1  0  0  0
  3  4  1  0  0  0
  4  5  2  0  0  0
  4  8  1  0  0  0
  5  6  1  0  0  0
  5 26  1  0  0  0
  6  7  2  0  0  0
  6 11  1  0  0  0
  7  8  1  0  0  0
  7 10  1  0  0  0
  8  9  1  0  0  0
 10 30  1  0  0  0
 10 31  1  0  0  0
 10 32  1  0  0  0
 11 12  1  0  0  0
 11 33  1  0  0  0
 11 34  1  0  0  0
 12 13  1  0  0  0
 12 25  1  0  0  0
 13 14  1  0  0  0
 13 18  2  0  0  0
 14 15  2  0  0  0
 14 35  1  0  0  0
 15 16  1  0  0  0
 15 23  1  0  0  0
 16 17  2  0  0  0
 16 21  1  0  0  0
 17 18  1  0  0  0
 17 19  1  0  0  0
 18 36  1  0  0  0
 19 20  1  0  0  0
 20 37  1  0  0  0
 20 38  1  0  0  0
 20 39  1  0  0  0
 21 22  1  0  0  0
 22 40  1  0  0  0
 22 41  1  0  0  0
 22 42  1  0  0  0
 23 24  1  0  0  0
 24 43  1  0  0  0
 24 44  1  0  0  0
 24 45  1  0  0  0
 25 46  1  0  0  0
 25 47  1  0  0  0
 25 48  1  0  0  0
 26 27  2  0  0  0
 28 49  1  0  0  0
 28 50  1  0  0  0
M  END
>  <ACTIVITY>
4.34679

>  <set_rl>
1

>  <Min_dist>
999.9

>  <Avg_dist>
999.9

>  <PC_uM>
45

>  <TG_uM>
37

>  <RL_uM>
45

$$$$
43-14
  Cerius2 12110214553D 1   1.00000                          
 
 35 37  0  0  0  0  0  0  0  0999 V2000
   -3.6214   -1.9099    0.0649 N   0  0  0  0  0  0
   -4.7104   -1.1004   -0.0689 C   0  0  0  0  0  0
   -4.6126    0.2094   -0.0612 N   0  0  0  0  0  0
   -3.4252    0.8166    0.0800 C   0  0  0  0  0  0
   -2.2704    0.0343    0.2216 C   0  0  0  0  0  0
   -1.1544    0.9694    0.3531 C   0  0  0  0  0  0
   -1.6765    2.2054    0.2863 C   0  0  0  0  0  0
   -3.0365    2.1235    0.1227 N   0  0  0  0  0  0
   -3.6341    2.8838    0.0480 H   0  0  0  0  0  0
   -0.8886    3.4867    0.3772 C   0  0  0  0  0  0
    0.2997    0.6154    0.5301 C   0  0  0  0  0  0
    0.9366    0.4958   -0.7837 N   0  0  0  0  0  0
    2.2923    0.1724   -0.8758 C   0  0  0  0  0  0
    2.8978    0.0585   -2.1211 C   0  0  0  0  0  0
    4.2382   -0.2614   -2.2093 C   0  0  0  0  0  0
    4.9785   -0.4691   -1.0598 C   0  0  0  0  0  0
    4.3790   -0.3571    0.1824 C   0  0  0  0  0  0
    3.0390   -0.0305    0.2774 C   0  0  0  0  0  0
    5.3119   -0.6197    1.6226 Cl  0  0  0  0  0  0
   -2.3890   -1.3728    0.2117 C   0  0  0  0  0  0
   -1.4067   -2.0845    0.3327 O   0  0  0  0  0  0
   -5.9490   -1.6727   -0.2168 N   0  0  0  0  0  0
   -3.7315   -2.8736    0.0587 H   0  0  0  0  0  0
   -0.5757    3.7925   -0.6211 H   0  0  0  0  0  0
   -1.5112    4.2657    0.8173 H   0  0  0  0  0  0
   -0.0089    3.3289    1.0012 H   0  0  0  0  0  0
    0.7965    1.3970    1.1049 H   0  0  0  0  0  0
    0.3807   -0.3331    1.0609 H   0  0  0  0  0  0
    0.4169    0.6412   -1.5897 H   0  0  0  0  0  0
    2.3205    0.2198   -3.0195 H   0  0  0  0  0  0
    4.7090   -0.3499   -3.1773 H   0  0  0  0  0  0
    6.0266   -0.7195   -1.1318 H   0  0  0  0  0  0
    2.5713    0.0572    1.2468 H   0  0  0  0  0  0
   -6.7342   -1.1115   -0.3131 H   0  0  0  0  0  0
   -6.0391   -2.6385   -0.2249 H   0  0  0  0  0  0
  1  2  1  0  0  0
  1 20  1  0  0  0
  1 23  1  0  0  0
  2  3  2  0  0  0
  2 22  1  0  0  0
  3  4  1  0  0  0
  4  5  2  0  0  0
  4  8  1  0  0  0
  5  6  1  0  0  0
  5 20  1  0  0  0
  6  7  2  0  0  0
  6 11  1  0  0  0
  7  8  1  0  0  0
  7 10  1  0  0  0
  8  9  1  0  0  0
 10 24  1  0  0  0
 10 25  1  0  0  0
 10 26  1  0  0  0
 11 12  1  0  0  0
 11 27  1  0  0  0
 11 28  1  0  0  0
 12 13  1  0  0  0
 12 29  1  0  0  0
 13 14  1  0  0  0
 13 18  2  0  0  0
 14 15  2  0  0  0
 14 30  1  0  0  0
 15 16  1  0  0  0
 15 31  1  0  0  0
 16 17  2  0  0  0
 16 32  1  0  0  0
 17 18  1  0  0  0
 17 19  1  0  0  0
 18 33  1  0  0  0
 20 21  2  0  0  0
 22 34  1  0  0  0
 22 35  1  0  0  0
M  END
>  <ACTIVITY>
4.58503

>  <set_rl>
1

>  <Min_dist>
999.9

>  <Avg_dist>
999.9

>  <PC_uM>
26

>  <TG_uM>
3.5

>  <RL_uM>
26

$$$$
44-2
  Cerius2 12110214553D 1   1.00000                          
 
 27 29  0  0  0  0  0  0  0  0999 V2000
   -3.5658    0.5735   -0.0866 N   0  0  0  0  0  0
   -3.5452   -0.7388    0.1098 C   0  0  0  0  0  0
   -2.4157   -1.4204    0.2125 N   0  0  0  0  0  0
   -1.2420   -0.8033    0.1204 C   0  0  0  0  0  0
   -1.2138    0.5868   -0.0881 C   0  0  0  0  0  0
   -2.4400    1.2701   -0.1907 C   0  0  0  0  0  0
   -2.4718    2.6378   -0.3963 N   0  0  0  0  0  0
    0.0849    0.9607   -0.1437 N   0  0  0  0  0  0
    0.8489   -0.0919    0.0145 C   0  0  0  0  0  0
    0.0677   -1.2081    0.1816 N   0  0  0  0  0  0
    0.3831   -2.1153    0.3178 H   0  0  0  0  0  0
    2.3278   -0.0794    0.0122 C   0  0  0  0  0  0
    3.0208    0.9560    0.6407 C   0  0  0  0  0  0
    4.4004    0.9618    0.6349 C   0  0  0  0  0  0
    5.0968   -0.0561    0.0079 C   0  0  0  0  0  0
    4.4157   -1.0856   -0.6170 C   0  0  0  0  0  0
    3.0362   -1.1061   -0.6134 C   0  0  0  0  0  0
   -4.7476   -1.4185    0.2113 N   0  0  0  0  0  0
   -3.3227    3.0982   -0.4654 H   0  0  0  0  0  0
   -1.6431    3.1363   -0.4714 H   0  0  0  0  0  0
    2.4783    1.7514    1.1301 H   0  0  0  0  0  0
    4.9379    1.7627    1.1206 H   0  0  0  0  0  0
    6.1767   -0.0468    0.0059 H   0  0  0  0  0  0
    4.9651   -1.8772   -1.1047 H   0  0  0  0  0  0
    2.5057   -1.9105   -1.1013 H   0  0  0  0  0  0
   -5.5855   -0.9352    0.1388 H   0  0  0  0  0  0
   -4.7518   -2.3778    0.3549 H   0  0  0  0  0  0
  1  2  1  0  0  0
  1  6  2  0  0  0
  2  3  2  0  0  0
  2 18  1  0  0  0
  3  4  1  0  0  0
  4  5  2  0  0  0
  4 10  1  0  0  0
  5  6  1  0  0  0
  5  8  1  0  0  0
  6  7  1  0  0  0
  7 19  1  0  0  0
  7 20  1  0  0  0
  8  9  2  0  0  0
  9 10  1  0  0  0
  9 12  1  0  0  0
 10 11  1  0  0  0
 12 13  1  0  0  0
 12 17  2  0  0  0
 13 14  2  0  0  0
 13 21  1  0  0  0
 14 15  1  0  0  0
 14 22  1  0  0  0
 15 16  2  0  0  0
 15 23  1  0  0  0
 16 17  1  0  0  0
 16 24  1  0  0  0
 17 25  1  0  0  0
 18 26  1  0  0  0
 18 27  1  0  0  0
M  END
>  <ACTIVITY>
4.22257

>  <set_rl>
1

>  <Min_dist>
999.9

>  <Avg_dist>
999.9

>  <PC_uM>
153

>  <TG_uM>
28

>  <RL_uM>
59.9

$$$$
44-8
  Cerius2 12110214553D 1   1.00000                          
 
 35 37  0  0  0  0  0  0  0  0999 V2000
   -4.7921    0.5170   -0.2366 N   0  0  0  0  0  0
   -4.7654   -0.6927    0.3086 C   0  0  0  0  0  0
   -3.6328   -1.3160    0.5904 N   0  0  0  0  0  0
   -2.4620   -0.7421    0.3323 C   0  0  0  0  0  0
   -2.4401    0.5393   -0.2457 C   0  0  0  0  0  0
   -3.6696    1.1640   -0.5277 C   0  0  0  0  0  0
   -3.7076    2.4244   -1.0967 N   0  0  0  0  0  0
   -1.1432    0.8899   -0.4023 N   0  0  0  0  0  0
   -0.3744   -0.0768    0.0347 C   0  0  0  0  0  0
   -1.1504   -1.1093    0.4995 N   0  0  0  0  0  0
   -0.8308   -1.9441    0.8761 H   0  0  0  0  0  0
    1.1045   -0.0587    0.0276 C   0  0  0  0  0  0
    1.7912    1.1116    0.3508 C   0  0  0  0  0  0
    3.1763    1.1244    0.3429 C   0  0  0  0  0  0
    3.8805   -0.0247    0.0136 C   0  0  0  0  0  0
    3.2014   -1.1908   -0.3085 C   0  0  0  0  0  0
    1.8165   -1.2136   -0.2969 C   0  0  0  0  0  0
    3.8959   -2.3137   -0.6304 O   0  0  0  0  0  0
    5.2828   -1.9794   -0.5483 C   0  0  0  0  0  0
    3.8462    2.2641    0.6577 O   0  0  0  0  0  0
    5.2400    1.9638    0.5617 C   0  0  0  0  0  0
   -5.9646   -1.3243    0.5927 N   0  0  0  0  0  0
   -4.5607    2.8452   -1.2867 H   0  0  0  0  0  0
   -2.8812    2.8873   -1.3057 H   0  0  0  0  0  0
    1.2437    2.0067    0.6066 H   0  0  0  0  0  0
    4.9604   -0.0113    0.0077 H   0  0  0  0  0  0
    1.2885   -2.1218   -0.5474 H   0  0  0  0  0  0
    5.8829   -2.8540   -0.7995 H   0  0  0  0  0  0
    5.5043   -1.1736   -1.2481 H   0  0  0  0  0  0
    5.5191   -1.6555    0.4653 H   0  0  0  0  0  0
    5.8210    2.8530    0.8068 H   0  0  0  0  0  0
    5.4882    1.1639    1.2593 H   0  0  0  0  0  0
    5.4740    1.6456   -0.4542 H   0  0  0  0  0  0
   -6.8048   -0.8824    0.3933 H   0  0  0  0  0  0
   -5.9644   -2.2087    0.9913 H   0  0  0  0  0  0
  1  2  1  0  0  0
  1  6  2  0  0  0
  2  3  2  0  0  0
  2 22  1  0  0  0
  3  4  1  0  0  0
  4  5  2  0  0  0
  4 10  1  0  0  0
  5  6  1  0  0  0
  5  8  1  0  0  0
  6  7  1  0  0  0
  7 23  1  0  0  0
  7 24  1  0  0  0
  8  9  2  0  0  0
  9 10  1  0  0  0
  9 12  1  0  0  0
 10 11  1  0  0  0
 12 13  1  0  0  0
 12 17  2  0  0  0
 13 14  2  0  0  0
 13 25  1  0  0  0
 14 15  1  0  0  0
 14 20  1  0  0  0
 15 16  2  0  0  0
 15 26  1  0  0  0
 16 17  1  0  0  0
 16 18  1  0  0  0
 17 27  1  0  0  0
 18 19  1  0  0  0
 19 28  1  0  0  0
 19 29  1  0  0  0
 19 30  1  0  0  0
 20 21  1  0  0  0
 21 31  1  0  0  0
 21 32  1  0  0  0
 21 33  1  0  0  0
 22 34  1  0  0  0
 22 35  1  0  0  0
M  END
>  <ACTIVITY>
4.48945

>  <set_rl>
1

>  <Min_dist>
999.9

>  <Avg_dist>
999.9

>  <PC_uM>
9

>  <TG_uM>
3

>  <RL_uM>
32.4

$$$$
44-9
  Cerius2 12110214553D 1   1.00000                          
 
 35 37  0  0  0  0  0  0  0  0999 V2000
   -4.7305    0.5372    0.2346 N   0  0  0  0  0  0
   -4.7582   -0.6790   -0.2958 C   0  0  0  0  0  0
   -3.6551   -1.3620   -0.5552 N   0  0  0  0  0  0
   -2.4601   -0.8442   -0.2892 C   0  0  0  0  0  0
   -2.3808    0.4417    0.2728 C   0  0  0  0  0  0
   -3.5803    1.1306    0.5320 C   0  0  0  0  0  0
   -3.5615    2.3992    1.0839 N   0  0  0  0  0  0
   -1.0693    0.7288    0.4424 N   0  0  0  0  0  0
   -0.3447   -0.2816    0.0277 C   0  0  0  0  0  0
   -1.1665   -1.2796   -0.4344 N   0  0  0  0  0  0
   -0.8850   -2.1345   -0.7961 H   0  0  0  0  0  0
    1.1320   -0.3378    0.0532 C   0  0  0  0  0  0
    1.7809   -1.5235    0.4020 C   0  0  0  0  0  0
    3.1589   -1.5745    0.4253 C   0  0  0  0  0  0
    3.9032   -0.4492    0.1022 C   0  0  0  0  0  0
    3.2618    0.7371   -0.2471 C   0  0  0  0  0  0
    1.8808    0.7932   -0.2771 C   0  0  0  0  0  0
    3.9942    1.8387   -0.5629 O   0  0  0  0  0  0
    3.0640    2.8786   -0.8716 C   0  0  0  0  0  0
    5.2610   -0.5042    0.1271 O   0  0  0  0  0  0
    5.6136   -1.8331    0.5166 C   0  0  0  0  0  0
   -5.9844   -1.2534   -0.5874 N   0  0  0  0  0  0
   -4.3945    2.8647    1.2583 H   0  0  0  0  0  0
   -2.7154    2.8232    1.2965 H   0  0  0  0  0  0
    1.2038   -2.4010    0.6539 H   0  0  0  0  0  0
    3.6596   -2.4923    0.6960 H   0  0  0  0  0  0
    1.3823    1.7122   -0.5478 H   0  0  0  0  0  0
    3.6075    3.7867   -1.1323 H   0  0  0  0  0  0
    2.4430    2.5725   -1.7134 H   0  0  0  0  0  0
    2.4318    3.0698   -0.0044 H   0  0  0  0  0  0
    6.6991   -1.9258    0.5507 H   0  0  0  0  0  0
    5.1997   -2.0446    1.5026 H   0  0  0  0  0  0
    5.2108   -2.5425   -0.2063 H   0  0  0  0  0  0
   -6.8036   -0.7675   -0.4037 H   0  0  0  0  0  0
   -6.0239   -2.1415   -0.9754 H   0  0  0  0  0  0
  1  2  1  0  0  0
  1  6  2  0  0  0
  2  3  2  0  0  0
  2 22  1  0  0  0
  3  4  1  0  0  0
  4  5  2  0  0  0
  4 10  1  0  0  0
  5  6  1  0  0  0
  5  8  1  0  0  0
  6  7  1  0  0  0
  7 23  1  0  0  0
  7 24  1  0  0  0
  8  9  2  0  0  0
  9 10  1  0  0  0
  9 12  1  0  0  0
 10 11  1  0  0  0
 12 13  1  0  0  0
 12 17  2  0  0  0
 13 14  2  0  0  0
 13 25  1  0  0  0
 14 15  1  0  0  0
 14 26  1  0  0  0
 15 16  2  0  0  0
 15 20  1  0  0  0
 16 17  1  0  0  0
 16 18  1  0  0  0
 17 27  1  0  0  0
 18 19  1  0  0  0
 19 28  1  0  0  0
 19 29  1  0  0  0
 19 30  1  0  0  0
 20 21  1  0  0  0
 21 31  1  0  0  0
 21 32  1  0  0  0
 21 33  1  0  0  0
 22 34  1  0  0  0
 22 35  1  0  0  0
M  END
>  <ACTIVITY>
4.2815

>  <set_rl>
1

>  <Min_dist>
999.9

>  <Avg_dist>
999.9

>  <PC_uM>
12

>  <TG_uM>
14.2

>  <RL_uM>
52.3

$$$$
44-10
  Cerius2 12110214553D 1   1.00000                          
 
 35 37  0  0  0  0  0  0  0  0999 V2000
   -4.5644    0.3661    0.2822 N   0  0  0  0  0  0
   -4.5540   -0.8476   -0.2541 C   0  0  0  0  0  0
   -3.4298   -1.4897   -0.5273 N   0  0  0  0  0  0
   -2.2515   -0.9310   -0.2698 C   0  0  0  0  0  0
   -2.2126    0.3540    0.2979 C   0  0  0  0  0  0
   -3.4329    0.9985    0.5718 C   0  0  0  0  0  0
   -3.4538    2.2646    1.1302 N   0  0  0  0  0  0
   -0.9101    0.6868    0.4573 N   0  0  0  0  0  0
   -0.1537   -0.2958    0.0306 C   0  0  0  0  0  0
   -0.9443   -1.3199   -0.4291 N   0  0  0  0  0  0
   -0.6363   -2.1624   -0.7982 H   0  0  0  0  0  0
    1.3228   -0.3001    0.0428 C   0  0  0  0  0  0
    2.0174   -1.4637    0.3794 C   0  0  0  0  0  0
    3.3949   -1.4642    0.3898 C   0  0  0  0  0  0
    4.0972   -0.3090    0.0664 C   0  0  0  0  0  0
    3.4162    0.8517   -0.2694 C   0  0  0  0  0  0
    2.0321    0.8618   -0.2891 C   0  0  0  0  0  0
    1.3639    1.9971   -0.6180 O   0  0  0  0  0  0
    2.3514    2.9942   -0.8877 C   0  0  0  0  0  0
    5.4554   -0.3168    0.0796 O   0  0  0  0  0  0
    5.8571   -1.6348    0.4584 C   0  0  0  0  0  0
   -5.7619   -1.4639   -0.5373 N   0  0  0  0  0  0
   -4.3011    2.6993    1.3148 H   0  0  0  0  0  0
   -2.6212    2.7172    1.3371 H   0  0  0  0  0  0
    1.4749   -2.3628    0.6319 H   0  0  0  0  0  0
    3.9309   -2.3648    0.6504 H   0  0  0  0  0  0
    3.9661    1.7469   -0.5200 H   0  0  0  0  0  0
    1.8597    3.9288   -1.1577 H   0  0  0  0  0  0
    2.9634    3.1491    0.0009 H   0  0  0  0  0  0
    2.9842    2.6652   -1.7119 H   0  0  0  0  0  0
    6.9455   -1.6899    0.4829 H   0  0  0  0  0  0
    5.4593   -1.8661    1.4464 H   0  0  0  0  0  0
    5.4731   -2.3538   -0.2653 H   0  0  0  0  0  0
   -6.5961   -1.0083   -0.3434 H   0  0  0  0  0  0
   -5.7736   -2.3510   -0.9295 H   0  0  0  0  0  0
  1  2  1  0  0  0
  1  6  2  0  0  0
  2  3  2  0  0  0
  2 22  1  0  0  0
  3  4  1  0  0  0
  4  5  2  0  0  0
  4 10  1  0  0  0
  5  6  1  0  0  0
  5  8  1  0  0  0
  6  7  1  0  0  0
  7 23  1  0  0  0
  7 24  1  0  0  0
  8  9  2  0  0  0
  9 10  1  0  0  0
  9 12  1  0  0  0
 10 11  1  0  0  0
 12 13  1  0  0  0
 12 17  2  0  0  0
 13 14  2  0  0  0
 13 25  1  0  0  0
 14 15  1  0  0  0
 14 26  1  0  0  0
 15 16  2  0  0  0
 15 20  1  0  0  0
 16 17  1  0  0  0
 16 27  1  0  0  0
 17 18  1  0  0  0
 18 19  1  0  0  0
 19 28  1  0  0  0
 19 29  1  0  0  0
 19 30  1  0  0  0
 20 21  1  0  0  0
 21 31  1  0  0  0
 21 32  1  0  0  0
 21 33  1  0  0  0
 22 34  1  0  0  0
 22 35  1  0  0  0
M  END
>  <ACTIVITY>
6.04576

>  <set_rl>
1

>  <Min_dist>
999.9

>  <Avg_dist>
999.9

>  <PC_uM>
14

>  <TG_uM>
2.4

>  <RL_uM>
0.9

$$$$
44-12
  Cerius2 12110214553D 1   1.00000                          
 
 27 29  0  0  0  0  0  0  0  0999 V2000
   -4.0739    0.4956   -0.2831 N   0  0  0  0  0  0
   -4.0439   -0.6663    0.3574 C   0  0  0  0  0  0
   -2.9095   -1.2616    0.6885 N   0  0  0  0  0  0
   -1.7404   -0.7067    0.3853 C   0  0  0  0  0  0
   -1.7221    0.5241   -0.2935 C   0  0  0  0  0  0
   -2.9531    1.1205   -0.6250 C   0  0  0  0  0  0
   -2.9946    2.3311   -1.2933 N   0  0  0  0  0  0
   -0.4258    0.8648   -0.4782 N   0  0  0  0  0  0
    0.3458   -0.0619    0.0348 C   0  0  0  0  0  0
   -0.4276   -1.0559    0.5812 N   0  0  0  0  0  0
   -0.1058   -1.8568    1.0237 H   0  0  0  0  0  0
    1.8239   -0.0406    0.0259 C   0  0  0  0  0  0
    2.5098    1.1544    0.2541 C   0  0  0  0  0  0
    3.8907    1.1668    0.2442 C   0  0  0  0  0  0
    4.5945   -0.0006    0.0089 C   0  0  0  0  0  0
    3.9218   -1.1879   -0.2179 C   0  0  0  0  0  0
    2.5412   -1.2165   -0.2052 C   0  0  0  0  0  0
    1.6991   -2.7076   -0.4902 Cl  0  0  0  0  0  0
    1.6286    2.6208    0.5490 Cl  0  0  0  0  0  0
   -5.2415   -1.2768    0.6911 N   0  0  0  0  0  0
   -3.8488    2.7328   -1.5166 H   0  0  0  0  0  0
   -2.1694    2.7782   -1.5386 H   0  0  0  0  0  0
    4.4224    2.0903    0.4202 H   0  0  0  0  0  0
    5.6743    0.0151    0.0020 H   0  0  0  0  0  0
    4.4778   -2.0955   -0.4009 H   0  0  0  0  0  0
   -6.0828   -0.8548    0.4567 H   0  0  0  0  0  0
   -5.2388   -2.1263    1.1593 H   0  0  0  0  0  0
  1  2  1  0  0  0
  1  6  2  0  0  0
  2  3  2  0  0  0
  2 20  1  0  0  0
  3  4  1  0  0  0
  4  5  2  0  0  0
  4 10  1  0  0  0
  5  6  1  0  0  0
  5  8  1  0  0  0
  6  7  1  0  0  0
  7 21  1  0  0  0
  7 22  1  0  0  0
  8  9  2  0  0  0
  9 10  1  0  0  0
  9 12  1  0  0  0
 10 11  1  0  0  0
 12 13  1  0  0  0
 12 17  2  0  0  0
 13 14  2  0  0  0
 13 19  1  0  0  0
 14 15  1  0  0  0
 14 23  1  0  0  0
 15 16  2  0  0  0
 15 24  1  0  0  0
 16 17  1  0  0  0
 16 25  1  0  0  0
 17 18  1  0  0  0
 20 26  1  0  0  0
 20 27  1  0  0  0
M  END
>  <ACTIVITY>
4.95861

>  <set_rl>
1

>  <Min_dist>
999.9

>  <Avg_dist>
999.9

>  <PC_uM>
11

>  <TG_uM>
11

>  <RL_uM>
11

$$$$
44-17
  Cerius2 12110214553D 1   1.00000                          
 
 33 36  0  0  0  0  0  0  0  0999 V2000
   -4.6796    0.7604    0.0937 N   0  0  0  0  0  0
   -4.7636   -0.5076   -0.2889 C   0  0  0  0  0  0
   -3.6942   -1.2710   -0.4452 N   0  0  0  0  0  0
   -2.4774   -0.7857   -0.2204 C   0  0  0  0  0  0
   -2.3385    0.5529    0.1868 C   0  0  0  0  0  0
   -3.5041    1.3270    0.3399 C   0  0  0  0  0  0
   -3.4268    2.6496    0.7378 N   0  0  0  0  0  0
   -1.0169    0.7919    0.3457 N   0  0  0  0  0  0
   -0.3404   -0.2954    0.0674 C   0  0  0  0  0  0
   -1.2067   -1.2992   -0.2887 N   0  0  0  0  0  0
   -0.9653   -2.2041   -0.5413 H   0  0  0  0  0  0
    1.1313   -0.4218    0.1272 C   0  0  0  0  0  0
    1.7105   -1.6000    0.6312 C   0  0  0  0  0  0
    3.0590   -1.7398    0.6967 C   0  0  0  0  0  0
    3.8967   -0.6985    0.2568 C   0  0  0  0  0  0
    3.3247    0.4942   -0.2539 C   0  0  0  0  0  0
    1.9286    0.6185   -0.3187 C   0  0  0  0  0  0
    4.1680    1.5313   -0.6915 C   0  0  0  0  0  0
    5.5182    1.3772   -0.6194 C   0  0  0  0  0  0
    6.0801    0.2048   -0.1174 C   0  0  0  0  0  0
    5.2952   -0.8199    0.3152 C   0  0  0  0  0  0
   -6.0140   -1.0508   -0.5327 N   0  0  0  0  0  0
   -4.2367    3.1735    0.8400 H   0  0  0  0  0  0
   -2.5626    3.0532    0.9146 H   0  0  0  0  0  0
    1.0741   -2.4038    0.9708 H   0  0  0  0  0  0
    3.4890   -2.6504    1.0870 H   0  0  0  0  0  0
    1.4798    1.5214   -0.7055 H   0  0  0  0  0  0
    3.7462    2.4452   -1.0831 H   0  0  0  0  0  0
    6.1636    2.1749   -0.9563 H   0  0  0  0  0  0
    7.1547    0.1077   -0.0709 H   0  0  0  0  0  0
    5.7455   -1.7222    0.7016 H   0  0  0  0  0  0
   -6.8091   -0.5061   -0.4230 H   0  0  0  0  0  0
   -6.0947   -1.9759   -0.8131 H   0  0  0  0  0  0
  1  2  1  0  0  0
  1  6  2  0  0  0
  2  3  2  0  0  0
  2 22  1  0  0  0
  3  4  1  0  0  0
  4  5  2  0  0  0
  4 10  1  0  0  0
  5  6  1  0  0  0
  5  8  1  0  0  0
  6  7  1  0  0  0
  7 23  1  0  0  0
  7 24  1  0  0  0
  8  9  2  0  0  0
  9 10  1  0  0  0
  9 12  1  0  0  0
 10 11  1  0  0  0
 12 13  1  0  0  0
 12 17  2  0  0  0
 13 14  2  0  0  0
 13 25  1  0  0  0
 14 15  1  0  0  0
 14 26  1  0  0  0
 15 16  2  0  0  0
 15 21  1  0  0  0
 16 17  1  0  0  0
 16 18  1  0  0  0
 17 27  1  0  0  0
 18 19  2  0  0  0
 18 28  1  0  0  0
 19 20  1  0  0  0
 19 29  1  0  0  0
 20 21  2  0  0  0
 20 30  1  0  0  0
 21 31  1  0  0  0
 22 32  1  0  0  0
 22 33  1  0  0  0
M  END
>  <ACTIVITY>
3.55284

>  <set_rl>
1

>  <Min_dist>
999.9

>  <Avg_dist>
999.9

>  <PC_uM>
113

>  <TG_uM>
27

>  <RL_uM>
280

$$$$
44-3
  Cerius2 12110214553D 1   1.00000                          
 
 39 41  0  0  0  0  0  0  0  0999 V2000
   -5.0865    0.4699   -0.1989 N   0  0  0  0  0  0
   -5.0314   -0.6913    0.4412 C   0  0  0  0  0  0
   -3.8846   -1.2800    0.7395 N   0  0  0  0  0  0
   -2.7278   -0.7188    0.4021 C   0  0  0  0  0  0
   -2.7362    0.5114   -0.2777 C   0  0  0  0  0  0
   -3.9795    1.1006   -0.5735 C   0  0  0  0  0  0
   -4.0471    2.3106   -1.2412 N   0  0  0  0  0  0
   -1.4476    0.8594   -0.4999 N   0  0  0  0  0  0
   -0.6561   -0.0626   -0.0087 C   0  0  0  0  0  0
   -1.4078   -1.0605    0.5603 N   0  0  0  0  0  0
   -1.0689   -1.8592    0.9939 H   0  0  0  0  0  0
    0.8208   -0.0330   -0.0604 C   0  0  0  0  0  0
    1.5037    1.1666    0.1473 C   0  0  0  0  0  0
    2.8860    1.1918    0.0983 C   0  0  0  0  0  0
    3.5955    0.0227   -0.1581 C   0  0  0  0  0  0
    2.9171   -1.1741   -0.3659 C   0  0  0  0  0  0
    1.5351   -1.2057   -0.3113 C   0  0  0  0  0  0
    3.6134   -2.3151   -0.6168 O   0  0  0  0  0  0
    2.6509   -3.3582   -0.7832 C   0  0  0  0  0  0
    4.9545    0.0501   -0.2062 O   0  0  0  0  0  0
    5.4199   -0.2039    1.1208 C   0  0  0  0  0  0
    3.5518    2.3603    0.3006 O   0  0  0  0  0  0
    2.5624    3.3642    0.5352 C   0  0  0  0  0  0
   -6.2154   -1.3082    0.8100 N   0  0  0  0  0  0
   -4.9096    2.7074   -1.4398 H   0  0  0  0  0  0
   -3.2319    2.7621   -1.5107 H   0  0  0  0  0  0
    0.9533    2.0744    0.3456 H   0  0  0  0  0  0
    1.0090   -2.1349   -0.4727 H   0  0  0  0  0  0
    3.1647   -4.2975   -0.9874 H   0  0  0  0  0  0
    2.0612   -3.4573    0.1281 H   0  0  0  0  0  0
    1.9926   -3.1154   -1.6174 H   0  0  0  0  0  0
    6.5098   -0.1918    1.1322 H   0  0  0  0  0  0
    5.0410    0.5665    1.7924 H   0  0  0  0  0  0
    5.0640   -1.1801    1.4501 H   0  0  0  0  0  0
    3.0512    4.3238    0.7035 H   0  0  0  0  0  0
    1.9066    3.4378   -0.3324 H   0  0  0  0  0  0
    1.9746    3.0969    1.4133 H   0  0  0  0  0  0
   -7.0656   -0.8911    0.5999 H   0  0  0  0  0  0
   -6.1944   -2.1573    1.2785 H   0  0  0  0  0  0
  1  2  1  0  0  0
  1  6  2  0  0  0
  2  3  2  0  0  0
  2 24  1  0  0  0
  3  4  1  0  0  0
  4  5  2  0  0  0
  4 10  1  0  0  0
  5  6  1  0  0  0
  5  8  1  0  0  0
  6  7  1  0  0  0
  7 25  1  0  0  0
  7 26  1  0  0  0
  8  9  2  0  0  0
  9 10  1  0  0  0
  9 12  1  0  0  0
 10 11  1  0  0  0
 12 13  1  0  0  0
 12 17  2  0  0  0
 13 14  2  0  0  0
 13 27  1  0  0  0
 14 15  1  0  0  0
 14 22  1  0  0  0
 15 16  2  0  0  0
 15 20  1  0  0  0
 16 17  1  0  0  0
 16 18  1  0  0  0
 17 28  1  0  0  0
 18 19  1  0  0  0
 19 29  1  0  0  0
 19 30  1  0  0  0
 19 31  1  0  0  0
 20 21  1  0  0  0
 21 32  1  0  0  0
 21 33  1  0  0  0
 21 34  1  0  0  0
 22 23  1  0  0  0
 23 35  1  0  0  0
 23 36  1  0  0  0
 23 37  1  0  0  0
 24 38  1  0  0  0
 24 39  1  0  0  0
M  END
>  <ACTIVITY>
4.88606

>  <set_rl>
1

>  <Min_dist>
999.9

>  <Avg_dist>
999.9

>  <PC_uM>
59.4

>  <TG_uM>
2.2

>  <RL_uM>
13

$$$$
44-6
  Cerius2 12110214553D 1   1.00000                          
 
 39 41  0  0  0  0  0  0  0  0999 V2000
   -4.9130    0.3972    0.3007 N   0  0  0  0  0  0
   -4.8789   -0.7568   -0.3535 C   0  0  0  0  0  0
   -3.7423   -1.3438   -0.6918 N   0  0  0  0  0  0
   -2.5752   -0.7878   -0.3825 C   0  0  0  0  0  0
   -2.5615    0.4348    0.3104 C   0  0  0  0  0  0
   -3.7942    1.0222    0.6494 C   0  0  0  0  0  0
   -3.8400    2.2256    1.3312 N   0  0  0  0  0  0
   -1.2658    0.7786    0.4992 N   0  0  0  0  0  0
   -0.4902   -0.1399   -0.0249 C   0  0  0  0  0  0
   -1.2606   -1.1303   -0.5827 N   0  0  0  0  0  0
   -0.9361   -1.9248   -1.0348 H   0  0  0  0  0  0
    0.9860   -0.1129   -0.0169 C   0  0  0  0  0  0
    1.7073   -1.2895    0.2008 C   0  0  0  0  0  0
    3.0879   -1.2597    0.2070 C   0  0  0  0  0  0
    3.7626   -0.0582   -0.0035 C   0  0  0  0  0  0
    3.0521    1.1119   -0.2195 C   0  0  0  0  0  0
    1.6676    1.0910   -0.2332 C   0  0  0  0  0  0
    0.9717    2.2384   -0.4450 O   0  0  0  0  0  0
    1.9350    3.2798   -0.6171 C   0  0  0  0  0  0
    5.1214   -0.0341    0.0035 O   0  0  0  0  0  0
    5.5118    1.3194   -0.2367 C   0  0  0  0  0  0
    3.7910   -2.4052    0.4193 O   0  0  0  0  0  0
    2.8332   -3.4502    0.5997 C   0  0  0  0  0  0
   -6.0744   -1.3684   -0.6936 N   0  0  0  0  0  0
   -4.6956    2.6214    1.5598 H   0  0  0  0  0  0
   -3.0164    2.6734    1.5806 H   0  0  0  0  0  0
    1.1858   -2.2210    0.3643 H   0  0  0  0  0  0
    3.5790    2.0407   -0.3814 H   0  0  0  0  0  0
    1.4209    4.2252   -0.7909 H   0  0  0  0  0  0
    2.5483    3.3594    0.2804 H   0  0  0  0  0  0
    2.5704    3.0493   -1.4722 H   0  0  0  0  0  0
    6.5995    1.3887   -0.2401 H   0  0  0  0  0  0
    5.1240    1.6434   -1.2025 H   0  0  0  0  0  0
    5.1094    1.9585    0.5493 H   0  0  0  0  0  0
    3.3523   -4.3927    0.7739 H   0  0  0  0  0  0
    2.2011   -3.2197    1.4572 H   0  0  0  0  0  0
    2.2157   -3.5355   -0.2945 H   0  0  0  0  0  0
   -6.9173   -0.9527   -0.4535 H   0  0  0  0  0  0
   -6.0687   -2.2122   -1.1720 H   0  0  0  0  0  0
  1  2  1  0  0  0
  1  6  2  0  0  0
  2  3  2  0  0  0
  2 24  1  0  0  0
  3  4  1  0  0  0
  4  5  2  0  0  0
  4 10  1  0  0  0
  5  6  1  0  0  0
  5  8  1  0  0  0
  6  7  1  0  0  0
  7 25  1  0  0  0
  7 26  1  0  0  0
  8  9  2  0  0  0
  9 10  1  0  0  0
  9 12  1  0  0  0
 10 11  1  0  0  0
 12 13  1  0  0  0
 12 17  2  0  0  0
 13 14  2  0  0  0
 13 27  1  0  0  0
 14 15  1  0  0  0
 14 22  1  0  0  0
 15 16  2  0  0  0
 15 20  1  0  0  0
 16 17  1  0  0  0
 16 28  1  0  0  0
 17 18  1  0  0  0
 18 19  1  0  0  0
 19 29  1  0  0  0
 19 30  1  0  0  0
 19 31  1  0  0  0
 20 21  1  0  0  0
 21 32  1  0  0  0
 21 33  1  0  0  0
 21 34  1  0  0  0
 22 23  1  0  0  0
 23 35  1  0  0  0
 23 36  1  0  0  0
 23 37  1  0  0  0
 24 38  1  0  0  0
 24 39  1  0  0  0
M  END
>  <ACTIVITY>
5.1549

>  <set_rl>
1

>  <Min_dist>
999.9

>  <Avg_dist>
999.9

>  <PC_uM>
22

>  <TG_uM>
1.5

>  <RL_uM>
7

$$$$
44-22
  Cerius2 12110214553D 1   1.00000                          
 
 40 42  0  0  0  0  0  0  0  0999 V2000
   -5.3843    0.7334   -0.0003 N   0  0  0  0  0  0
   -5.6364   -0.5696   -0.0005 C   0  0  0  0  0  0
   -4.6721   -1.4754   -0.0003 N   0  0  0  0  0  0
   -3.3955   -1.1042    0.0001 C   0  0  0  0  0  0
   -3.0807    0.2644    0.0003 C   0  0  0  0  0  0
   -4.1377    1.1914    0.0001 C   0  0  0  0  0  0
   -3.8847    2.5517   -0.0002 N   0  0  0  0  0  0
   -1.7286    0.3636    0.0006 N   0  0  0  0  0  0
   -1.2070   -0.8282    0.0007 C   0  0  0  0  0  0
   -2.1953   -1.7688    0.0003 N   0  0  0  0  0  0
   -2.0720   -2.7310    0.0005 H   0  0  0  0  0  0
    0.2703   -1.1258    0.0006 C   0  0  0  0  0  0
    1.0218    0.1318    0.0010 N   0  0  0  0  0  0
    2.4211    0.1108    0.0010 C   0  0  0  0  0  0
    3.0978   -1.1000    0.0006 C   0  0  0  0  0  0
    4.4841   -1.1176    0.0001 C   0  0  0  0  0  0
    5.1939    0.0741    0.0005 C   0  0  0  0  0  0
    4.5215    1.2823    0.0014 C   0  0  0  0  0  0
    3.1369    1.3058   -0.0043 C   0  0  0  0  0  0
    2.4760    2.4954   -0.0038 O   0  0  0  0  0  0
    3.4713    3.5208    0.0032 C   0  0  0  0  0  0
    5.1485   -2.3040   -0.0003 O   0  0  0  0  0  0
    6.5439   -1.9960   -0.0007 C   0  0  0  0  0  0
   -6.9544   -0.9959   -0.0004 N   0  0  0  0  0  0
   -4.6219    3.1821   -0.0003 H   0  0  0  0  0  0
   -2.9701    2.8749   -0.0002 H   0  0  0  0  0  0
    0.5250   -1.7016    0.8903 H   0  0  0  0  0  0
    0.5250   -1.7009   -0.8896 H   0  0  0  0  0  0
    0.5495    0.9790    0.0013 H   0  0  0  0  0  0
    2.5454   -2.0280    0.0010 H   0  0  0  0  0  0
    6.2738    0.0583    0.0005 H   0  0  0  0  0  0
    5.0767    2.2086    0.0021 H   0  0  0  0  0  0
    2.9870    4.4973    0.0039 H   0  0  0  0  0  0
    4.0893    3.4212    0.8955 H   0  0  0  0  0  0
    4.0968    3.4261   -0.8844 H   0  0  0  0  0  0
    7.1202   -2.9212   -0.0011 H   0  0  0  0  0  0
    6.7876   -1.4158   -0.8907 H   0  0  0  0  0  0
    6.7882   -1.4161    0.8893 H   0  0  0  0  0  0
   -7.6743   -0.3458   -0.0002 H   0  0  0  0  0  0
   -7.1573   -1.9444   -0.0005 H   0  0  0  0  0  0
  1  2  1  0  0  0
  1  6  2  0  0  0
  2  3  2  0  0  0
  2 24  1  0  0  0
  3  4  1  0  0  0
  4  5  2  0  0  0
  4 10  1  0  0  0
  5  6  1  0  0  0
  5  8  1  0  0  0
  6  7  1  0  0  0
  7 25  1  0  0  0
  7 26  1  0  0  0
  8  9  2  0  0  0
  9 10  1  0  0  0
  9 12  1  0  0  0
 10 11  1  0  0  0
 12 13  1  0  0  0
 12 27  1  0  0  0
 12 28  1  0  0  0
 13 14  1  0  0  0
 13 29  1  0  0  0
 14 15  1  0  0  0
 14 19  2  0  0  0
 15 16  2  0  0  0
 15 30  1  0  0  0
 16 17  1  0  0  0
 16 22  1  0  0  0
 17 18  2  0  0  0
 17 31  1  0  0  0
 18 19  1  0  0  0
 18 32  1  0  0  0
 19 20  1  0  0  0
 20 21  1  0  0  0
 21 33  1  0  0  0
 21 34  1  0  0  0
 21 35  1  0  0  0
 22 23  1  0  0  0
 23 36  1  0  0  0
 23 37  1  0  0  0
 23 38  1  0  0  0
 24 39  1  0  0  0
 24 40  1  0  0  0
M  END
>  <ACTIVITY>
4.5376

>  <set_rl>
1

>  <Min_dist>
999.9

>  <Avg_dist>
999.9

>  <PC_uM>
29

>  <TG_uM>
49

>  <RL_uM>
29

$$$$
7-6
  Cerius2 12110214553D 1   1.00000                          
 
 39 42  0  0  0  0  0  0  0  0999 V2000
   -5.4229    0.4438   -0.4008 N   0  0  0  0  0  0
   -5.3563   -0.8277   -0.7746 C   0  0  0  0  0  0
   -4.2296   -1.5194   -0.7402 N   0  0  0  0  0  0
   -3.0984   -0.9585   -0.3221 C   0  0  0  0  0  0
   -3.1251    0.3891    0.0834 C   0  0  0  0  0  0
   -4.3421    1.0855    0.0305 C   0  0  0  0  0  0
   -4.4150    2.4110    0.4179 N   0  0  0  0  0  0
   -1.7595    0.6979    0.4767 C   0  0  0  0  0  0
   -1.0375   -0.4239    0.2893 C   0  0  0  0  0  0
   -1.8340   -1.3968   -0.1796 O   0  0  0  0  0  0
    0.4428   -0.4947    0.5806 C   0  0  0  0  0  0
    0.9850    0.8711    0.6169 N   0  0  0  0  0  0
    0.2078    1.6417    1.5949 C   0  0  0  0  0  0
   -1.1705    1.9794    1.0056 C   0  0  0  0  0  0
    2.3505    0.7692    1.1487 C   0  0  0  0  0  0
    3.2156    0.0166    0.1708 C   0  0  0  0  0  0
    3.8997    0.7015   -0.8174 C   0  0  0  0  0  0
    4.6937    0.0099   -1.7150 C   0  0  0  0  0  0
    4.8035   -1.3649   -1.6244 C   0  0  0  0  0  0
    4.1199   -2.0498   -0.6374 C   0  0  0  0  0  0
    3.3304   -1.3587    0.2645 C   0  0  0  0  0  0
    2.4718   -2.2191    1.5040 Cl  0  0  0  0  0  0
    3.7614    2.4282   -0.9317 Cl  0  0  0  0  0  0
   -6.5096   -1.4538   -1.2167 N   0  0  0  0  0  0
   -5.2618    2.8824    0.3771 H   0  0  0  0  0  0
   -3.6194    2.8694    0.7305 H   0  0  0  0  0  0
    0.6027   -0.9769    1.5449 H   0  0  0  0  0  0
    0.9423   -1.0652   -0.2025 H   0  0  0  0  0  0
    0.0800    1.0522    2.5028 H   0  0  0  0  0  0
    0.7369    2.5645    1.8330 H   0  0  0  0  0  0
   -1.0606    2.6992    0.1946 H   0  0  0  0  0  0
   -1.8150    2.3906    1.7825 H   0  0  0  0  0  0
    2.7574    1.7692    1.2990 H   0  0  0  0  0  0
    2.3311    0.2380    2.1003 H   0  0  0  0  0  0
    5.2275    0.5445   -2.4868 H   0  0  0  0  0  0
    5.4234   -1.9043   -2.3252 H   0  0  0  0  0  0
    4.2055   -3.1241   -0.5676 H   0  0  0  0  0  0
   -7.3458   -0.9633   -1.2489 H   0  0  0  0  0  0
   -6.4812   -2.3828   -1.4943 H   0  0  0  0  0  0
  1  2  1  0  0  0
  1  6  2  0  0  0
  2  3  2  0  0  0
  2 24  1  0  0  0
  3  4  1  0  0  0
  4  5  2  0  0  0
  4 10  1  0  0  0
  5  6  1  0  0  0
  5  8  1  0  0  0
  6  7  1  0  0  0
  7 25  1  0  0  0
  7 26  1  0  0  0
  8  9  2  0  0  0
  8 14  1  0  0  0
  9 10  1  0  0  0
  9 11  1  0  0  0
 11 12  1  0  0  0
 11 27  1  0  0  0
 11 28  1  0  0  0
 12 13  1  0  0  0
 12 15  1  0  0  0
 13 14  1  0  0  0
 13 29  1  0  0  0
 13 30  1  0  0  0
 14 31  1  0  0  0
 14 32  1  0  0  0
 15 16  1  0  0  0
 15 33  1  0  0  0
 15 34  1  0  0  0
 16 17  1  0  0  0
 16 21  2  0  0  0
 17 18  2  0  0  0
 17 23  1  0  0  0
 18 19  1  0  0  0
 18 35  1  0  0  0
 19 20  2  0  0  0
 19 36  1  0  0  0
 20 21  1  0  0  0
 20 37  1  0  0  0
 21 22  1  0  0  0
 24 38  1  0  0  0
 24 39  1  0  0  0
M  END
>  <ACTIVITY>
4.09044

>  <set_rl>
2

>  <Min_dist>
0.032258

>  <Avg_dist>
0.650386

>  <PC_uM>
40.5

>  <TG_uM>
31.7

>  <RL_uM>
81.2

$$$$
9-12O
  Cerius2 12110214553D 1   1.00000                          
 
 44 46  0  0  0  0  0  0  0  0999 V2000
   -5.3255    0.9906    0.4009 N   0  0  0  0  0  0
   -5.7327   -0.1689   -0.1065 C   0  0  0  0  0  0
   -4.9179   -1.1660   -0.3872 N   0  0  0  0  0  0
   -3.6003   -1.0641   -0.1712 C   0  0  0  0  0  0
   -3.0923    0.1436    0.3685 C   0  0  0  0  0  0
   -4.0452    1.2164    0.6602 C   0  0  0  0  0  0
   -3.6257    2.4189    1.1855 N   0  0  0  0  0  0
   -1.7893    0.2758    0.5948 N   0  0  0  0  0  0
   -0.9778   -0.7216    0.3141 C   0  0  0  0  0  0
   -1.4725   -1.9122   -0.2171 C   0  0  0  0  0  0
   -2.7593   -2.0634   -0.4486 N   0  0  0  0  0  0
    0.5003   -0.5753    0.5689 C   0  0  0  0  0  0
    1.1518   -0.0282   -0.6287 N   0  0  0  0  0  0
    2.5145    0.0830   -0.3298 C   0  0  0  0  0  0
    3.2451   -1.0452    0.0125 C   0  0  0  0  0  0
    4.5950   -0.9319    0.3076 C   0  0  0  0  0  0
    5.2144    0.3083    0.2610 C   0  0  0  0  0  0
    4.4880    1.4344   -0.0796 C   0  0  0  0  0  0
    3.1409    1.3261   -0.3813 C   0  0  0  0  0  0
    2.4269    2.4351   -0.7167 O   0  0  0  0  0  0
    3.3325    3.5394   -0.6692 C   0  0  0  0  0  0
    5.3121   -2.0373    0.6433 O   0  0  0  0  0  0
    6.6515   -1.6026    0.8866 C   0  0  0  0  0  0
    1.0317   -1.0491   -1.6782 C   0  0  0  0  0  0
   -7.0820   -0.3376   -0.3523 N   0  0  0  0  0  0
   -4.2715    3.1182    1.3724 H   0  0  0  0  0  0
   -2.6846    2.5662    1.3686 H   0  0  0  0  0  0
   -0.7915   -2.7200   -0.4412 H   0  0  0  0  0  0
    0.6590    0.1001    1.4095 H   0  0  0  0  0  0
    0.9272   -1.5510    0.8011 H   0  0  0  0  0  0
    2.7628   -2.0108    0.0495 H   0  0  0  0  0  0
    6.2660    0.3945    0.4915 H   0  0  0  0  0  0
    4.9728    2.3988   -0.1147 H   0  0  0  0  0  0
    2.8029    4.4552   -0.9320 H   0  0  0  0  0  0
    3.7404    3.6318    0.3374 H   0  0  0  0  0  0
    4.1450    3.3738   -1.3766 H   0  0  0  0  0  0
    7.2673   -2.4591    1.1606 H   0  0  0  0  0  0
    7.0528   -1.1402   -0.0152 H   0  0  0  0  0  0
    6.6558   -0.8769    1.6998 H   0  0  0  0  0  0
    1.5031   -0.6877   -2.5921 H   0  0  0  0  0  0
    1.5252   -1.9648   -1.3525 H   0  0  0  0  0  0
   -0.0221   -1.2522   -1.8686 H   0  0  0  0  0  0
   -7.7044    0.3798   -0.1549 H   0  0  0  0  0  0
   -7.4069   -1.1734   -0.7222 H   0  0  0  0  0  0
  1  2  1  0  0  0
  1  6  2  0  0  0
  2  3  2  0  0  0
  2 25  1  0  0  0
  3  4  1  0  0  0
  4  5  2  0  0  0
  4 11  1  0  0  0
  5  6  1  0  0  0
  5  8  1  0  0  0
  6  7  1  0  0  0
  7 26  1  0  0  0
  7 27  1  0  0  0
  8  9  2  0  0  0
  9 10  1  0  0  0
  9 12  1  0  0  0
 10 11  2  0  0  0
 10 28  1  0  0  0
 12 13  1  0  0  0
 12 29  1  0  0  0
 12 30  1  0  0  0
 13 14  1  0  0  0
 13 24  1  0  0  0
 14 15  1  0  0  0
 14 19  2  0  0  0
 15 16  2  0  0  0
 15 31  1  0  0  0
 16 17  1  0  0  0
 16 22  1  0  0  0
 17 18  2  0  0  0
 17 32  1  0  0  0
 18 19  1  0  0  0
 18 33  1  0  0  0
 19 20  1  0  0  0
 20 21  1  0  0  0
 21 34  1  0  0  0
 21 35  1  0  0  0
 21 36  1  0  0  0
 22 23  1  0  0  0
 23 37  1  0  0  0
 23 38  1  0  0  0
 23 39  1  0  0  0
 24 40  1  0  0  0
 24 41  1  0  0  0
 24 42  1  0  0  0
 25 43  1  0  0  0
 25 44  1  0  0  0
M  END
>  <ACTIVITY>
6.3279

>  <set_rl>
2

>  <Min_dist>
0.070588

>  <Avg_dist>
0.484232

>  <PC_uM>
3.9

>  <TG_uM>
0.21

>  <RL_uM>
0.47

$$$$
1-137545
  Cerius2 12110214553D 1   1.00000                          
 
 44 46  0  0  0  0  0  0  0  0999 V2000
    3.3537   -0.3698    0.2957 C   0  0  0  0  0  0
    4.2432   -1.5320    0.3375 C   0  0  0  0  0  0
    5.5390   -1.3232    0.1514 N   0  0  0  0  0  0
    6.0169   -0.1016   -0.0658 C   0  0  0  0  0  0
    5.2611    0.9770   -0.1132 N   0  0  0  0  0  0
    3.9354    0.9005    0.0594 C   0  0  0  0  0  0
    3.1535    1.9819    0.0148 N   0  0  0  0  0  0
    1.8556    1.8526    0.1908 C   0  0  0  0  0  0
    1.2883    0.6001    0.4232 C   0  0  0  0  0  0
    2.0413   -0.4780    0.4763 N   0  0  0  0  0  0
   -0.2009    0.4806    0.6214 C   0  0  0  0  0  0
   -0.8520    0.2647   -0.6776 N   0  0  0  0  0  0
   -2.2063    0.0921   -0.4214 C   0  0  0  0  0  0
   -2.9742    1.1701    0.0125 C   0  0  0  0  0  0
   -4.3060    1.0041    0.2658 C   0  0  0  0  0  0
   -4.8991   -0.2513    0.0885 C   0  0  0  0  0  0
   -4.1243   -1.3322   -0.3481 C   0  0  0  0  0  0
   -2.7942   -1.1573   -0.6044 C   0  0  0  0  0  0
   -1.9591   -2.3203   -1.0745 C   0  0  0  0  0  0
   -6.3334   -0.4344    0.3607 C   0  0  0  0  0  0
   -6.8504   -1.5324    0.2052 O   0  0  0  0  0  0
   -7.0092    0.5113    0.7427 O   0  5  0  0  0  0
   -2.3347    2.5213    0.2031 C   0  0  0  0  0  0
   -0.7213    1.5201   -1.4292 C   0  0  0  0  0  0
    7.3784    0.0448   -0.2514 N   0  0  0  0  0  0
    3.7507   -2.7988    0.5628 N   0  0  0  0  0  0
    1.2226    2.7268    0.1553 H   0  0  0  0  0  0
   -0.4134   -0.3623    1.2790 H   0  0  0  0  0  0
   -0.5822    1.3974    1.0711 H   0  0  0  0  0  0
   -4.9006    1.8402    0.6029 H   0  0  0  0  0  0
   -4.5785   -2.3024   -0.4857 H   0  0  0  0  0  0
   -1.9028   -2.3107   -2.1630 H   0  0  0  0  0  0
   -0.9552   -2.2386   -0.6580 H   0  0  0  0  0  0
   -2.4154   -3.2529   -0.7425 H   0  0  0  0  0  0
   -2.3636    3.0728   -0.7366 H   0  0  0  0  0  0
   -2.8790    3.0764    0.9671 H   0  0  0  0  0  0
   -1.2988    2.3920    0.5167 H   0  0  0  0  0  0
   -1.6421    1.7112   -1.9802 H   0  0  0  0  0  0
   -0.5355    2.3407   -0.7363 H   0  0  0  0  0  0
    0.1108    1.4398   -2.1287 H   0  0  0  0  0  0
    7.9583   -0.7321   -0.2213 H   0  0  0  0  0  0
    7.7542    0.9246   -0.4117 H   0  0  0  0  0  0
    4.3552   -3.5570    0.5871 H   0  0  0  0  0  0
    2.7994   -2.9324    0.6972 H   0  0  0  0  0  0
  1  2  1  0  0  0
  1  6  2  0  0  0
  1 10  1  0  0  0
  2  3  2  0  0  0
  2 26  1  0  0  0
  3  4  1  0  0  0
  4  5  2  0  0  0
  4 25  1  0  0  0
  5  6  1  0  0  0
  6  7  1  0  0  0
  7  8  2  0  0  0
  8  9  1  0  0  0
  8 27  1  0  0  0
  9 10  2  0  0  0
  9 11  1  0  0  0
 11 12  1  0  0  0
 11 28  1  0  0  0
 11 29  1  0  0  0
 12 13  1  0  0  0
 12 24  1  0  0  0
 13 14  1  0  0  0
 13 18  2  0  0  0
 14 15  2  0  0  0
 14 23  1  0  0  0
 15 16  1  0  0  0
 15 30  1  0  0  0
 16 17  2  0  0  0
 16 20  1  0  0  0
 17 18  1  0  0  0
 17 31  1  0  0  0
 18 19  1  0  0  0
 19 32  1  0  0  0
 19 33  1  0  0  0
 19 34  1  0  0  0
 20 21  2  0  0  0
 20 22  1  0  0  0
 23 35  1  0  0  0
 23 36  1  0  0  0
 23 37  1  0  0  0
 24 38  1  0  0  0
 24 39  1  0  0  0
 24 40  1  0  0  0
 25 41  1  0  0  0
 25 42  1  0  0  0
 26 43  1  0  0  0
 26 44  1  0  0  0
M  CHG  1  22  -1
M  END
>  <ACTIVITY>
7.42022

>  <set_rl>
2

>  <Min_dist>
0.111111

>  <Avg_dist>
0.517137

>  <PC_uM>
0.19

>  <TG_uM>
0.28

>  <RL_uM>
0.038

$$$$
10-2D
  Cerius2 12110214553D 1   1.00000                          
 
 34 36  0  0  0  0  0  0  0  0999 V2000
   -5.2594    0.2783    0.0004 N   0  0  0  0  0  0
   -5.1144   -1.0434   -0.0002 C   0  0  0  0  0  0
   -3.9425   -1.6464   -0.0008 N   0  0  0  0  0  0
   -2.8030   -0.9430   -0.0009 C   0  0  0  0  0  0
   -2.8786    0.4719   -0.0003 C   0  0  0  0  0  0
   -4.2080    1.0857    0.0004 C   0  0  0  0  0  0
   -4.3609    2.4548    0.0005 N   0  0  0  0  0  0
   -1.7656    1.1984    0.0001 N   0  0  0  0  0  0
   -0.5966    0.5939    0.0000 C   0  0  0  0  0  0
   -0.5164   -0.7983   -0.0006 C   0  0  0  0  0  0
   -1.6065   -1.5358   -0.0010 N   0  0  0  0  0  0
    0.6677    1.4141   -0.0001 C   0  0  0  0  0  0
    1.8188    0.5291   -0.0002 O   0  0  0  0  0  0
    3.0638    1.0435   -0.0003 C   0  0  0  0  0  0
    3.2235    2.2476   -0.0002 O   0  0  0  0  0  0
    4.2350    0.1431   -0.0005 C   0  0  0  0  0  0
    5.5269    0.6728   -0.0006 C   0  0  0  0  0  0
    6.6160   -0.1737   -0.0003 C   0  0  0  0  0  0
    6.4305   -1.5449   -0.0003 C   0  0  0  0  0  0
    5.1531   -2.0766   -0.0007 C   0  0  0  0  0  0
    4.0550   -1.2416    0.0052 C   0  0  0  0  0  0
   -6.2530   -1.8264    0.0003 N   0  0  0  0  0  0
   -5.2496    2.8436    0.0010 H   0  0  0  0  0  0
   -3.5799    3.0300    0.0002 H   0  0  0  0  0  0
    0.4517   -1.2770   -0.0007 H   0  0  0  0  0  0
    0.6927    2.0430   -0.8900 H   0  0  0  0  0  0
    0.6929    2.0428    0.8900 H   0  0  0  0  0  0
    5.6730    1.7429   -0.0012 H   0  0  0  0  0  0
    7.6158    0.2347   -0.0003 H   0  0  0  0  0  0
    7.2867   -2.2031   -0.0005 H   0  0  0  0  0  0
    5.0153   -3.1477   -0.0015 H   0  0  0  0  0  0
    3.0585   -1.6578    0.0049 H   0  0  0  0  0  0
   -7.1286   -1.4091    0.0011 H   0  0  0  0  0  0
   -6.1766   -2.7934   -0.0001 H   0  0  0  0  0  0
  1  2  1  0  0  0
  1  6  2  0  0  0
  2  3  2  0  0  0
  2 22  1  0  0  0
  3  4  1  0  0  0
  4  5  2  0  0  0
  4 11  1  0  0  0
  5  6  1  0  0  0
  5  8  1  0  0  0
  6  7  1  0  0  0
  7 23  1  0  0  0
  7 24  1  0  0  0
  8  9  2  0  0  0
  9 10  1  0  0  0
  9 12  1  0  0  0
 10 11  2  0  0  0
 10 25  1  0  0  0
 12 13  1  0  0  0
 12 26  1  0  0  0
 12 27  1  0  0  0
 13 14  1  0  0  0
 14 15  2  0  0  0
 14 16  1  0  0  0
 16 17  1  0  0  0
 16 21  2  0  0  0
 17 18  2  0  0  0
 17 28  1  0  0  0
 18 19  1  0  0  0
 18 29  1  0  0  0
 19 20  2  0  0  0
 19 30  1  0  0  0
 20 21  1  0  0  0
 20 31  1  0  0  0
 21 32  1  0  0  0
 22 33  1  0  0  0
 22 34  1  0  0  0
M  END
>  <ACTIVITY>
5.1549

>  <set_rl>
2

>  <Min_dist>
0.231707

>  <Avg_dist>
0.613091

>  <PC_uM>
9.8

>  <TG_uM>
5.8

>  <RL_uM>
7

$$$$
1-152737
  Cerius2 12110214553D 1   1.00000                          
 
 57 59  0  0  0  0  0  0  0  0999 V2000
   -5.8788   -0.0071   -0.4276 C   0  0  0  0  0  0
   -6.9292   -1.0262   -0.3852 C   0  0  0  0  0  0
   -8.1874   -0.6123   -0.3307 N   0  0  0  0  0  0
   -8.4878    0.6828   -0.3150 C   0  0  0  0  0  0
   -7.5822    1.6397   -0.3513 N   0  0  0  0  0  0
   -6.2754    1.3532   -0.4076 C   0  0  0  0  0  0
   -5.3435    2.3087   -0.4450 N   0  0  0  0  0  0
   -4.0719    1.9738   -0.4999 C   0  0  0  0  0  0
   -3.6870    0.6336   -0.5195 C   0  0  0  0  0  0
   -4.5894   -0.3239   -0.4887 N   0  0  0  0  0  0
   -2.2239    0.2783   -0.5826 C   0  0  0  0  0  0
   -1.6895    0.1596    0.7806 N   0  0  0  0  0  0
   -0.3415   -0.1682    0.6550 C   0  0  0  0  0  0
    0.5222    0.6906   -0.0156 C   0  0  0  0  0  0
    1.8555    0.3702   -0.1420 C   0  0  0  0  0  0
    2.3435   -0.8198    0.4045 C   0  0  0  0  0  0
    1.4759   -1.6838    1.0794 C   0  0  0  0  0  0
    0.1413   -1.3559    1.2077 C   0  0  0  0  0  0
   -0.7052   -2.1942    1.8641 O   0  0  0  0  0  0
    0.0735   -3.3110    2.2979 C   0  0  0  0  0  0
    3.7716   -1.1640    0.2691 C   0  0  0  0  0  0
    4.1951   -2.1997    0.7451 O   0  0  0  0  0  0
    4.6069   -0.3305   -0.3821 N   0  0  0  0  0  0
    6.0251   -0.6724   -0.5165 C   0  0  0  0  0  0
    6.2333   -1.4637   -1.7820 C   0  0  0  0  0  0
    5.5058   -1.2790   -2.7434 O   0  0  0  0  0  0
    7.1294   -2.2887   -1.8449 O   0  5  0  0  0  0
    6.8557    0.6112   -0.5751 C   0  0  0  0  0  0
    6.6443    1.4145    0.7098 C   0  0  0  0  0  0
    7.4625    2.6788    0.6521 C   0  0  0  0  0  0
    7.4360    3.4653    1.5838 O   0  0  0  0  0  0
    8.1511    2.9154   -0.3264 O   0  5  0  0  0  0
   -1.7438    1.5025    1.3737 C   0  0  0  0  0  0
   -9.8202    1.0448   -0.2579 N   0  0  0  0  0  0
   -6.6208   -2.3688   -0.4018 N   0  0  0  0  0  0
   -3.3175    2.7461   -0.5306 H   0  0  0  0  0  0
   -2.1027   -0.6710   -1.1043 H   0  0  0  0  0  0
   -1.6832    1.0587   -1.1181 H   0  0  0  0  0  0
    0.1465    1.6106   -0.4385 H   0  0  0  0  0  0
    2.5242    1.0386   -0.6640 H   0  0  0  0  0  0
    1.8500   -2.6042    1.5029 H   0  0  0  0  0  0
   -0.5656   -4.0141    2.8321 H   0  0  0  0  0  0
    0.5134   -3.8056    1.4319 H   0  0  0  0  0  0
    0.8668   -2.9653    2.9607 H   0  0  0  0  0  0
    4.2690    0.4957   -0.7617 H   0  0  0  0  0  0
    6.3379   -1.2688    0.3405 H   0  0  0  0  0  0
    7.9109    0.3568   -0.6751 H   0  0  0  0  0  0
    6.5429    1.2076   -1.4321 H   0  0  0  0  0  0
    5.5892    1.6689    0.8098 H   0  0  0  0  0  0
    6.9571    0.8181    1.5668 H   0  0  0  0  0  0
   -1.3556    1.4661    2.3915 H   0  0  0  0  0  0
   -1.1396    2.1872    0.7786 H   0  0  0  0  0  0
   -2.7766    1.8505    1.3910 H   0  0  0  0  0  0
  -10.5077    0.3611   -0.2305 H   0  0  0  0  0  0
  -10.0679    1.9825   -0.2453 H   0  0  0  0  0  0
   -7.3301   -3.0298   -0.3731 H   0  0  0  0  0  0
   -5.6943   -2.6531   -0.4422 H   0  0  0  0  0  0
  1  2  1  0  0  0
  1  6  2  0  0  0
  1 10  1  0  0  0
  2  3  2  0  0  0
  2 35  1  0  0  0
  3  4  1  0  0  0
  4  5  2  0  0  0
  4 34  1  0  0  0
  5  6  1  0  0  0
  6  7  1  0  0  0
  7  8  2  0  0  0
  8  9  1  0  0  0
  8 36  1  0  0  0
  9 10  2  0  0  0
  9 11  1  0  0  0
 11 12  1  0  0  0
 11 37  1  0  0  0
 11 38  1  0  0  0
 12 13  1  0  0  0
 12 33  1  0  0  0
 13 14  1  0  0  0
 13 18  2  0  0  0
 14 15  2  0  0  0
 14 39  1  0  0  0
 15 16  1  0  0  0
 15 40  1  0  0  0
 16 17  2  0  0  0
 16 21  1  0  0  0
 17 18  1  0  0  0
 17 41  1  0  0  0
 18 19  1  0  0  0
 19 20  1  0  0  0
 20 42  1  0  0  0
 20 43  1  0  0  0
 20 44  1  0  0  0
 21 22  2  0  0  0
 21 23  1  0  0  0
 23 24  1  0  0  0
 23 45  1  0  0  0
 24 25  1  0  0  0
 24 28  1  0  0  0
 24 46  1  0  0  0
 25 26  2  0  0  0
 25 27  1  0  0  0
 28 29  1  0  0  0
 28 47  1  0  0  0
 28 48  1  0  0  0
 29 30  1  0  0  0
 29 49  1  0  0  0
 29 50  1  0  0  0
 30 31  2  0  0  0
 30 32  1  0  0  0
 33 51  1  0  0  0
 33 52  1  0  0  0
 33 53  1  0  0  0
 34 54  1  0  0  0
 34 55  1  0  0  0
 35 56  1  0  0  0
 35 57  1  0  0  0
M  CHG  2  27  -1  32  -1
M  END
>  <ACTIVITY>
8.95861

>  <set_rl>
2

>  <Min_dist>
0.154472

>  <Avg_dist>
0.590546

>  <PC_uM>
0.00049

>  <TG_uM>
N/A

>  <RL_uM>
0.0011

$$$$
1-233910
  Cerius2 12110214553D 1   1.00000                          
 
 40 42  0  0  0  0  0  0  0  0999 V2000
    3.5511   -0.2931    0.2808 C   0  0  0  0  0  0
    4.3809   -1.4910    0.4243 C   0  0  0  0  0  0
    5.6438   -1.4167    0.0283 N   0  0  0  0  0  0
    6.1423   -0.2946   -0.4818 C   0  0  0  0  0  0
    5.4398    0.8103   -0.6328 N   0  0  0  0  0  0
    4.1516    0.8655   -0.2713 C   0  0  0  0  0  0
    3.4240    1.9756   -0.4166 N   0  0  0  0  0  0
    2.1613    1.9775   -0.0453 C   0  0  0  0  0  0
    1.5752    0.8345    0.4975 C   0  0  0  0  0  0
    2.2758   -0.2685    0.6543 N   0  0  0  0  0  0
    0.1273    0.8645    0.9142 C   0  0  0  0  0  0
   -0.7145    0.4644   -0.2160 N   0  0  0  0  0  0
   -2.1050    0.4159   -0.0698 C   0  0  0  0  0  0
   -2.9032    0.0366   -1.1413 C   0  0  0  0  0  0
   -4.2753   -0.0116   -0.9967 C   0  0  0  0  0  0
   -4.8574    0.3190    0.2198 C   0  0  0  0  0  0
   -4.0596    0.6982    1.2911 C   0  0  0  0  0  0
   -2.6870    0.7415    1.1484 C   0  0  0  0  0  0
   -6.2504    0.2704    0.3663 N   0  0  0  0  0  0
   -6.9667   -0.6533   -0.3046 C   0  0  0  0  0  0
   -6.3995   -1.5047   -0.9564 O   0  0  0  0  0  0
   -8.4723   -0.6284   -0.2451 C   0  0  0  0  0  0
    7.4672   -0.2863   -0.8741 N   0  0  0  0  0  0
    3.8671   -2.6548    0.9530 N   0  0  0  0  0  0
    1.5722    2.8751   -0.1622 H   0  0  0  0  0  0
   -0.0263    0.1745    1.7439 H   0  0  0  0  0  0
   -0.1399    1.8739    1.2269 H   0  0  0  0  0  0
   -0.3078    0.2331   -1.0657 H   0  0  0  0  0  0
   -2.4505   -0.2202   -2.0876 H   0  0  0  0  0  0
   -4.8961   -0.3062   -1.8299 H   0  0  0  0  0  0
   -4.5125    0.9557    2.2371 H   0  0  0  0  0  0
   -2.0665    1.0365    1.9817 H   0  0  0  0  0  0
   -6.6989    0.9016    0.9505 H   0  0  0  0  0  0
   -8.8732   -1.4455   -0.8448 H   0  0  0  0  0  0
   -8.7969   -0.7436    0.7891 H   0  0  0  0  0  0
   -8.8357    0.3218   -0.6363 H   0  0  0  0  0  0
    8.0077   -1.0855   -0.7741 H   0  0  0  0  0  0
    7.8568    0.5188   -1.2495 H   0  0  0  0  0  0
    4.4319   -3.4385    1.0404 H   0  0  0  0  0  0
    2.9405   -2.6904    1.2377 H   0  0  0  0  0  0
  1  2  1  0  0  0
  1  6  2  0  0  0
  1 10  1  0  0  0
  2  3  2  0  0  0
  2 24  1  0  0  0
  3  4  1  0  0  0
  4  5  2  0  0  0
  4 23  1  0  0  0
  5  6  1  0  0  0
  6  7  1  0  0  0
  7  8  2  0  0  0
  8  9  1  0  0  0
  8 25  1  0  0  0
  9 10  2  0  0  0
  9 11  1  0  0  0
 11 12  1  0  0  0
 11 26  1  0  0  0
 11 27  1  0  0  0
 12 13  1  0  0  0
 12 28  1  0  0  0
 13 14  1  0  0  0
 13 18  2  0  0  0
 14 15  2  0  0  0
 14 29  1  0  0  0
 15 16  1  0  0  0
 15 30  1  0  0  0
 16 17  2  0  0  0
 16 19  1  0  0  0
 17 18  1  0  0  0
 17 31  1  0  0  0
 18 32  1  0  0  0
 19 20  1  0  0  0
 19 33  1  0  0  0
 20 21  2  0  0  0
 20 22  1  0  0  0
 22 34  1  0  0  0
 22 35  1  0  0  0
 22 36  1  0  0  0
 23 37  1  0  0  0
 23 38  1  0  0  0
 24 39  1  0  0  0
 24 40  1  0  0  0
M  END
>  <ACTIVITY>
6.76955

>  <set_rl>
2

>  <Min_dist>
0.153846

>  <Avg_dist>
0.529993

>  <PC_uM>
7.1

>  <TG_uM>
N/A

>  <RL_uM>
0.17

$$$$
1-241522
  Cerius2 12110214553D 1   1.00000                          
 
 46 48  0  0  0  0  0  0  0  0999 V2000
    4.3415   -0.4494    0.1607 C   0  0  0  0  0  0
    5.2182   -1.5125   -0.3343 C   0  0  0  0  0  0
    6.5143   -1.2497   -0.4256 N   0  0  0  0  0  0
    7.0038   -0.0627   -0.0804 C   0  0  0  0  0  0
    6.2598    0.9273    0.3703 N   0  0  0  0  0  0
    4.9351    0.7892    0.5091 C   0  0  0  0  0  0
    4.1651    1.7807    0.9640 N   0  0  0  0  0  0
    2.8677    1.5935    1.0819 C   0  0  0  0  0  0
    2.2886    0.3726    0.7376 C   0  0  0  0  0  0
    3.0299   -0.6196    0.2923 N   0  0  0  0  0  0
    0.8003    0.1854    0.8825 C   0  0  0  0  0  0
    0.1354    0.5759   -0.3632 N   0  0  0  0  0  0
   -1.2483    0.4891   -0.4695 C   0  0  0  0  0  0
   -1.8786    0.8606   -1.6539 C   0  0  0  0  0  0
   -3.2478    0.7758   -1.7622 C   0  0  0  0  0  0
   -4.0059    0.3161   -0.6814 C   0  0  0  0  0  0
   -3.3700   -0.0562    0.5066 C   0  0  0  0  0  0
   -1.9999    0.0255    0.6068 C   0  0  0  0  0  0
   -5.4739    0.2245   -0.7940 C   0  0  0  0  0  0
   -6.0258    0.5490   -1.8277 O   0  0  0  0  0  0
   -6.2034   -0.2189    0.2489 N   0  0  0  0  0  0
   -7.6613   -0.3099    0.1371 C   0  0  0  0  0  0
   -8.2416   -0.8379    1.4507 C   0  0  0  0  0  0
   -9.7642   -0.9329    1.3338 C   0  0  0  0  0  0
    8.3649    0.1436   -0.2001 N   0  0  0  0  0  0
    4.7136   -2.7435   -0.6923 N   0  0  0  0  0  0
    2.2442    2.3948    1.4500 H   0  0  0  0  0  0
    0.5849   -0.8614    1.0966 H   0  0  0  0  0  0
    0.4339    0.8063    1.7000 H   0  0  0  0  0  0
    0.6604    0.8950   -1.1138 H   0  0  0  0  0  0
   -1.2925    1.2160   -2.4885 H   0  0  0  0  0  0
   -3.7363    1.0645   -2.6812 H   0  0  0  0  0  0
   -3.9529   -0.4114    1.3435 H   0  0  0  0  0  0
   -1.5080   -0.2623    1.5241 H   0  0  0  0  0  0
   -5.7632   -0.4778    1.0736 H   0  0  0  0  0  0
   -8.0722    0.6781   -0.0705 H   0  0  0  0  0  0
   -7.9218   -0.9896   -0.6743 H   0  0  0  0  0  0
   -7.8308   -1.8259    1.6583 H   0  0  0  0  0  0
   -7.9812   -0.1582    2.2621 H   0  0  0  0  0  0
  -10.1776   -1.3090    2.2696 H   0  0  0  0  0  0
  -10.1751    0.0551    1.1262 H   0  0  0  0  0  0
  -10.0246   -1.6125    0.5224 H   0  0  0  0  0  0
    8.9363   -0.5680   -0.5288 H   0  0  0  0  0  0
    8.7489    1.0001    0.0447 H   0  0  0  0  0  0
    5.3097   -3.4358   -1.0182 H   0  0  0  0  0  0
    3.7623   -2.9178   -0.6185 H   0  0  0  0  0  0
  1  2  1  0  0  0
  1  6  2  0  0  0
  1 10  1  0  0  0
  2  3  2  0  0  0
  2 26  1  0  0  0
  3  4  1  0  0  0
  4  5  2  0  0  0
  4 25  1  0  0  0
  5  6  1  0  0  0
  6  7  1  0  0  0
  7  8  2  0  0  0
  8  9  1  0  0  0
  8 27  1  0  0  0
  9 10  2  0  0  0
  9 11  1  0  0  0
 11 12  1  0  0  0
 11 28  1  0  0  0
 11 29  1  0  0  0
 12 13  1  0  0  0
 12 30  1  0  0  0
 13 14  1  0  0  0
 13 18  2  0  0  0
 14 15  2  0  0  0
 14 31  1  0  0  0
 15 16  1  0  0  0
 15 32  1  0  0  0
 16 17  2  0  0  0
 16 19  1  0  0  0
 17 18  1  0  0  0
 17 33  1  0  0  0
 18 34  1  0  0  0
 19 20  2  0  0  0
 19 21  1  0  0  0
 21 22  1  0  0  0
 21 35  1  0  0  0
 22 23  1  0  0  0
 22 36  1  0  0  0
 22 37  1  0  0  0
 23 24  1  0  0  0
 23 38  1  0  0  0
 23 39  1  0  0  0
 24 40  1  0  0  0
 24 41  1  0  0  0
 24 42  1  0  0  0
 25 43  1  0  0  0
 25 44  1  0  0  0
 26 45  1  0  0  0
 26 46  1  0  0  0
M  END
>  <ACTIVITY>
6.31876

>  <set_rl>
2

>  <Min_dist>
0.132653

>  <Avg_dist>
0.554095

>  <PC_uM>
3.1

>  <TG_uM>
N/A

>  <RL_uM>
0.48

$$$$
9-12H
  Cerius2 12110214553D 1   1.00000                          
 
 40 42  0  0  0  0  0  0  0  0999 V2000
   -5.7413    0.1208   -1.2442 N   0  0  0  0  0  0
   -6.1998    0.2052    0.0010 C   0  0  0  0  0  0
   -5.4331    0.0944    1.0672 N   0  0  0  0  0  0
   -4.1154   -0.1148    0.9527 C   0  0  0  0  0  0
   -3.5544   -0.2159   -0.3445 C   0  0  0  0  0  0
   -4.4553   -0.0847   -1.4913 C   0  0  0  0  0  0
   -3.9827   -0.1723   -2.7824 N   0  0  0  0  0  0
   -2.2497   -0.4230   -0.4915 N   0  0  0  0  0  0
   -1.4862   -0.5328    0.5748 C   0  0  0  0  0  0
   -2.0332   -0.4341    1.8537 C   0  0  0  0  0  0
   -3.3226   -0.2293    2.0210 N   0  0  0  0  0  0
   -0.0066   -0.7681    0.4121 C   0  0  0  0  0  0
    0.8538    0.8268    0.3299 S   0  0  0  0  0  0
    2.5149    0.2691    0.1452 C   0  0  0  0  0  0
    2.7905   -1.0919    0.1055 C   0  0  0  0  0  0
    4.0929   -1.5306   -0.0388 C   0  0  0  0  0  0
    5.1266   -0.6142   -0.1447 C   0  0  0  0  0  0
    4.8542    0.7498   -0.1057 C   0  0  0  0  0  0
    3.5485    1.1902    0.0336 C   0  0  0  0  0  0
    5.8685    1.6497   -0.2091 O   0  0  0  0  0  0
    5.2774    2.9486   -0.1362 C   0  0  0  0  0  0
    6.4087   -1.0481   -0.2863 O   0  0  0  0  0  0
    6.3632   -2.4764   -0.2908 C   0  0  0  0  0  0
   -7.5520    0.4211    0.1870 N   0  0  0  0  0  0
   -4.5945   -0.0828   -3.5299 H   0  0  0  0  0  0
   -3.0383   -0.3233   -2.9441 H   0  0  0  0  0  0
   -1.3913   -0.5268    2.7172 H   0  0  0  0  0  0
    0.3662   -1.3386    1.2627 H   0  0  0  0  0  0
    0.1737   -1.3260   -0.5067 H   0  0  0  0  0  0
    1.9861   -1.8078    0.1879 H   0  0  0  0  0  0
    4.3053   -2.5891   -0.0688 H   0  0  0  0  0  0
    3.3351    2.2484    0.0637 H   0  0  0  0  0  0
    6.0561    3.7072   -0.2151 H   0  0  0  0  0  0
    4.5669    3.0709   -0.9538 H   0  0  0  0  0  0
    4.7582    3.0586    0.8159 H   0  0  0  0  0  0
    7.3728   -2.8717   -0.4026 H   0  0  0  0  0  0
    5.9368   -2.8293    0.6483 H   0  0  0  0  0  0
    5.7453   -2.8176   -1.1213 H   0  0  0  0  0  0
   -8.1395    0.5068   -0.5801 H   0  0  0  0  0  0
   -7.9136    0.4868    1.0846 H   0  0  0  0  0  0
  1  2  1  0  0  0
  1  6  2  0  0  0
  2  3  2  0  0  0
  2 24  1  0  0  0
  3  4  1  0  0  0
  4  5  2  0  0  0
  4 11  1  0  0  0
  5  6  1  0  0  0
  5  8  1  0  0  0
  6  7  1  0  0  0
  7 25  1  0  0  0
  7 26  1  0  0  0
  8  9  2  0  0  0
  9 10  1  0  0  0
  9 12  1  0  0  0
 10 11  2  0  0  0
 10 27  1  0  0  0
 12 13  1  0  0  0
 12 28  1  0  0  0
 12 29  1  0  0  0
 13 14  1  0  0  0
 14 15  1  0  0  0
 14 19  2  0  0  0
 15 16  2  0  0  0
 15 30  1  0  0  0
 16 17  1  0  0  0
 16 31  1  0  0  0
 17 18  2  0  0  0
 17 22  1  0  0  0
 18 19  1  0  0  0
 18 20  1  0  0  0
 19 32  1  0  0  0
 20 21  1  0  0  0
 21 33  1  0  0  0
 21 34  1  0  0  0
 21 35  1  0  0  0
 22 23  1  0  0  0
 23 36  1  0  0  0
 23 37  1  0  0  0
 23 38  1  0  0  0
 24 39  1  0  0  0
 24 40  1  0  0  0
M  END
>  <ACTIVITY>
4.44009

>  <set_rl>
2

>  <Min_dist>
0.102564

>  <Avg_dist>
0.548047

>  <PC_uM>
58.2

>  <TG_uM>
23.2

>  <RL_uM>
36.3

$$$$
9-12S
  Cerius2 12110214553D 1   1.00000                          
 
 40 42  0  0  0  0  0  0  0  0999 V2000
   -6.0303   -0.5480   -1.1948 N   0  0  0  0  0  0
   -6.4665   -0.6294    0.0586 C   0  0  0  0  0  0
   -5.7236   -0.3378    1.1074 N   0  0  0  0  0  0
   -4.4551    0.0673    0.9652 C   0  0  0  0  0  0
   -3.9205    0.1781   -0.3423 C   0  0  0  0  0  0
   -4.7929   -0.1594   -1.4687 C   0  0  0  0  0  0
   -4.3433   -0.0763   -2.7683 N   0  0  0  0  0  0
   -2.6649    0.5779   -0.5167 N   0  0  0  0  0  0
   -1.9253    0.8689    0.5322 C   0  0  0  0  0  0
   -2.4465    0.7616    1.8211 C   0  0  0  0  0  0
   -3.6872    0.3676    2.0154 N   0  0  0  0  0  0
   -0.5011    1.3221    0.3385 C   0  0  0  0  0  0
    0.3865    0.1567    0.3393 N   0  0  0  0  0  0
    1.7630    0.3271    0.1746 C   0  0  0  0  0  0
    2.6059   -0.7778    0.1752 C   0  0  0  0  0  0
    3.9670   -0.6090    0.0118 C   0  0  0  0  0  0
    4.4942    0.6581   -0.1522 C   0  0  0  0  0  0
    3.6573    1.7651   -0.1537 C   0  0  0  0  0  0
    2.2901    1.5997    0.0043 C   0  0  0  0  0  0
    4.1773    3.0103   -0.3146 O   0  0  0  0  0  0
    5.5906    2.8526   -0.4555 C   0  0  0  0  0  0
    4.8790   -1.8087    0.0129 C   0  0  0  0  0  0
    6.2014   -1.3893   -0.1674 F   0  0  0  0  0  0
    4.7652   -2.4799    1.2350 F   0  0  0  0  0  0
    4.5171   -2.6705   -1.0280 F   0  0  0  0  0  0
   -7.7680   -1.0412    0.2729 N   0  0  0  0  0  0
   -4.9356   -0.3039   -3.5019 H   0  0  0  0  0  0
   -3.4343    0.2098   -2.9496 H   0  0  0  0  0  0
   -1.8247    1.0047    2.6701 H   0  0  0  0  0  0
   -0.4127    1.8455   -0.6135 H   0  0  0  0  0  0
   -0.2200    1.9936    1.1498 H   0  0  0  0  0  0
    0.0184   -0.7333    0.4543 H   0  0  0  0  0  0
    2.1966   -1.7689    0.3039 H   0  0  0  0  0  0
    5.5589    0.7869   -0.2790 H   0  0  0  0  0  0
    1.6374    2.4601    0.0034 H   0  0  0  0  0  0
    6.0539    3.8303   -0.5879 H   0  0  0  0  0  0
    5.9941    2.3774    0.4387 H   0  0  0  0  0  0
    5.8019    2.2298   -1.3247 H   0  0  0  0  0  0
   -8.3372   -1.2620   -0.4808 H   0  0  0  0  0  0
   -8.1124   -1.1096    1.1771 H   0  0  0  0  0  0
  1  2  1  0  0  0
  1  6  2  0  0  0
  2  3  2  0  0  0
  2 26  1  0  0  0
  3  4  1  0  0  0
  4  5  2  0  0  0
  4 11  1  0  0  0
  5  6  1  0  0  0
  5  8  1  0  0  0
  6  7  1  0  0  0
  7 27  1  0  0  0
  7 28  1  0  0  0
  8  9  2  0  0  0
  9 10  1  0  0  0
  9 12  1  0  0  0
 10 11  2  0  0  0
 10 29  1  0  0  0
 12 13  1  0  0  0
 12 30  1  0  0  0
 12 31  1  0  0  0
 13 14  1  0  0  0
 13 32  1  0  0  0
 14 15  1  0  0  0
 14 19  2  0  0  0
 15 16  2  0  0  0
 15 33  1  0  0  0
 16 17  1  0  0  0
 16 22  1  0  0  0
 17 18  2  0  0  0
 17 34  1  0  0  0
 18 19  1  0  0  0
 18 20  1  0  0  0
 19 35  1  0  0  0
 20 21  1  0  0  0
 21 36  1  0  0  0
 21 37  1  0  0  0
 21 38  1  0  0  0
 22 23  1  0  0  0
 22 24  1  0  0  0
 22 25  1  0  0  0
 26 39  1  0  0  0
 26 40  1  0  0  0
M  END
>  <ACTIVITY>
5.72125

>  <set_rl>
2

>  <Min_dist>
0.144578

>  <Avg_dist>
0.49435

>  <PC_uM>
0.68

>  <TG_uM>
0.89

>  <RL_uM>
1.9

$$$$
9-12T
  Cerius2 12110214553D 1   1.00000                          
 
 40 43  0  0  0  0  0  0  0  0999 V2000
   -4.8734    1.4049   -0.1066 N   0  0  0  0  0  0
   -5.4795    0.2290   -0.2396 C   0  0  0  0  0  0
   -4.8489   -0.9261   -0.1691 N   0  0  0  0  0  0
   -3.5283   -0.9810    0.0460 C   0  0  0  0  0  0
   -2.8143    0.2334    0.1978 C   0  0  0  0  0  0
   -3.5681    1.4856    0.1098 C   0  0  0  0  0  0
   -2.9424    2.7053    0.2468 N   0  0  0  0  0  0
   -1.5028    0.2124    0.4128 N   0  0  0  0  0  0
   -0.8755   -0.9424    0.4832 C   0  0  0  0  0  0
   -1.5734   -2.1404    0.3346 C   0  0  0  0  0  0
   -2.8721   -2.1415    0.1210 N   0  0  0  0  0  0
    0.6115   -0.9702    0.7264 C   0  0  0  0  0  0
    1.3482   -0.9396   -0.6142 C   0  0  0  0  0  0
    2.8352   -0.9675   -0.3710 C   0  0  0  0  0  0
    3.4941   -2.1563   -0.2964 C   0  0  0  0  0  0
    4.8686   -2.2018   -0.0726 C   0  0  0  0  0  0
    5.5925   -1.0589    0.0779 C   0  0  0  0  0  0
    4.9470    0.1871    0.0070 C   0  0  0  0  0  0
    3.5496    0.2336   -0.2260 C   0  0  0  0  0  0
    2.9041    1.4800   -0.2973 C   0  0  0  0  0  0
    3.6271    2.6225   -0.1423 C   0  0  0  0  0  0
    5.0012    2.5768    0.0864 C   0  0  0  0  0  0
    5.6608    1.3886    0.1570 C   0  0  0  0  0  0
   -6.8431    0.2174   -0.4631 N   0  0  0  0  0  0
   -3.4581    3.5245    0.1856 H   0  0  0  0  0  0
   -1.9861    2.7448    0.4045 H   0  0  0  0  0  0
   -1.0419   -3.0786    0.3954 H   0  0  0  0  0  0
    0.8991   -0.1017    1.3189 H   0  0  0  0  0  0
    0.8746   -1.8807    1.2649 H   0  0  0  0  0  0
    1.0606   -1.8081   -1.2067 H   0  0  0  0  0  0
    1.0851   -0.0292   -1.1527 H   0  0  0  0  0  0
    2.9432   -3.0780   -0.4120 H   0  0  0  0  0  0
    5.3671   -3.1583   -0.0173 H   0  0  0  0  0  0
    6.6573   -1.1095    0.2512 H   0  0  0  0  0  0
    1.8400    1.5309   -0.4746 H   0  0  0  0  0  0
    3.1286    3.5790   -0.1976 H   0  0  0  0  0  0
    5.5515    3.4985    0.2056 H   0  0  0  0  0  0
    6.7258    1.3686    0.3350 H   0  0  0  0  0  0
   -7.3325    1.0530   -0.5193 H   0  0  0  0  0  0
   -7.3109   -0.6263   -0.5639 H   0  0  0  0  0  0
  1  2  1  0  0  0
  1  6  2  0  0  0
  2  3  2  0  0  0
  2 24  1  0  0  0
  3  4  1  0  0  0
  4  5  2  0  0  0
  4 11  1  0  0  0
  5  6  1  0  0  0
  5  8  1  0  0  0
  6  7  1  0  0  0
  7 25  1  0  0  0
  7 26  1  0  0  0
  8  9  2  0  0  0
  9 10  1  0  0  0
  9 12  1  0  0  0
 10 11  2  0  0  0
 10 27  1  0  0  0
 12 13  1  0  0  0
 12 28  1  0  0  0
 12 29  1  0  0  0
 13 14  1  0  0  0
 13 30  1  0  0  0
 13 31  1  0  0  0
 14 15  1  0  0  0
 14 19  2  0  0  0
 15 16  2  0  0  0
 15 32  1  0  0  0
 16 17  1  0  0  0
 16 33  1  0  0  0
 17 18  2  0  0  0
 17 34  1  0  0  0
 18 19  1  0  0  0
 18 23  1  0  0  0
 19 20  1  0  0  0
 20 21  2  0  0  0
 20 35  1  0  0  0
 21 22  1  0  0  0
 21 36  1  0  0  0
 22 23  2  0  0  0
 22 37  1  0  0  0
 23 38  1  0  0  0
 24 39  1  0  0  0
 24 40  1  0  0  0
M  END
>  <ACTIVITY>
4.22185

>  <set_rl>
2

>  <Min_dist>
0.295775

>  <Avg_dist>
0.55245

>  <PC_uM>
97

>  <TG_uM>
0.82

>  <RL_uM>
60

$$$$
9-12U
  Cerius2 12110214553D 1   1.00000                          
 
 42 44  0  0  0  0  0  0  0  0999 V2000
   -5.3361    0.9598   -0.0780 N   0  0  0  0  0  0
   -5.7357   -0.2982   -0.2381 C   0  0  0  0  0  0
   -4.9194   -1.3319   -0.1914 N   0  0  0  0  0  0
   -3.6082   -1.1683    0.0256 C   0  0  0  0  0  0
   -3.1086    0.1454    0.2056 C   0  0  0  0  0  0
   -4.0628    1.2543    0.1432 C   0  0  0  0  0  0
   -3.6512    2.5587    0.3083 N   0  0  0  0  0  0
   -1.8121    0.3409    0.4231 N   0  0  0  0  0  0
   -0.9991   -0.6930    0.4698 C   0  0  0  0  0  0
   -1.4855   -1.9880    0.2933 C   0  0  0  0  0  0
   -2.7658   -2.2030    0.0767 N   0  0  0  0  0  0
    0.4716   -0.4754    0.7158 C   0  0  0  0  0  0
    1.1908   -0.2917   -0.6221 C   0  0  0  0  0  0
    2.6616   -0.0741   -0.3761 C   0  0  0  0  0  0
    3.5208   -1.1547   -0.3259 C   0  0  0  0  0  0
    4.8743   -0.9543   -0.1000 C   0  0  0  0  0  0
    5.3654    0.3311    0.0755 C   0  0  0  0  0  0
    4.5064    1.4113    0.0253 C   0  0  0  0  0  0
    3.1533    1.2114   -0.2059 C   0  0  0  0  0  0
    2.3076    2.2750   -0.2558 O   0  0  0  0  0  0
    3.1003    3.4436   -0.0367 C   0  0  0  0  0  0
    5.7201   -2.0180   -0.0501 O   0  0  0  0  0  0
    7.0275   -1.4951    0.1934 C   0  0  0  0  0  0
   -7.0781   -0.5344   -0.4650 N   0  0  0  0  0  0
   -4.2977    3.2805    0.2638 H   0  0  0  0  0  0
   -2.7151    2.7552    0.4691 H   0  0  0  0  0  0
   -0.8035   -2.8244    0.3348 H   0  0  0  0  0  0
    0.6096    0.4160    1.3278 H   0  0  0  0  0  0
    0.8851   -1.3401    1.2348 H   0  0  0  0  0  0
    1.0528   -1.1830   -1.2342 H   0  0  0  0  0  0
    0.7773    0.5730   -1.1412 H   0  0  0  0  0  0
    3.1384   -2.1555   -0.4622 H   0  0  0  0  0  0
    6.4195    0.4871    0.2518 H   0  0  0  0  0  0
    4.8887    2.4121    0.1623 H   0  0  0  0  0  0
    2.4621    4.3267   -0.0680 H   0  0  0  0  0  0
    3.5823    3.3781    0.9387 H   0  0  0  0  0  0
    3.8611    3.5175   -0.8138 H   0  0  0  0  0  0
    7.7437   -2.3154    0.2418 H   0  0  0  0  0  0
    7.3044   -0.8182   -0.6149 H   0  0  0  0  0  0
    7.0316   -0.9528    1.1389 H   0  0  0  0  0  0
   -7.7014    0.2078   -0.5040 H   0  0  0  0  0  0
   -7.3972   -1.4425   -0.5853 H   0  0  0  0  0  0
  1  2  1  0  0  0
  1  6  2  0  0  0
  2  3  2  0  0  0
  2 24  1  0  0  0
  3  4  1  0  0  0
  4  5  2  0  0  0
  4 11  1  0  0  0
  5  6  1  0  0  0
  5  8  1  0  0  0
  6  7  1  0  0  0
  7 25  1  0  0  0
  7 26  1  0  0  0
  8  9  2  0  0  0
  9 10  1  0  0  0
  9 12  1  0  0  0
 10 11  2  0  0  0
 10 27  1  0  0  0
 12 13  1  0  0  0
 12 28  1  0  0  0
 12 29  1  0  0  0
 13 14  1  0  0  0
 13 30  1  0  0  0
 13 31  1  0  0  0
 14 15  1  0  0  0
 14 19  2  0  0  0
 15 16  2  0  0  0
 15 32  1  0  0  0
 16 17  1  0  0  0
 16 22  1  0  0  0
 17 18  2  0  0  0
 17 33  1  0  0  0
 18 19  1  0  0  0
 18 34  1  0  0  0
 19 20  1  0  0  0
 20 21  1  0  0  0
 21 35  1  0  0  0
 21 36  1  0  0  0
 21 37  1  0  0  0
 22 23  1  0  0  0
 23 38  1  0  0  0
 23 39  1  0  0  0
 23 40  1  0  0  0
 24 41  1  0  0  0
 24 42  1  0  0  0
M  END
>  <ACTIVITY>
4.63451

>  <set_rl>
2

>  <Min_dist>
0.235294

>  <Avg_dist>
0.549101

>  <PC_uM>
11.1

>  <TG_uM>
5.4

>  <RL_uM>
23.2

$$$$
12-4E
  Cerius2 12110214553D 1   1.00000                          
 
 42 46  0  0  0  0  0  0  0  0999 V2000
   -4.7898    0.5750   -0.4382 N   0  0  0  0  0  0
   -4.9581   -0.6840   -0.8314 C   0  0  0  0  0  0
   -4.0607   -1.6306   -0.6431 N   0  0  0  0  0  0
   -2.8994   -1.3704   -0.0294 C   0  0  0  0  0  0
   -2.6492   -0.0494    0.4180 C   0  0  0  0  0  0
   -3.6829    0.9602    0.1810 C   0  0  0  0  0  0
   -3.5108    2.2654    0.5870 N   0  0  0  0  0  0
   -1.5062    0.2409    1.0311 N   0  0  0  0  0  0
   -0.6119   -0.7063    1.2183 C   0  0  0  0  0  0
   -0.8530   -2.0080    0.7800 C   0  0  0  0  0  0
   -1.9783   -2.3161    0.1708 N   0  0  0  0  0  0
    0.6855   -0.3810    1.9126 C   0  0  0  0  0  0
    1.6819    0.0274    0.9193 N   0  0  0  0  0  0
    1.6994    1.3582    0.5035 C   0  0  0  0  0  0
    2.1841    1.7266   -0.7459 C   0  0  0  0  0  0
    2.1814    3.0687   -1.1134 C   0  0  0  0  0  0
    1.7000    4.0304   -0.2459 C   0  0  0  0  0  0
    1.2165    3.6629    0.9951 C   0  0  0  0  0  0
    1.2156    2.3322    1.3696 C   0  0  0  0  0  0
    2.8029    0.5382   -1.8832 S   0  0  0  0  0  0
    3.1493   -0.8211   -0.8243 C   0  0  0  0  0  0
    2.5725   -0.9315    0.4377 C   0  0  0  0  0  0
    2.8770   -2.0244    1.2414 C   0  0  0  0  0  0
    3.7480   -2.9998    0.7933 C   0  0  0  0  0  0
    4.3207   -2.8915   -0.4595 C   0  0  0  0  0  0
    4.0273   -1.8069   -1.2639 C   0  0  0  0  0  0
   -6.1367   -1.0176   -1.4711 N   0  0  0  0  0  0
   -4.2066    2.9206    0.4214 H   0  0  0  0  0  0
   -2.6938    2.5291    1.0385 H   0  0  0  0  0  0
   -0.1075   -2.7724    0.9423 H   0  0  0  0  0  0
    0.5246    0.4314    2.6212 H   0  0  0  0  0  0
    1.0434   -1.2621    2.4452 H   0  0  0  0  0  0
    2.5582    3.3605   -2.0826 H   0  0  0  0  0  0
    1.7014    5.0701   -0.5383 H   0  0  0  0  0  0
    0.8390    4.4149    1.6721 H   0  0  0  0  0  0
    0.8373    2.0478    2.3404 H   0  0  0  0  0  0
    2.4310   -2.1116    2.2212 H   0  0  0  0  0  0
    3.9810   -3.8462    1.4224 H   0  0  0  0  0  0
    5.0009   -3.6537   -0.8096 H   0  0  0  0  0  0
    4.4778   -1.7271   -2.2423 H   0  0  0  0  0  0
   -6.8147   -0.3407   -1.6225 H   0  0  0  0  0  0
   -6.2859   -1.9287   -1.7686 H   0  0  0  0  0  0
  1  2  1  0  0  0
  1  6  2  0  0  0
  2  3  2  0  0  0
  2 27  1  0  0  0
  3  4  1  0  0  0
  4  5  2  0  0  0
  4 11  1  0  0  0
  5  6  1  0  0  0
  5  8  1  0  0  0
  6  7  1  0  0  0
  7 28  1  0  0  0
  7 29  1  0  0  0
  8  9  2  0  0  0
  9 10  1  0  0  0
  9 12  1  0  0  0
 10 11  2  0  0  0
 10 30  1  0  0  0
 12 13  1  0  0  0
 12 31  1  0  0  0
 12 32  1  0  0  0
 13 14  1  0  0  0
 13 22  1  0  0  0
 14 15  1  0  0  0
 14 19  2  0  0  0
 15 16  2  0  0  0
 15 20  1  0  0  0
 16 17  1  0  0  0
 16 33  1  0  0  0
 17 18  2  0  0  0
 17 34  1  0  0  0
 18 19  1  0  0  0
 18 35  1  0  0  0
 19 36  1  0  0  0
 20 21  1  0  0  0
 21 22  1  0  0  0
 21 26  2  0  0  0
 22 23  2  0  0  0
 23 24  1  0  0  0
 23 37  1  0  0  0
 24 25  2  0  0  0
 24 38  1  0  0  0
 25 26  1  0  0  0
 25 39  1  0  0  0
 26 40  1  0  0  0
 27 41  1  0  0  0
 27 42  1  0  0  0
M  END
>  <ACTIVITY>
6.69897

>  <set_rl>
2

>  <Min_dist>
0.085366

>  <Avg_dist>
0.606802

>  <PC_uM>
0.12

>  <TG_uM>
0.11

>  <RL_uM>
0.2

$$$$
1-233912
  Cerius2 12110214553D 1   1.00000                          
 
 32 34  0  0  0  0  0  0  0  0999 V2000
   -4.4768    0.9121    0.0003 N   0  0  0  0  0  0
   -4.7057   -0.3976   -0.0002 C   0  0  0  0  0  0
   -3.7480   -1.3031   -0.0006 N   0  0  0  0  0  0
   -2.4577   -0.9449   -0.0006 C   0  0  0  0  0  0
   -2.1364    0.4351   -0.0001 C   0  0  0  0  0  0
   -3.2422    1.3948    0.0004 C   0  0  0  0  0  0
   -3.0078    2.7524    0.0004 N   0  0  0  0  0  0
   -0.8650    0.8229    0.0004 N   0  0  0  0  0  0
    0.0894   -0.0833    0.0004 C   0  0  0  0  0  0
   -0.2213   -1.4427   -0.0001 C   0  0  0  0  0  0
   -1.4737   -1.8474   -0.0006 N   0  0  0  0  0  0
    1.5320    0.3525    0.0005 C   0  0  0  0  0  0
    2.3776   -0.7996    0.0005 O   0  0  0  0  0  0
    3.6588   -0.3464    0.0006 C   0  0  0  0  0  0
    4.7142   -1.2468    0.0006 C   0  0  0  0  0  0
    6.0157   -0.7837    0.0007 C   0  0  0  0  0  0
    6.2669    0.5759    0.0008 C   0  0  0  0  0  0
    5.2168    1.4754    0.0012 C   0  0  0  0  0  0
    3.9135    1.0173   -0.0051 C   0  0  0  0  0  0
   -6.0173   -0.8326    0.0002 N   0  0  0  0  0  0
   -3.7530    3.3733    0.0007 H   0  0  0  0  0  0
   -2.0974    3.0873    0.0001 H   0  0  0  0  0  0
    0.5751   -2.1721   -0.0001 H   0  0  0  0  0  0
    1.7313    0.9494   -0.8895 H   0  0  0  0  0  0
    1.7313    0.9494    0.8905 H   0  0  0  0  0  0
    4.5185   -2.3090    0.0009 H   0  0  0  0  0  0
    6.8377   -1.4842    0.0011 H   0  0  0  0  0  0
    7.2851    0.9360    0.0008 H   0  0  0  0  0  0
    5.4156    2.5369    0.0020 H   0  0  0  0  0  0
    3.0936    1.7202   -0.0048 H   0  0  0  0  0  0
   -6.7421   -0.1879    0.0009 H   0  0  0  0  0  0
   -6.2132   -1.7826   -0.0001 H   0  0  0  0  0  0
  1  2  1  0  0  0
  1  6  2  0  0  0
  2  3  2  0  0  0
  2 20  1  0  0  0
  3  4  1  0  0  0
  4  5  2  0  0  0
  4 11  1  0  0  0
  5  6  1  0  0  0
  5  8  1  0  0  0
  6  7  1  0  0  0
  7 21  1  0  0  0
  7 22  1  0  0  0
  8  9  2  0  0  0
  9 10  1  0  0  0
  9 12  1  0  0  0
 10 11  2  0  0  0
 10 23  1  0  0  0
 12 13  1  0  0  0
 12 24  1  0  0  0
 12 25  1  0  0  0
 13 14  1  0  0  0
 14 15  1  0  0  0
 14 19  2  0  0  0
 15 16  2  0  0  0
 15 26  1  0  0  0
 16 17  1  0  0  0
 16 27  1  0  0  0
 17 18  2  0  0  0
 17 28  1  0  0  0
 18 19  1  0  0  0
 18 29  1  0  0  0
 19 30  1  0  0  0
 20 31  1  0  0  0
 20 32  1  0  0  0
M  END
>  <ACTIVITY>
4.88606

>  <set_rl>
2

>  <Min_dist>
0.114286

>  <Avg_dist>
0.547351

>  <PC_uM>
136

>  <TG_uM>
2.7

>  <RL_uM>
13

$$$$
6-48
  Cerius2 12110214553D 1   1.00000                          
 
 30 33  0  0  0  0  0  0  0  0999 V2000
   -3.0771   -1.2268   -0.0001 N   0  0  0  0  0  0
   -4.0000   -0.2867    0.0011 C   0  0  0  0  0  0
   -3.7412    1.0160    0.0008 N   0  0  0  0  0  0
   -2.5020    1.4850   -0.0001 C   0  0  0  0  0  0
   -1.4078    0.5075   -0.0010 C   0  0  0  0  0  0
   -0.1360    0.8742   -0.0011 N   0  0  0  0  0  0
    0.8092   -0.0536   -0.0009 C   0  0  0  0  0  0
    0.4557   -1.4747   -0.0007 C   0  0  0  0  0  0
   -0.8237   -1.8424   -0.0014 N   0  0  0  0  0  0
   -1.7729   -0.9123   -0.0012 C   0  0  0  0  0  0
    1.4817   -2.4515   -0.0001 C   0  0  0  0  0  0
    2.7833   -2.1059    0.0003 C   0  0  0  0  0  0
    3.2018   -0.7079    0.0001 C   0  0  0  0  0  0
    4.5595   -0.3648    0.0010 C   0  0  0  0  0  0
    4.9296    0.9496    0.0013 C   0  0  0  0  0  0
    3.9759    1.9588    0.0007 C   0  0  0  0  0  0
    2.6327    1.6529   -0.0002 C   0  0  0  0  0  0
    2.2310    0.3176   -0.0005 C   0  0  0  0  0  0
   -2.2505    2.8385   -0.0008 N   0  0  0  0  0  0
   -5.3234   -0.6817    0.0021 N   0  0  0  0  0  0
    1.2138   -3.4978    0.0005 H   0  0  0  0  0  0
    3.5350   -2.8815    0.0011 H   0  0  0  0  0  0
    5.3129   -1.1386    0.0019 H   0  0  0  0  0  0
    5.9783    1.2078    0.0023 H   0  0  0  0  0  0
    4.2897    2.9922    0.0013 H   0  0  0  0  0  0
    1.8956    2.4422   -0.0003 H   0  0  0  0  0  0
   -2.9879    3.4687   -0.0005 H   0  0  0  0  0  0
   -1.3360    3.1619   -0.0015 H   0  0  0  0  0  0
   -6.0284   -0.0154    0.0030 H   0  0  0  0  0  0
   -5.5479   -1.6253    0.0020 H   0  0  0  0  0  0
  1  2  1  0  0  0
  1 10  2  0  0  0
  2  3  2  0  0  0
  2 20  1  0  0  0
  3  4  1  0  0  0
  4  5  2  0  0  0
  4 19  1  0  0  0
  5  6  1  0  0  0
  5 10  1  0  0  0
  6  7  2  0  0  0
  7  8  1  0  0  0
  7 18  1  0  0  0
  8  9  2  0  0  0
  8 11  1  0  0  0
  9 10  1  0  0  0
 11 12  2  0  0  0
 11 21  1  0  0  0
 12 13  1  0  0  0
 12 22  1  0  0  0
 13 14  2  0  0  0
 13 18  1  0  0  0
 14 15  1  0  0  0
 14 23  1  0  0  0
 15 16  2  0  0  0
 15 24  1  0  0  0
 16 17  1  0  0  0
 16 25  1  0  0  0
 17 18  2  0  0  0
 17 26  1  0  0  0
 19 27  1  0  0  0
 19 28  1  0  0  0
 20 29  1  0  0  0
 20 30  1  0  0  0
M  END
>  <ACTIVITY>
5.88606

>  <set_rl>
2

>  <Min_dist>
0.244898

>  <Avg_dist>
0.570441

>  <PC_uM>
18.4

>  <TG_uM>
4.9

>  <RL_uM>
1.3

$$$$
11-AH2503
  Cerius2 12110214553D 1   1.00000                          
 
 30 31  0  0  0  0  0  0  0  0999 V2000
   -3.0218    0.5523   -0.1032 N   0  0  0  0  0  0
   -2.9571   -0.7528    0.1424 C   0  0  0  0  0  0
   -1.8238   -1.4141    0.2663 N   0  0  0  0  0  0
   -0.6438   -0.7920    0.1488 C   0  0  0  0  0  0
   -0.6338    0.6005   -0.1132 C   0  0  0  0  0  0
   -1.9236    1.2817   -0.2409 C   0  0  0  0  0  0
   -1.9934    2.6338   -0.4957 N   0  0  0  0  0  0
    0.5212    1.2470   -0.2349 N   0  0  0  0  0  0
    1.6515    0.5845   -0.1102 C   0  0  0  0  0  0
    1.6473   -0.7859    0.1476 C   0  0  0  0  0  0
    0.5145   -1.4446    0.2715 N   0  0  0  0  0  0
    2.9552   -1.5215    0.2860 C   0  0  0  0  0  0
    3.3853   -2.0587   -1.0805 C   0  0  0  0  0  0
    2.9630    1.3138   -0.2480 C   0  0  0  0  0  0
    3.3991    1.8419    1.1202 C   0  0  0  0  0  0
   -4.1410   -1.4531    0.2751 N   0  0  0  0  0  0
   -2.8569    3.0681   -0.5770 H   0  0  0  0  0  0
   -1.1790    3.1515   -0.5938 H   0  0  0  0  0  0
    3.7170   -0.8401    0.6646 H   0  0  0  0  0  0
    2.8331   -2.3523    0.9810 H   0  0  0  0  0  0
    4.2941   -2.6501   -0.9688 H   0  0  0  0  0  0
    2.5927   -2.6845   -1.4907 H   0  0  0  0  0  0
    3.5755   -1.2243   -1.7555 H   0  0  0  0  0  0
    3.7203    0.6303   -0.6318 H   0  0  0  0  0  0
    2.8437    2.1487   -0.9385 H   0  0  0  0  0  0
    4.3868    2.2952    1.0367 H   0  0  0  0  0  0
    2.6845    2.5890    1.4659 H   0  0  0  0  0  0
    3.4365    1.0179    1.8326 H   0  0  0  0  0  0
   -4.9898   -0.9915    0.1889 H   0  0  0  0  0  0
   -4.1232   -2.4062    0.4544 H   0  0  0  0  0  0
  1  2  1  0  0  0
  1  6  2  0  0  0
  2  3  2  0  0  0
  2 16  1  0  0  0
  3  4  1  0  0  0
  4  5  2  0  0  0
  4 11  1  0  0  0
  5  6  1  0  0  0
  5  8  1  0  0  0
  6  7  1  0  0  0
  7 17  1  0  0  0
  7 18  1  0  0  0
  8  9  2  0  0  0
  9 10  1  0  0  0
  9 14  1  0  0  0
 10 11  2  0  0  0
 10 12  1  0  0  0
 12 13  1  0  0  0
 12 19  1  0  0  0
 12 20  1  0  0  0
 13 21  1  0  0  0
 13 22  1  0  0  0
 13 23  1  0  0  0
 14 15  1  0  0  0
 14 24  1  0  0  0
 14 25  1  0  0  0
 15 26  1  0  0  0
 15 27  1  0  0  0
 15 28  1  0  0  0
 16 29  1  0  0  0
 16 30  1  0  0  0
M  END
>  <ACTIVITY>
5.65758

>  <set_rl>
2

>  <Min_dist>
0.105263

>  <Avg_dist>
0.629632

>  <PC_uM>
0.62

>  <TG_uM>
1

>  <RL_uM>
2.2

$$$$
11-AH2504
  Cerius2 12110214553D 1   1.00000                          
 
 38 40  0  0  0  0  0  0  0  0999 V2000
   -3.9762    1.1354    0.3093 N   0  0  0  0  0  0
   -4.2783   -0.0603   -0.1872 C   0  0  0  0  0  0
   -3.3773   -0.9821   -0.4623 N   0  0  0  0  0  0
   -2.0738   -0.7604   -0.2518 C   0  0  0  0  0  0
   -1.6755    0.4929    0.2763 C   0  0  0  0  0  0
   -2.7209    1.4779    0.5624 C   0  0  0  0  0  0
   -2.4102    2.7180    1.0766 N   0  0  0  0  0  0
   -0.3902    0.7464    0.4980 N   0  0  0  0  0  0
    0.5139   -0.1811    0.2214 C   0  0  0  0  0  0
    0.1195   -1.4245   -0.3025 C   0  0  0  0  0  0
   -1.1488   -1.6855   -0.5255 N   0  0  0  0  0  0
    1.1616   -2.4683   -0.6114 C   0  0  0  0  0  0
    1.2880   -3.4289    0.5727 C   0  0  0  0  0  0
    1.9493    0.0936    0.4651 C   0  0  0  0  0  0
    2.7394    0.6531   -0.5451 C   0  0  0  0  0  0
    4.0807    0.9070   -0.3078 C   0  0  0  0  0  0
    4.6350    0.6077    0.9223 C   0  0  0  0  0  0
    3.8564    0.0543    1.9235 C   0  0  0  0  0  0
    2.5177   -0.1986    1.7035 C   0  0  0  0  0  0
    2.1937    0.9459   -1.7538 O   0  0  0  0  0  0
    3.2398    1.4963   -2.5569 C   0  0  0  0  0  0
   -5.6076   -0.3524   -0.4271 N   0  0  0  0  0  0
   -3.1160    3.3577    1.2599 H   0  0  0  0  0  0
   -1.4858    2.9512    1.2552 H   0  0  0  0  0  0
    0.8659   -3.0249   -1.5008 H   0  0  0  0  0  0
    2.1210   -1.9825   -0.7891 H   0  0  0  0  0  0
    2.0417   -4.1839    0.3493 H   0  0  0  0  0  0
    1.5836   -2.8724    1.4621 H   0  0  0  0  0  0
    0.3285   -3.9148    0.7504 H   0  0  0  0  0  0
    4.6937    1.3388   -1.0851 H   0  0  0  0  0  0
    5.6811    0.8065    1.1030 H   0  0  0  0  0  0
    4.2971   -0.1769    2.8820 H   0  0  0  0  0  0
    1.9132   -0.6306    2.4873 H   0  0  0  0  0  0
    2.8473    1.7481   -3.5421 H   0  0  0  0  0  0
    3.6289    2.3958   -2.0800 H   0  0  0  0  0  0
    4.0410    0.7647   -2.6611 H   0  0  0  0  0  0
   -6.2918    0.3074   -0.2336 H   0  0  0  0  0  0
   -5.8565   -1.2173   -0.7891 H   0  0  0  0  0  0
  1  2  1  0  0  0
  1  6  2  0  0  0
  2  3  2  0  0  0
  2 22  1  0  0  0
  3  4  1  0  0  0
  4  5  2  0  0  0
  4 11  1  0  0  0
  5  6  1  0  0  0
  5  8  1  0  0  0
  6  7  1  0  0  0
  7 23  1  0  0  0
  7 24  1  0  0  0
  8  9  2  0  0  0
  9 10  1  0  0  0
  9 14  1  0  0  0
 10 11  2  0  0  0
 10 12  1  0  0  0
 12 13  1  0  0  0
 12 25  1  0  0  0
 12 26  1  0  0  0
 13 27  1  0  0  0
 13 28  1  0  0  0
 13 29  1  0  0  0
 14 15  1  0  0  0
 14 19  2  0  0  0
 15 16  2  0  0  0
 15 20  1  0  0  0
 16 17  1  0  0  0
 16 30  1  0  0  0
 17 18  2  0  0  0
 17 31  1  0  0  0
 18 19  1  0  0  0
 18 32  1  0  0  0
 19 33  1  0  0  0
 20 21  1  0  0  0
 21 34  1  0  0  0
 21 35  1  0  0  0
 21 36  1  0  0  0
 22 37  1  0  0  0
 22 38  1  0  0  0
M  END
>  <ACTIVITY>
6.38722

>  <set_rl>
2

>  <Min_dist>
0.282051

>  <Avg_dist>
0.593753

>  <PC_uM>
2

>  <TG_uM>
0.018

>  <RL_uM>
0.41

$$$$
12-4G
  Cerius2 12110214553D 1   1.00000                          
 
 43 46  0  0  0  0  0  0  0  0999 V2000
   -4.5802    0.6474   -0.4141 N   0  0  0  0  0  0
   -4.7904   -0.6449   -0.6453 C   0  0  0  0  0  0
   -3.9013   -1.5834   -0.3892 N   0  0  0  0  0  0
   -2.7056   -1.2796    0.1317 C   0  0  0  0  0  0
   -2.4098    0.0788    0.4053 C   0  0  0  0  0  0
   -3.4364    1.0772    0.0999 C   0  0  0  0  0  0
   -3.2208    2.4169    0.3381 N   0  0  0  0  0  0
   -1.2319    0.4128    0.9228 N   0  0  0  0  0  0
   -0.3460   -0.5264    1.1781 C   0  0  0  0  0  0
   -0.6320   -1.8647    0.9109 C   0  0  0  0  0  0
   -1.7923   -2.2164    0.3985 N   0  0  0  0  0  0
    0.9907   -0.1517    1.7645 C   0  0  0  0  0  0
    1.9420    0.1126    0.6821 N   0  0  0  0  0  0
    2.0697    1.4039    0.1642 C   0  0  0  0  0  0
    3.0476    1.6805   -0.7831 C   0  0  0  0  0  0
    3.1708    2.9578   -1.2933 C   0  0  0  0  0  0
    2.3224    3.9612   -0.8620 C   0  0  0  0  0  0
    1.3480    3.6894    0.0809 C   0  0  0  0  0  0
    1.2155    2.4129    0.5910 C   0  0  0  0  0  0
    2.7214   -0.9266    0.1679 C   0  0  0  0  0  0
    3.9161   -1.2728    0.7866 C   0  0  0  0  0  0
    4.6838   -2.3008    0.2759 C   0  0  0  0  0  0
    4.2648   -2.9851   -0.8504 C   0  0  0  0  0  0
    3.0761   -2.6431   -1.4689 C   0  0  0  0  0  0
    2.3007   -1.6199   -0.9601 C   0  0  0  0  0  0
   -6.0058   -1.0242   -1.1823 N   0  0  0  0  0  0
   -3.9126    3.0641    0.1294 H   0  0  0  0  0  0
   -2.3773    2.7130    0.7145 H   0  0  0  0  0  0
    0.1073   -2.6218    1.1269 H   0  0  0  0  0  0
    0.8806    0.7426    2.3779 H   0  0  0  0  0  0
    1.3599   -0.9716    2.3805 H   0  0  0  0  0  0
    3.7109    0.8975   -1.1199 H   0  0  0  0  0  0
    3.9307    3.1736   -2.0297 H   0  0  0  0  0  0
    2.4214    4.9595   -1.2621 H   0  0  0  0  0  0
    0.6873    4.4754    0.4158 H   0  0  0  0  0  0
    0.4540    2.2012    1.3271 H   0  0  0  0  0  0
    4.2443   -0.7383    1.6659 H   0  0  0  0  0  0
    5.6127   -2.5704    0.7565 H   0  0  0  0  0  0
    4.8675   -3.7882   -1.2482 H   0  0  0  0  0  0
    2.7520   -3.1794   -2.3485 H   0  0  0  0  0  0
    1.3723   -1.3536   -1.4434 H   0  0  0  0  0  0
   -6.6788   -0.3543   -1.3804 H   0  0  0  0  0  0
   -6.1860   -1.9604   -1.3612 H   0  0  0  0  0  0
  1  2  1  0  0  0
  1  6  2  0  0  0
  2  3  2  0  0  0
  2 26  1  0  0  0
  3  4  1  0  0  0
  4  5  2  0  0  0
  4 11  1  0  0  0
  5  6  1  0  0  0
  5  8  1  0  0  0
  6  7  1  0  0  0
  7 27  1  0  0  0
  7 28  1  0  0  0
  8  9  2  0  0  0
  9 10  1  0  0  0
  9 12  1  0  0  0
 10 11  2  0  0  0
 10 29  1  0  0  0
 12 13  1  0  0  0
 12 30  1  0  0  0
 12 31  1  0  0  0
 13 14  1  0  0  0
 13 20  1  0  0  0
 14 15  1  0  0  0
 14 19  2  0  0  0
 15 16  2  0  0  0
 15 32  1  0  0  0
 16 17  1  0  0  0
 16 33  1  0  0  0
 17 18  2  0  0  0
 17 34  1  0  0  0
 18 19  1  0  0  0
 18 35  1  0  0  0
 19 36  1  0  0  0
 20 21  1  0  0  0
 20 25  2  0  0  0
 21 22  2  0  0  0
 21 37  1  0  0  0
 22 23  1  0  0  0
 22 38  1  0  0  0
 23 24  2  0  0  0
 23 39  1  0  0  0
 24 25  1  0  0  0
 24 40  1  0  0  0
 25 41  1  0  0  0
 26 42  1  0  0  0
 26 43  1  0  0  0
M  END
>  <ACTIVITY>
5.39794

>  <set_rl>
2

>  <Min_dist>
0.060606

>  <Avg_dist>
0.506481

>  <PC_uM>
4.9

>  <TG_uM>
1.3

>  <RL_uM>
4

$$$$
10-12A
  Cerius2 12110214553D 1   1.00000                          
 
 38 40  0  0  0  0  0  0  0  0999 V2000
   -4.3101    0.4032    0.5440 N   0  0  0  0  0  0
   -4.2982   -0.9263    0.4999 C   0  0  0  0  0  0
   -3.2451   -1.6182    0.1092 N   0  0  0  0  0  0
   -2.1211   -0.9898   -0.2667 C   0  0  0  0  0  0
   -2.0882    0.4253   -0.2359 C   0  0  0  0  0  0
   -3.2498    1.1155    0.1929 C   0  0  0  0  0  0
   -3.2756    2.4928    0.2427 N   0  0  0  0  0  0
   -0.9257    1.0998   -0.6240 C   0  0  0  0  0  0
    0.1634    0.3845   -1.0280 C   0  0  0  0  0  0
    0.1332   -1.0067   -1.0592 C   0  0  0  0  0  0
   -0.9841   -1.6934   -0.6868 C   0  0  0  0  0  0
    1.4159    1.1104   -1.4468 C   0  0  0  0  0  0
    2.2796    1.3070   -0.2799 N   0  0  0  0  0  0
    3.2314    0.3413    0.0551 C   0  0  0  0  0  0
    4.0512    0.5261    1.1612 C   0  0  0  0  0  0
    4.9909   -0.4310    1.4899 C   0  0  0  0  0  0
    5.1164   -1.5724    0.7193 C   0  0  0  0  0  0
    4.3019   -1.7596   -0.3824 C   0  0  0  0  0  0
    3.3565   -0.8089   -0.7137 C   0  0  0  0  0  0
    2.1449    2.5166    0.5356 C   0  0  0  0  0  0
   -5.4376   -1.6120    0.8801 N   0  0  0  0  0  0
   -4.0770    2.9525    0.5380 H   0  0  0  0  0  0
   -2.4922    3.0022   -0.0175 H   0  0  0  0  0  0
   -0.8909    2.1790   -0.6043 H   0  0  0  0  0  0
    1.0084   -1.5504   -1.3829 H   0  0  0  0  0  0
   -0.9932   -2.7730   -0.7159 H   0  0  0  0  0  0
    1.9449    0.5203   -2.1951 H   0  0  0  0  0  0
    1.1501    2.0793   -1.8695 H   0  0  0  0  0  0
    3.9540    1.4175    1.7632 H   0  0  0  0  0  0
    5.6288   -0.2877    2.3495 H   0  0  0  0  0  0
    5.8523   -2.3191    0.9784 H   0  0  0  0  0  0
    4.4024   -2.6521   -0.9821 H   0  0  0  0  0  0
    2.7204   -0.9559   -1.5741 H   0  0  0  0  0  0
    1.3574    3.1472    0.1229 H   0  0  0  0  0  0
    1.8896    2.2388    1.5582 H   0  0  0  0  0  0
    3.0877    3.0638    0.5323 H   0  0  0  0  0  0
   -6.2233   -1.1233    1.1712 H   0  0  0  0  0  0
   -5.4509   -2.5816    0.8557 H   0  0  0  0  0  0
  1  2  1  0  0  0
  1  6  2  0  0  0
  2  3  2  0  0  0
  2 21  1  0  0  0
  3  4  1  0  0  0
  4  5  2  0  0  0
  4 11  1  0  0  0
  5  6  1  0  0  0
  5  8  1  0  0  0
  6  7  1  0  0  0
  7 22  1  0  0  0
  7 23  1  0  0  0
  8  9  2  0  0  0
  8 24  1  0  0  0
  9 10  1  0  0  0
  9 12  1  0  0  0
 10 11  2  0  0  0
 10 25  1  0  0  0
 11 26  1  0  0  0
 12 13  1  0  0  0
 12 27  1  0  0  0
 12 28  1  0  0  0
 13 14  1  0  0  0
 13 20  1  0  0  0
 14 15  1  0  0  0
 14 19  2  0  0  0
 15 16  2  0  0  0
 15 29  1  0  0  0
 16 17  1  0  0  0
 16 30  1  0  0  0
 17 18  2  0  0  0
 17 31  1  0  0  0
 18 19  1  0  0  0
 18 32  1  0  0  0
 19 33  1  0  0  0
 20 34  1  0  0  0
 20 35  1  0  0  0
 20 36  1  0  0  0
 21 37  1  0  0  0
 21 38  1  0  0  0
M  END
>  <ACTIVITY>
7.16115

>  <set_rl>
2

>  <Min_dist>
0.086207

>  <Avg_dist>
0.473062

>  <PC_uM>
0.096

>  <TG_uM>
0.011

>  <RL_uM>
0.069

$$$$
15-12
  Cerius2 12110214553D 1   1.00000                          
 
 46 48  0  0  0  0  0  0  0  0999 V2000
   -4.3273   -1.5176    0.5062 N   0  0  0  0  0  0
   -4.9569   -0.9364   -0.5116 C   0  0  0  0  0  0
   -4.4832    0.1272   -1.1302 N   0  0  0  0  0  0
   -3.3195    0.6756   -0.7458 C   0  0  0  0  0  0
   -2.6150    0.0900    0.3335 C   0  0  0  0  0  0
   -3.1733   -1.0525    0.9602 C   0  0  0  0  0  0
   -2.5311   -1.6641    2.0164 N   0  0  0  0  0  0
   -1.4002    0.6436    0.7516 C   0  0  0  0  0  0
   -0.9049    1.7565    0.1032 C   0  0  0  0  0  0
   -1.6057    2.3297   -0.9618 C   0  0  0  0  0  0
   -2.7900    1.8056   -1.3838 C   0  0  0  0  0  0
    0.3088    2.3161    0.5156 N   0  0  0  0  0  0
    1.1124    1.6477    1.5421 C   0  0  0  0  0  0
    2.0685    0.6862    0.8846 C   0  0  0  0  0  0
    3.3267    1.1147    0.5068 C   0  0  0  0  0  0
    4.2088    0.2314   -0.0993 C   0  0  0  0  0  0
    3.8270   -1.0820   -0.3253 C   0  0  0  0  0  0
    2.5643   -1.5096    0.0550 C   0  0  0  0  0  0
    1.6877   -0.6238    0.6655 C   0  0  0  0  0  0
    2.1870   -2.7964   -0.1656 O   0  0  0  0  0  0
    3.2920   -3.4488   -0.7945 C   0  0  0  0  0  0
    5.4458    0.6537   -0.4713 O   0  0  0  0  0  0
    6.1065   -0.4694   -1.0581 C   0  0  0  0  0  0
    0.7766    3.5706   -0.0790 C   0  0  0  0  0  0
   -6.1597   -1.4711   -0.9394 N   0  0  0  0  0  0
   -2.9240   -2.4452    2.4364 H   0  0  0  0  0  0
   -1.6864   -1.3130    2.3394 H   0  0  0  0  0  0
   -0.8553    0.2043    1.5742 H   0  0  0  0  0  0
   -1.2025    3.2008   -1.4569 H   0  0  0  0  0  0
   -3.3200    2.2600   -2.2079 H   0  0  0  0  0  0
    1.6754    2.3923    2.1048 H   0  0  0  0  0  0
    0.4556    1.1011    2.2189 H   0  0  0  0  0  0
    3.6237    2.1380    0.6831 H   0  0  0  0  0  0
    4.5120   -1.7708   -0.7972 H   0  0  0  0  0  0
    0.7039   -0.9564    0.9619 H   0  0  0  0  0  0
    3.0349   -4.4894   -0.9921 H   0  0  0  0  0  0
    3.5234   -2.9469   -1.7340 H   0  0  0  0  0  0
    4.1604   -3.4075   -0.1370 H   0  0  0  0  0  0
    7.1081   -0.1776   -1.3738 H   0  0  0  0  0  0
    6.1763   -1.2734   -0.3254 H   0  0  0  0  0  0
    5.5390   -0.8139   -1.9226 H   0  0  0  0  0  0
    0.0095    3.9650   -0.7455 H   0  0  0  0  0  0
    0.9784    4.2941    0.7109 H   0  0  0  0  0  0
    1.6898    3.3863   -0.6449 H   0  0  0  0  0  0
   -6.5266   -2.2536   -0.4988 H   0  0  0  0  0  0
   -6.6358   -1.0634   -1.6797 H   0  0  0  0  0  0
  1  2  1  0  0  0
  1  6  2  0  0  0
  2  3  2  0  0  0
  2 25  1  0  0  0
  3  4  1  0  0  0
  4  5  2  0  0  0
  4 11  1  0  0  0
  5  6  1  0  0  0
  5  8  1  0  0  0
  6  7  1  0  0  0
  7 26  1  0  0  0
  7 27  1  0  0  0
  8  9  2  0  0  0
  8 28  1  0  0  0
  9 10  1  0  0  0
  9 12  1  0  0  0
 10 11  2  0  0  0
 10 29  1  0  0  0
 11 30  1  0  0  0
 12 13  1  0  0  0
 12 24  1  0  0  0
 13 14  1  0  0  0
 13 31  1  0  0  0
 13 32  1  0  0  0
 14 15  1  0  0  0
 14 19  2  0  0  0
 15 16  2  0  0  0
 15 33  1  0  0  0
 16 17  1  0  0  0
 16 22  1  0  0  0
 17 18  2  0  0  0
 17 34  1  0  0  0
 18 19  1  0  0  0
 18 20  1  0  0  0
 19 35  1  0  0  0
 20 21  1  0  0  0
 21 36  1  0  0  0
 21 37  1  0  0  0
 21 38  1  0  0  0
 22 23  1  0  0  0
 23 39  1  0  0  0
 23 40  1  0  0  0
 23 41  1  0  0  0
 24 42  1  0  0  0
 24 43  1  0  0  0
 24 44  1  0  0  0
 25 45  1  0  0  0
 25 46  1  0  0  0
M  END
>  <ACTIVITY>
8.08619

>  <set_rl>
2

>  <Min_dist>
0.084507

>  <Avg_dist>
0.471657

>  <PC_uM>
0.0238

>  <TG_uM>
0.0093

>  <RL_uM>
0.0082

$$$$
10-3A
  Cerius2 12110214553D 1   1.00000                          
 
 48 50  0  0  0  0  0  0  0  0999 V2000
   -5.9869    0.9186   -1.1909 N   0  0  0  0  0  0
   -6.4102    1.0283    0.0655 C   0  0  0  0  0  0
   -5.7486    0.5221    1.0884 N   0  0  0  0  0  0
   -4.5970   -0.1375    0.8930 C   0  0  0  0  0  0
   -4.1080   -0.2788   -0.4282 C   0  0  0  0  0  0
   -4.8616    0.2859   -1.4878 C   0  0  0  0  0  0
   -4.4344    0.1789   -2.7940 N   0  0  0  0  0  0
   -2.9089   -0.9632   -0.6535 C   0  0  0  0  0  0
   -2.2246   -1.4866    0.4042 C   0  0  0  0  0  0
   -2.7035   -1.3488    1.7038 C   0  0  0  0  0  0
   -3.8684   -0.6872    1.9566 C   0  0  0  0  0  0
   -0.9330   -2.2244    0.1622 C   0  0  0  0  0  0
    0.1761   -1.2888    0.2155 O   0  0  0  0  0  0
    1.4364   -1.7265    0.0263 C   0  0  0  0  0  0
    1.6447   -2.9041   -0.1889 O   0  0  0  0  0  0
    2.5629   -0.7763    0.0805 C   0  0  0  0  0  0
    3.8706   -1.2289   -0.1155 C   0  0  0  0  0  0
    4.9244   -0.3361   -0.0647 C   0  0  0  0  0  0
    4.6842    1.0132    0.1815 C   0  0  0  0  0  0
    3.3823    1.4669    0.3772 C   0  0  0  0  0  0
    2.3243    0.5794    0.3222 C   0  0  0  0  0  0
    3.1513    2.7855    0.6175 O   0  0  0  0  0  0
    1.7387    2.9356    0.7730 C   0  0  0  0  0  0
    5.7222    1.8888    0.2314 O   0  0  0  0  0  0
    5.9139    2.3781   -1.0974 C   0  0  0  0  0  0
    6.1973   -0.7759   -0.2549 O   0  0  0  0  0  0
    6.1180   -2.1846   -0.4811 C   0  0  0  0  0  0
   -7.5934    1.7017    0.3095 N   0  0  0  0  0  0
   -4.9597    0.5699   -3.5096 H   0  0  0  0  0  0
   -3.6086   -0.2874   -2.9976 H   0  0  0  0  0  0
   -2.5278   -1.0766   -1.6576 H   0  0  0  0  0  0
   -2.1434   -1.7722    2.5245 H   0  0  0  0  0  0
   -4.2280   -0.5880    2.9702 H   0  0  0  0  0  0
   -0.8016   -2.9879    0.9290 H   0  0  0  0  0  0
   -0.9630   -2.6969   -0.8196 H   0  0  0  0  0  0
    4.0576   -2.2753   -0.3062 H   0  0  0  0  0  0
    1.3147    0.9319    0.4737 H   0  0  0  0  0  0
    1.5039    3.9820    0.9684 H   0  0  0  0  0  0
    1.2366    2.6149   -0.1397 H   0  0  0  0  0  0
    1.3983    2.3246    1.6089 H   0  0  0  0  0  0
    6.7411    3.0880   -1.1074 H   0  0  0  0  0  0
    6.1422    1.5449   -1.7620 H   0  0  0  0  0  0
    5.0048    2.8748   -1.4364 H   0  0  0  0  0  0
    7.1197   -2.5841   -0.6396 H   0  0  0  0  0  0
    5.6675   -2.6671    0.3863 H   0  0  0  0  0  0
    5.5063   -2.3773   -1.3625 H   0  0  0  0  0  0
   -8.0959    2.0821   -0.4278 H   0  0  0  0  0  0
   -7.9206    1.7936    1.2180 H   0  0  0  0  0  0
  1  2  1  0  0  0
  1  6  2  0  0  0
  2  3  2  0  0  0
  2 28  1  0  0  0
  3  4  1  0  0  0
  4  5  2  0  0  0
  4 11  1  0  0  0
  5  6  1  0  0  0
  5  8  1  0  0  0
  6  7  1  0  0  0
  7 29  1  0  0  0
  7 30  1  0  0  0
  8  9  2  0  0  0
  8 31  1  0  0  0
  9 10  1  0  0  0
  9 12  1  0  0  0
 10 11  2  0  0  0
 10 32  1  0  0  0
 11 33  1  0  0  0
 12 13  1  0  0  0
 12 34  1  0  0  0
 12 35  1  0  0  0
 13 14  1  0  0  0
 14 15  2  0  0  0
 14 16  1  0  0  0
 16 17  1  0  0  0
 16 21  2  0  0  0
 17 18  2  0  0  0
 17 36  1  0  0  0
 18 19  1  0  0  0
 18 26  1  0  0  0
 19 20  2  0  0  0
 19 24  1  0  0  0
 20 21  1  0  0  0
 20 22  1  0  0  0
 21 37  1  0  0  0
 22 23  1  0  0  0
 23 38  1  0  0  0
 23 39  1  0  0  0
 23 40  1  0  0  0
 24 25  1  0  0  0
 25 41  1  0  0  0
 25 42  1  0  0  0
 25 43  1  0  0  0
 26 27  1  0  0  0
 27 44  1  0  0  0
 27 45  1  0  0  0
 27 46  1  0  0  0
 28 47  1  0  0  0
 28 48  1  0  0  0
M  END
>  <ACTIVITY>
7.58503

>  <set_rl>
2

>  <Min_dist>
0.079545

>  <Avg_dist>
0.593285

>  <PC_uM>
0.56

>  <TG_uM>
0.05

>  <RL_uM>
0.026

$$$$
1-TRIMETREXATE
  Cerius2 12110214553D 1   1.00000                          
 
 50 52  0  0  0  0  0  0  0  0999 V2000
   -5.7276   -0.8917   -0.9516 N   0  0  0  0  0  0
   -6.2942   -0.3740    0.1350 C   0  0  0  0  0  0
   -5.6213    0.3312    1.0239 N   0  0  0  0  0  0
   -4.3092    0.5568    0.8594 C   0  0  0  0  0  0
   -3.6639    0.0247   -0.2830 C   0  0  0  0  0  0
   -4.4379   -0.7250   -1.2041 C   0  0  0  0  0  0
   -3.8630   -1.2672   -2.3335 N   0  0  0  0  0  0
   -2.2962    0.2486   -0.4732 C   0  0  0  0  0  0
   -1.6001    0.9778    0.4459 C   0  0  0  0  0  0
   -2.2324    1.5018    1.5696 C   0  0  0  0  0  0
   -3.5640    1.3019    1.7835 C   0  0  0  0  0  0
   -0.1266    1.2189    0.2419 C   0  0  0  0  0  0
    0.6140   -0.0121    0.5289 N   0  0  0  0  0  0
    2.0059   -0.0395    0.3906 C   0  0  0  0  0  0
    2.7074   -1.2062    0.6627 C   0  0  0  0  0  0
    4.0865   -1.2341    0.5258 C   0  0  0  0  0  0
    4.7670   -0.0937    0.1162 C   0  0  0  0  0  0
    4.0642    1.0738   -0.1559 C   0  0  0  0  0  0
    2.6844    1.0985   -0.0241 C   0  0  0  0  0  0
    4.7292    2.1902   -0.5569 O   0  0  0  0  0  0
    3.7458    3.2079   -0.7551 C   0  0  0  0  0  0
    6.1220   -0.1202   -0.0180 O   0  0  0  0  0  0
    6.3961   -0.5154   -1.3636 C   0  0  0  0  0  0
    4.7735   -2.3769    0.7928 O   0  0  0  0  0  0
    3.8096   -3.3562    1.1849 C   0  0  0  0  0  0
   -1.5966   -0.3123   -1.6844 C   0  0  0  0  0  0
   -7.6457   -0.5835    0.3411 N   0  0  0  0  0  0
   -2.9949   -1.6962   -2.2776 H   0  0  0  0  0  0
   -4.3267   -1.2197   -3.1842 H   0  0  0  0  0  0
   -1.6596    2.0759    2.2829 H   0  0  0  0  0  0
   -4.0415    1.7144    2.6599 H   0  0  0  0  0  0
    0.0531    1.5187   -0.7906 H   0  0  0  0  0  0
    0.2086    2.0095    0.9133 H   0  0  0  0  0  0
    0.1393   -0.8082    0.8148 H   0  0  0  0  0  0
    2.1785   -2.0923    0.9813 H   0  0  0  0  0  0
    2.1381    2.0057   -0.2359 H   0  0  0  0  0  0
    4.2343    4.1270   -1.0789 H   0  0  0  0  0  0
    3.0373    2.8849   -1.5177 H   0  0  0  0  0  0
    3.2159    3.3882    0.1802 H   0  0  0  0  0  0
    7.4743   -0.5509   -1.5194 H   0  0  0  0  0  0
    5.9698   -1.5017   -1.5467 H   0  0  0  0  0  0
    5.9532    0.2051   -2.0513 H   0  0  0  0  0  0
    4.3161   -4.2947    1.4103 H   0  0  0  0  0  0
    3.2780   -3.0085    2.0707 H   0  0  0  0  0  0
    3.0994   -3.5125    0.3730 H   0  0  0  0  0  0
   -1.3301   -1.3532   -1.5006 H   0  0  0  0  0  0
   -2.2605   -0.2542   -2.5469 H   0  0  0  0  0  0
   -0.6931    0.2646   -1.8818 H   0  0  0  0  0  0
   -8.1599   -1.0988   -0.2999 H   0  0  0  0  0  0
   -8.0793   -0.2151    1.1267 H   0  0  0  0  0  0
  1  2  1  0  0  0
  1  6  2  0  0  0
  2  3  2  0  0  0
  2 27  1  0  0  0
  3  4  1  0  0  0
  4  5  2  0  0  0
  4 11  1  0  0  0
  5  6  1  0  0  0
  5  8  1  0  0  0
  6  7  1  0  0  0
  7 28  1  0  0  0
  7 29  1  0  0  0
  8  9  2  0  0  0
  8 26  1  0  0  0
  9 10  1  0  0  0
  9 12  1  0  0  0
 10 11  2  0  0  0
 10 30  1  0  0  0
 11 31  1  0  0  0
 12 13  1  0  0  0
 12 32  1  0  0  0
 12 33  1  0  0  0
 13 14  1  0  0  0
 13 34  1  0  0  0
 14 15  1  0  0  0
 14 19  2  0  0  0
 15 16  2  0  0  0
 15 35  1  0  0  0
 16 17  1  0  0  0
 16 24  1  0  0  0
 17 18  2  0  0  0
 17 22  1  0  0  0
 18 19  1  0  0  0
 18 20  1  0  0  0
 19 36  1  0  0  0
 20 21  1  0  0  0
 21 37  1  0  0  0
 21 38  1  0  0  0
 21 39  1  0  0  0
 22 23  1  0  0  0
 23 40  1  0  0  0
 23 41  1  0  0  0
 23 42  1  0  0  0
 24 25  1  0  0  0
 25 43  1  0  0  0
 25 44  1  0  0  0
 25 45  1  0  0  0
 26 46  1  0  0  0
 26 47  1  0  0  0
 26 48  1  0  0  0
 27 49  1  0  0  0
 27 50  1  0  0  0
M  END
>  <ACTIVITY>
8.52288

>  <set_rl>
2

>  <Min_dist>
0.127907

>  <Avg_dist>
0.456603

>  <PC_uM>
0.042

>  <TG_uM>
10

>  <RL_uM>
0.003

$$$$
1-184692
  Cerius2 12110214553D 1   1.00000                          
 
 58 60  0  0  0  0  0  0  0  0999 V2000
   -7.9105   -0.8882   -0.4245 N   0  0  0  0  0  0
   -8.4270    0.2498    0.0315 C   0  0  0  0  0  0
   -7.6849    1.2911    0.3560 N   0  0  0  0  0  0
   -6.3501    1.2380    0.2345 C   0  0  0  0  0  0
   -5.7562    0.0463   -0.2470 C   0  0  0  0  0  0
   -6.6038   -1.0402   -0.5799 C   0  0  0  0  0  0
   -6.0814   -2.2248   -1.0530 N   0  0  0  0  0  0
   -4.3658   -0.0297   -0.3811 C   0  0  0  0  0  0
   -3.5983    1.0470   -0.0457 C   0  0  0  0  0  0
   -4.1799    2.2195    0.4279 C   0  0  0  0  0  0
   -5.5318    2.3254    0.5695 C   0  0  0  0  0  0
   -2.1003    0.9658   -0.1894 C   0  0  0  0  0  0
   -1.5386    0.2426    0.9542 N   0  0  0  0  0  0
   -0.1786   -0.0442    0.9954 C   0  0  0  0  0  0
    0.3537   -0.7315    2.0828 C   0  0  0  0  0  0
    1.6991   -1.0169    2.1265 C   0  0  0  0  0  0
    2.5317   -0.6159    1.0775 C   0  0  0  0  0  0
    1.9941    0.0741   -0.0130 C   0  0  0  0  0  0
    0.6468    0.3515   -0.0535 C   0  0  0  0  0  0
    3.9746   -0.9198    1.1215 C   0  0  0  0  0  0
    4.4409   -1.5197    2.0708 O   0  0  0  0  0  0
    4.7759   -0.5325    0.1094 N   0  0  0  0  0  0
    6.2088   -0.8343    0.1531 C   0  0  0  0  0  0
    6.4604   -2.1719   -0.4940 C   0  0  0  0  0  0
    5.7316   -2.5623   -1.3906 O   0  0  0  0  0  0
    7.3929   -2.8640   -0.1210 O   0  5  0  0  0  0
    6.9816    0.2502   -0.6004 C   0  0  0  0  0  0
    6.7262    1.6081    0.0566 C   0  0  0  0  0  0
    7.4873    2.6763   -0.6855 C   0  0  0  0  0  0
    7.4166    3.8912   -0.3043 O   0  0  0  0  0  0
    8.2022    2.3653   -1.6948 O   0  5  0  0  0  0
   -3.7205   -1.2921   -0.8919 C   0  0  0  0  0  0
   -3.6409   -1.2423   -2.4190 C   0  0  0  0  0  0
   -9.7997    0.3454    0.1709 N   0  0  0  0  0  0
   -5.4178   -2.2141   -1.7604 H   0  0  0  0  0  0
   -6.3774   -3.0692   -0.6784 H   0  0  0  0  0  0
   -3.5508    3.0583    0.6868 H   0  0  0  0  0  0
   -5.9693    3.2414    0.9382 H   0  0  0  0  0  0
   -1.8518    0.4385   -1.1104 H   0  0  0  0  0  0
   -1.6834    1.9723   -0.2231 H   0  0  0  0  0  0
   -2.1153   -0.0361    1.6826 H   0  0  0  0  0  0
   -0.2900   -1.0408    2.8930 H   0  0  0  0  0  0
    2.1116   -1.5498    2.9705 H   0  0  0  0  0  0
    2.6348    0.3855   -0.8247 H   0  0  0  0  0  0
    0.2309    0.8842   -0.8959 H   0  0  0  0  0  0
    4.4039   -0.0540   -0.6479 H   0  0  0  0  0  0
    6.5425   -0.8640    1.1903 H   0  0  0  0  0  0
    8.0477    0.0256   -0.5679 H   0  0  0  0  0  0
    6.6480    0.2798   -1.6376 H   0  0  0  0  0  0
    5.6601    1.8327    0.0241 H   0  0  0  0  0  0
    7.0598    1.5784    1.0938 H   0  0  0  0  0  0
   -2.7158   -1.3796   -0.4784 H   0  0  0  0  0  0
   -4.3152   -2.1532   -0.5870 H   0  0  0  0  0  0
   -3.1741   -2.1554   -2.7885 H   0  0  0  0  0  0
   -4.6456   -1.1548   -2.8326 H   0  0  0  0  0  0
   -3.0462   -0.3812   -2.7240 H   0  0  0  0  0  0
  -10.3645   -0.4081   -0.0621 H   0  0  0  0  0  0
  -10.1977    1.1658    0.5016 H   0  0  0  0  0  0
  1  2  1  0  0  0
  1  6  2  0  0  0
  2  3  2  0  0  0
  2 34  1  0  0  0
  3  4  1  0  0  0
  4  5  2  0  0  0
  4 11  1  0  0  0
  5  6  1  0  0  0
  5  8  1  0  0  0
  6  7  1  0  0  0
  7 35  1  0  0  0
  7 36  1  0  0  0
  8  9  2  0  0  0
  8 32  1  0  0  0
  9 10  1  0  0  0
  9 12  1  0  0  0
 10 11  2  0  0  0
 10 37  1  0  0  0
 11 38  1  0  0  0
 12 13  1  0  0  0
 12 39  1  0  0  0
 12 40  1  0  0  0
 13 14  1  0  0  0
 13 41  1  0  0  0
 14 15  1  0  0  0
 14 19  2  0  0  0
 15 16  2  0  0  0
 15 42  1  0  0  0
 16 17  1  0  0  0
 16 43  1  0  0  0
 17 18  2  0  0  0
 17 20  1  0  0  0
 18 19  1  0  0  0
 18 44  1  0  0  0
 19 45  1  0  0  0
 20 21  2  0  0  0
 20 22  1  0  0  0
 22 23  1  0  0  0
 22 46  1  0  0  0
 23 24  1  0  0  0
 23 27  1  0  0  0
 23 47  1  0  0  0
 24 25  2  0  0  0
 24 26  1  0  0  0
 27 28  1  0  0  0
 27 48  1  0  0  0
 27 49  1  0  0  0
 28 29  1  0  0  0
 28 50  1  0  0  0
 28 51  1  0  0  0
 29 30  2  0  0  0
 29 31  1  0  0  0
 32 33  1  0  0  0
 32 52  1  0  0  0
 32 53  1  0  0  0
 33 54  1  0  0  0
 33 55  1  0  0  0
 33 56  1  0  0  0
 34 57  1  0  0  0
 34 58  1  0  0  0
M  CHG  2  26  -1  31  -1
M  END
>  <ACTIVITY>
8.4437

>  <set_rl>
2

>  <Min_dist>
0.058824

>  <Avg_dist>
0.591329

>  <PC_uM>
0.0097

>  <TG_uM>
0.00135

>  <RL_uM>
0.0036

$$$$
9-16C
  Cerius2 12110214553D 1   1.00000                          
 
 38 40  0  0  0  0  0  0  0  0999 V2000
   -5.3196    1.2350    0.1215 N   0  0  0  0  0  0
   -5.7804    0.0078    0.3481 C   0  0  0  0  0  0
   -5.0185   -1.0664    0.2707 N   0  0  0  0  0  0
   -3.7199   -0.9564   -0.0471 C   0  0  0  0  0  0
   -3.1858    0.3309   -0.2968 C   0  0  0  0  0  0
   -4.0521    1.4487   -0.1989 C   0  0  0  0  0  0
   -3.5875    2.7254   -0.4316 N   0  0  0  0  0  0
   -1.8339    0.4673   -0.6297 C   0  0  0  0  0  0
   -1.0459   -0.6434   -0.7097 C   0  0  0  0  0  0
   -1.5688   -1.9097   -0.4647 C   0  0  0  0  0  0
   -2.8819   -2.0761   -0.1376 C   0  0  0  0  0  0
    0.4104   -0.4972   -1.0688 C   0  0  0  0  0  0
    1.1994   -0.3214    0.1530 N   0  0  0  0  0  0
    2.5856   -0.1644    0.0731 C   0  0  0  0  0  0
    3.2169   -0.1749   -1.1643 C   0  0  0  0  0  0
    4.5869   -0.0196   -1.2404 C   0  0  0  0  0  0
    5.3310    0.1464   -0.0853 C   0  0  0  0  0  0
    4.7050    0.1568    1.1485 C   0  0  0  0  0  0
    3.3341    0.0081    1.2301 C   0  0  0  0  0  0
    2.6528    0.0201    2.5743 C   0  0  0  0  0  0
    7.0532    0.3414   -0.1846 Cl  0  0  0  0  0  0
   -7.1141   -0.1484    0.6791 N   0  0  0  0  0  0
   -4.1910    3.4815   -0.3612 H   0  0  0  0  0  0
   -2.6570    2.8677   -0.6657 H   0  0  0  0  0  0
   -1.4172    1.4448   -0.8223 H   0  0  0  0  0  0
   -0.9245   -2.7737   -0.5343 H   0  0  0  0  0  0
   -3.2740   -3.0648    0.0499 H   0  0  0  0  0  0
    0.7469   -1.3917   -1.5930 H   0  0  0  0  0  0
    0.5402    0.3721   -1.7134 H   0  0  0  0  0  0
    0.7595   -0.3139    1.0175 H   0  0  0  0  0  0
    2.6368   -0.3048   -2.0660 H   0  0  0  0  0  0
    5.0783   -0.0281   -2.2021 H   0  0  0  0  0  0
    5.2881    0.2862    2.0483 H   0  0  0  0  0  0
    2.3740    1.0420    2.8312 H   0  0  0  0  0  0
    1.7582   -0.6013    2.5337 H   0  0  0  0  0  0
    3.3335   -0.3718    3.3301 H   0  0  0  0  0  0
   -7.6924    0.6278    0.7419 H   0  0  0  0  0  0
   -7.4712   -1.0342    0.8485 H   0  0  0  0  0  0
  1  2  1  0  0  0
  1  6  2  0  0  0
  2  3  2  0  0  0
  2 22  1  0  0  0
  3  4  1  0  0  0
  4  5  2  0  0  0
  4 11  1  0  0  0
  5  6  1  0  0  0
  5  8  1  0  0  0
  6  7  1  0  0  0
  7 23  1  0  0  0
  7 24  1  0  0  0
  8  9  2  0  0  0
  8 25  1  0  0  0
  9 10  1  0  0  0
  9 12  1  0  0  0
 10 11  2  0  0  0
 10 26  1  0  0  0
 11 27  1  0  0  0
 12 13  1  0  0  0
 12 28  1  0  0  0
 12 29  1  0  0  0
 13 14  1  0  0  0
 13 30  1  0  0  0
 14 15  1  0  0  0
 14 19  2  0  0  0
 15 16  2  0  0  0
 15 31  1  0  0  0
 16 17  1  0  0  0
 16 32  1  0  0  0
 17 18  2  0  0  0
 17 21  1  0  0  0
 18 19  1  0  0  0
 18 33  1  0  0  0
 19 20  1  0  0  0
 20 34  1  0  0  0
 20 35  1  0  0  0
 20 36  1  0  0  0
 22 37  1  0  0  0
 22 38  1  0  0  0
M  END
>  <ACTIVITY>
7.63827

>  <set_rl>
2

>  <Min_dist>
0.095238

>  <Avg_dist>
0.480104

>  <PC_uM>
0.33

>  <TG_uM>
0.033

>  <RL_uM>
0.023

$$$$
16-9A
  Cerius2 12110214553D 1   1.00000                          
 
 47 49  0  0  0  0  0  0  0  0999 V2000
   -6.0136   -0.4574   -1.0235 N   0  0  0  0  0  0
   -6.5604   -0.3478    0.1842 C   0  0  0  0  0  0
   -5.8896    0.0839    1.2349 N   0  0  0  0  0  0
   -4.6001    0.4359    1.1196 C   0  0  0  0  0  0
   -3.9767    0.3349   -0.1476 C   0  0  0  0  0  0
   -4.7470   -0.1348   -1.2402 C   0  0  0  0  0  0
   -4.1926   -0.2531   -2.4967 N   0  0  0  0  0  0
   -2.6316    0.6969   -0.2890 C   0  0  0  0  0  0
   -1.9375    1.1433    0.7992 C   0  0  0  0  0  0
   -2.5494    1.2428    2.0447 C   0  0  0  0  0  0
   -3.8580    0.8988    2.2144 C   0  0  0  0  0  0
   -0.4895    1.5329    0.6489 C   0  0  0  0  0  0
    0.3360    0.3249    0.5744 N   0  0  0  0  0  0
    1.7066    0.4290    0.3107 C   0  0  0  0  0  0
    2.2835    1.6773    0.1198 C   0  0  0  0  0  0
    3.6408    1.7814   -0.1414 C   0  0  0  0  0  0
    4.4246    0.6358   -0.2118 C   0  0  0  0  0  0
    3.8470   -0.6133   -0.0202 C   0  0  0  0  0  0
    2.4898   -0.7157    0.2459 C   0  0  0  0  0  0
    1.7031   -2.4155    0.5068 Br  0  0  0  0  0  0
    4.6132   -1.7349   -0.0893 O   0  0  0  0  0  0
    4.6375   -2.1346   -1.4610 C   0  0  0  0  0  0
    5.7581    0.7375   -0.4688 O   0  0  0  0  0  0
    6.4208    0.7768    0.7966 C   0  0  0  0  0  0
    4.2054    3.0043   -0.3293 O   0  0  0  0  0  0
    3.1580    3.9674   -0.1978 C   0  0  0  0  0  0
   -1.8519    0.5786   -1.8355 Cl  0  0  0  0  0  0
   -7.8880   -0.7007    0.3449 N   0  0  0  0  0  0
   -3.2866   -0.5845   -2.5978 H   0  0  0  0  0  0
   -4.7085   -0.0049   -3.2797 H   0  0  0  0  0  0
   -1.9793    1.5987    2.8901 H   0  0  0  0  0  0
   -4.3194    0.9813    3.1874 H   0  0  0  0  0  0
   -0.3630    2.1162   -0.2631 H   0  0  0  0  0  0
   -0.1829    2.1301    1.5077 H   0  0  0  0  0  0
   -0.0673   -0.5471    0.7079 H   0  0  0  0  0  0
    1.6746    2.5676    0.1744 H   0  0  0  0  0  0
    5.1894   -3.0696   -1.5573 H   0  0  0  0  0  0
    3.6168   -2.2770   -1.8161 H   0  0  0  0  0  0
    5.1247   -1.3622   -2.0560 H   0  0  0  0  0  0
    7.4943    0.8847    0.6413 H   0  0  0  0  0  0
    6.0504    1.6234    1.3746 H   0  0  0  0  0  0
    6.2233   -0.1478    1.3390 H   0  0  0  0  0  0
    3.5647    4.9685   -0.3413 H   0  0  0  0  0  0
    2.3916    3.7756   -0.9488 H   0  0  0  0  0  0
    2.7186    3.8929    0.7969 H   0  0  0  0  0  0
   -8.4002   -1.0203   -0.4143 H   0  0  0  0  0  0
   -8.3068   -0.6286    1.2169 H   0  0  0  0  0  0
  1  2  1  0  0  0
  1  6  2  0  0  0
  2  3  2  0  0  0
  2 28  1  0  0  0
  3  4  1  0  0  0
  4  5  2  0  0  0
  4 11  1  0  0  0
  5  6  1  0  0  0
  5  8  1  0  0  0
  6  7  1  0  0  0
  7 29  1  0  0  0
  7 30  1  0  0  0
  8  9  2  0  0  0
  8 27  1  0  0  0
  9 10  1  0  0  0
  9 12  1  0  0  0
 10 11  2  0  0  0
 10 31  1  0  0  0
 11 32  1  0  0  0
 12 13  1  0  0  0
 12 33  1  0  0  0
 12 34  1  0  0  0
 13 14  1  0  0  0
 13 35  1  0  0  0
 14 15  1  0  0  0
 14 19  2  0  0  0
 15 16  2  0  0  0
 15 36  1  0  0  0
 16 17  1  0  0  0
 16 25  1  0  0  0
 17 18  2  0  0  0
 17 23  1  0  0  0
 18 19  1  0  0  0
 18 21  1  0  0  0
 19 20  1  0  0  0
 21 22  1  0  0  0
 22 37  1  0  0  0
 22 38  1  0  0  0
 22 39  1  0  0  0
 23 24  1  0  0  0
 24 40  1  0  0  0
 24 41  1  0  0  0
 24 42  1  0  0  0
 25 26  1  0  0  0
 26 43  1  0  0  0
 26 44  1  0  0  0
 26 45  1  0  0  0
 28 46  1  0  0  0
 28 47  1  0  0  0
M  END
>  <ACTIVITY>
8.00877

>  <set_rl>
2

>  <Min_dist>
0.055556

>  <Avg_dist>
0.509885

>  <PC_uM>
0.028

>  <TG_uM>
0.0078

>  <RL_uM>
0.0098

$$$$
1-351521
  Cerius2 12110214553D 1   1.00000                          
 
 44 46  0  0  0  0  0  0  0  0999 V2000
   -4.2741   -1.1620   -0.8381 N   0  0  0  0  0  0
   -4.7661    0.0537   -1.0611 C   0  0  0  0  0  0
   -4.1636    1.1537   -0.6521 N   0  0  0  0  0  0
   -3.0046    1.0835    0.0198 C   0  0  0  0  0  0
   -2.4435   -0.1901    0.2800 C   0  0  0  0  0  0
   -3.1357   -1.3371   -0.1837 C   0  0  0  0  0  0
   -2.6370   -2.6023    0.0410 N   0  0  0  0  0  0
   -1.2356   -0.2852    0.9791 C   0  0  0  0  0  0
   -0.6123    0.8522    1.4021 C   0  0  0  0  0  0
   -1.1621    2.1052    1.1474 C   0  0  0  0  0  0
   -2.3376    2.2316    0.4684 C   0  0  0  0  0  0
    0.6887    0.7506    2.1558 C   0  0  0  0  0  0
    1.8046    0.4392    1.1919 C   0  0  0  0  0  0
    2.4108    1.4603    0.4855 C   0  0  0  0  0  0
    3.4383    1.1761   -0.4029 C   0  0  0  0  0  0
    3.8566   -0.1335   -0.5812 C   0  0  0  0  0  0
    3.2470   -1.1562    0.1291 C   0  0  0  0  0  0
    2.2235   -0.8663    1.0202 C   0  0  0  0  0  0
    3.6545   -2.4411   -0.0438 O   0  0  0  0  0  0
    4.7103   -2.4135   -1.0064 C   0  0  0  0  0  0
    4.0336    2.1807   -1.0981 O   0  0  0  0  0  0
    5.0380    1.5779   -1.9165 C   0  0  0  0  0  0
   -0.6274   -1.6344    1.2634 C   0  0  0  0  0  0
   -5.9591    0.1692   -1.7511 N   0  0  0  0  0  0
   -1.6947   -2.7844   -0.0998 H   0  0  0  0  0  0
   -3.2285   -3.3106    0.3400 H   0  0  0  0  0  0
   -0.6496    2.9909    1.4927 H   0  0  0  0  0  0
   -2.7525    3.2103    0.2779 H   0  0  0  0  0  0
    0.8939    1.6972    2.6557 H   0  0  0  0  0  0
    0.6174   -0.0444    2.8981 H   0  0  0  0  0  0
    2.0846    2.4804    0.6247 H   0  0  0  0  0  0
    4.6558   -0.3568   -1.2724 H   0  0  0  0  0  0
    1.7483   -1.6626    1.5738 H   0  0  0  0  0  0
    5.0714   -3.4274   -1.1788 H   0  0  0  0  0  0
    4.3380   -1.9965   -1.9422 H   0  0  0  0  0  0
    5.5267   -1.7956   -0.6327 H   0  0  0  0  0  0
    5.5455    2.3491   -2.4960 H   0  0  0  0  0  0
    5.7615    1.0634   -1.2841 H   0  0  0  0  0  0
    4.5731    0.8615   -2.5937 H   0  0  0  0  0  0
   -0.2650   -2.0727    0.3336 H   0  0  0  0  0  0
    0.2039   -1.5189    1.9589 H   0  0  0  0  0  0
   -1.3812   -2.2873    1.7033 H   0  0  0  0  0  0
   -6.4190   -0.6265   -2.0613 H   0  0  0  0  0  0
   -6.3360    1.0460   -1.9247 H   0  0  0  0  0  0
  1  2  1  0  0  0
  1  6  2  0  0  0
  2  3  2  0  0  0
  2 24  1  0  0  0
  3  4  1  0  0  0
  4  5  2  0  0  0
  4 11  1  0  0  0
  5  6  1  0  0  0
  5  8  1  0  0  0
  6  7  1  0  0  0
  7 25  1  0  0  0
  7 26  1  0  0  0
  8  9  2  0  0  0
  8 23  1  0  0  0
  9 10  1  0  0  0
  9 12  1  0  0  0
 10 11  2  0  0  0
 10 27  1  0  0  0
 11 28  1  0  0  0
 12 13  1  0  0  0
 12 29  1  0  0  0
 12 30  1  0  0  0
 13 14  1  0  0  0
 13 18  2  0  0  0
 14 15  2  0  0  0
 14 31  1  0  0  0
 15 16  1  0  0  0
 15 21  1  0  0  0
 16 17  2  0  0  0
 16 32  1  0  0  0
 17 18  1  0  0  0
 17 19  1  0  0  0
 18 33  1  0  0  0
 19 20  1  0  0  0
 20 34  1  0  0  0
 20 35  1  0  0  0
 20 36  1  0  0  0
 21 22  1  0  0  0
 22 37  1  0  0  0
 22 38  1  0  0  0
 22 39  1  0  0  0
 23 40  1  0  0  0
 23 41  1  0  0  0
 23 42  1  0  0  0
 24 43  1  0  0  0
 24 44  1  0  0  0
M  END
>  <ACTIVITY>
8.82391

>  <set_rl>
2

>  <Min_dist>
0.329545

>  <Avg_dist>
0.551717

>  <PC_uM>
0.031

>  <TG_uM>
N/A

>  <RL_uM>
0.0015

$$$$
13-11
  Cerius2 12110214553D 1   1.00000                          
 
 43 45  0  0  0  0  0  0  0  0999 V2000
   -5.3831    0.7473    0.2897 N   0  0  0  0  0  0
   -5.7259   -0.5259    0.1118 C   0  0  0  0  0  0
   -4.8387   -1.4891   -0.0420 N   0  0  0  0  0  0
   -3.5248   -1.2126   -0.0242 C   0  0  0  0  0  0
   -3.1143    0.1296    0.1624 C   0  0  0  0  0  0
   -4.1130    1.1222    0.3224 C   0  0  0  0  0  0
   -3.7712    2.4454    0.5075 N   0  0  0  0  0  0
   -1.7500    0.4417    0.1855 C   0  0  0  0  0  0
   -0.8217   -0.5686    0.0252 C   0  0  0  0  0  0
   -1.2347   -1.8904   -0.1585 C   0  0  0  0  0  0
   -2.5581   -2.2141   -0.1845 C   0  0  0  0  0  0
    0.5446   -0.2651    0.0466 N   0  0  0  0  0  0
    1.5345   -1.3317   -0.1228 C   0  0  0  0  0  0
    2.9200   -0.7391   -0.1017 C   0  0  0  0  0  0
    3.7033   -0.8542    1.0304 C   0  0  0  0  0  0
    4.9784   -0.3094    1.0497 C   0  0  0  0  0  0
    5.4673    0.3512   -0.0678 C   0  0  0  0  0  0
    4.6842    0.4663   -1.1996 C   0  0  0  0  0  0
    3.4107   -0.0833   -1.2207 C   0  0  0  0  0  0
    2.6399    0.0295   -2.3352 O   0  0  0  0  0  0
    3.4082    0.7552   -3.2971 C   0  0  0  0  0  0
    5.7493   -0.4223    2.1642 O   0  0  0  0  0  0
    6.9881    0.2297    1.8773 C   0  0  0  0  0  0
   -1.2298    2.0822    0.4128 Cl  0  0  0  0  0  0
   -7.0705   -0.8531    0.0877 N   0  0  0  0  0  0
   -3.0414    2.6792    1.1021 H   0  0  0  0  0  0
   -4.2606    3.1423    0.0430 H   0  0  0  0  0  0
   -0.4944   -2.6668   -0.2825 H   0  0  0  0  0  0
   -2.8613   -3.2408   -0.3275 H   0  0  0  0  0  0
    0.8360    0.6513    0.1735 H   0  0  0  0  0  0
    1.4350   -2.0521    0.6891 H   0  0  0  0  0  0
    1.3685   -1.8335   -1.0761 H   0  0  0  0  0  0
    3.3225   -1.3682    1.9006 H   0  0  0  0  0  0
    6.4602    0.7759   -0.0527 H   0  0  0  0  0  0
    5.0648    0.9809   -2.0695 H   0  0  0  0  0  0
    2.8282    0.8713   -4.2126 H   0  0  0  0  0  0
    3.6562    1.7384   -2.8970 H   0  0  0  0  0  0
    4.3262    0.2096   -3.5153 H   0  0  0  0  0  0
    7.6427    0.1647    2.7465 H   0  0  0  0  0  0
    7.4654   -0.2556    1.0260 H   0  0  0  0  0  0
    6.8012    1.2771    1.6407 H   0  0  0  0  0  0
   -7.7403   -0.1605    0.1992 H   0  0  0  0  0  0
   -7.3430   -1.7752   -0.0407 H   0  0  0  0  0  0
  1  2  1  0  0  0
  1  6  2  0  0  0
  2  3  2  0  0  0
  2 25  1  0  0  0
  3  4  1  0  0  0
  4  5  2  0  0  0
  4 11  1  0  0  0
  5  6  1  0  0  0
  5  8  1  0  0  0
  6  7  1  0  0  0
  7 26  1  0  0  0
  7 27  1  0  0  0
  8  9  2  0  0  0
  8 24  1  0  0  0
  9 10  1  0  0  0
  9 12  1  0  0  0
 10 11  2  0  0  0
 10 28  1  0  0  0
 11 29  1  0  0  0
 12 13  1  0  0  0
 12 30  1  0  0  0
 13 14  1  0  0  0
 13 31  1  0  0  0
 13 32  1  0  0  0
 14 15  1  0  0  0
 14 19  2  0  0  0
 15 16  2  0  0  0
 15 33  1  0  0  0
 16 17  1  0  0  0
 16 22  1  0  0  0
 17 18  2  0  0  0
 17 34  1  0  0  0
 18 19  1  0  0  0
 18 35  1  0  0  0
 19 20  1  0  0  0
 20 21  1  0  0  0
 21 36  1  0  0  0
 21 37  1  0  0  0
 21 38  1  0  0  0
 22 23  1  0  0  0
 23 39  1  0  0  0
 23 40  1  0  0  0
 23 41  1  0  0  0
 25 42  1  0  0  0
 25 43  1  0  0  0
M  END
>  <ACTIVITY>
7.55284

>  <set_rl>
2

>  <Min_dist>
0.085366

>  <Avg_dist>
0.495281

>  <PC_uM>
0.053

>  <TG_uM>
0.017

>  <RL_uM>
0.028

$$$$
10-1A
  Cerius2 12110214553D 1   1.00000                          
 
 36 38  0  0  0  0  0  0  0  0999 V2000
   -5.2105    0.2262    0.0007 N   0  0  0  0  0  0
   -5.0959   -1.0981    0.0004 C   0  0  0  0  0  0
   -3.9381   -1.7291    0.0002 N   0  0  0  0  0  0
   -2.7828   -1.0525   -0.0003 C   0  0  0  0  0  0
   -2.8269    0.3652   -0.0005 C   0  0  0  0  0  0
   -4.1400    1.0098    0.0002 C   0  0  0  0  0  0
   -4.2607    2.3815   -0.0004 N   0  0  0  0  0  0
   -1.6423    1.0987   -0.0006 C   0  0  0  0  0  0
   -0.4260    0.4247   -0.0004 C   0  0  0  0  0  0
   -0.3920   -0.9811   -0.0006 C   0  0  0  0  0  0
   -1.5407   -1.7069   -0.0001 C   0  0  0  0  0  0
    0.8353    1.1884   -0.0004 C   0  0  0  0  0  0
    0.8100    2.4032   -0.0006 O   0  0  0  0  0  0
    2.0161    0.5391   -0.0002 O   0  0  0  0  0  0
    3.2582    1.2912   -0.0002 C   0  0  0  0  0  0
    4.4238    0.3360    0.0001 C   0  0  0  0  0  0
    4.9585   -0.1022   -1.1970 C   0  0  0  0  0  0
    6.0277   -0.9784   -1.1968 C   0  0  0  0  0  0
    6.5625   -1.4160    0.0005 C   0  0  0  0  0  0
    6.0283   -0.9770    1.1975 C   0  0  0  0  0  0
    4.9619   -0.0974    1.1973 C   0  0  0  0  0  0
   -6.2522   -1.8541    0.0009 N   0  0  0  0  0  0
   -5.1400    2.7910    0.0001 H   0  0  0  0  0  0
   -3.4664    2.9383   -0.0014 H   0  0  0  0  0  0
   -1.6684    2.1784   -0.0011 H   0  0  0  0  0  0
    0.5601   -1.4909   -0.0011 H   0  0  0  0  0  0
   -1.4983   -2.7861    0.0001 H   0  0  0  0  0  0
    3.3029    1.9188   -0.8903 H   0  0  0  0  0  0
    3.3028    1.9191    0.8897 H   0  0  0  0  0  0
    4.5407    0.2396   -2.1324 H   0  0  0  0  0  0
    6.4450   -1.3214   -2.1320 H   0  0  0  0  0  0
    7.3973   -2.1011    0.0007 H   0  0  0  0  0  0
    6.4459   -1.3191    2.1329 H   0  0  0  0  0  0
    4.5446    0.2455    2.1325 H   0  0  0  0  0  0
   -7.1178   -1.4164    0.0014 H   0  0  0  0  0  0
   -6.1985   -2.8226    0.0008 H   0  0  0  0  0  0
  1  2  1  0  0  0
  1  6  2  0  0  0
  2  3  2  0  0  0
  2 22  1  0  0  0
  3  4  1  0  0  0
  4  5  2  0  0  0
  4 11  1  0  0  0
  5  6  1  0  0  0
  5  8  1  0  0  0
  6  7  1  0  0  0
  7 23  1  0  0  0
  7 24  1  0  0  0
  8  9  2  0  0  0
  8 25  1  0  0  0
  9 10  1  0  0  0
  9 12  1  0  0  0
 10 11  2  0  0  0
 10 26  1  0  0  0
 11 27  1  0  0  0
 12 13  2  0  0  0
 12 14  1  0  0  0
 14 15  1  0  0  0
 15 16  1  0  0  0
 15 28  1  0  0  0
 15 29  1  0  0  0
 16 17  1  0  0  0
 16 21  2  0  0  0
 17 18  2  0  0  0
 17 30  1  0  0  0
 18 19  1  0  0  0
 18 31  1  0  0  0
 19 20  2  0  0  0
 19 32  1  0  0  0
 20 21  1  0  0  0
 20 33  1  0  0  0
 21 34  1  0  0  0
 22 35  1  0  0  0
 22 36  1  0  0  0
M  END
>  <ACTIVITY>
6.37675

>  <set_rl>
2

>  <Min_dist>
0.125

>  <Avg_dist>
0.598136

>  <PC_uM>
2.5

>  <TG_uM>
0.36

>  <RL_uM>
0.42

$$$$
6-28
  Cerius2 12110214553D 1   1.00000                          
 
 26 27  0  0  0  0  0  0  0  0999 V2000
   -2.5097    0.6042    0.0000 N   0  0  0  0  0  0
   -2.5001   -0.7261   -0.0002 C   0  0  0  0  0  0
   -1.3857   -1.4319   -0.0003 N   0  0  0  0  0  0
   -0.1930   -0.8179   -0.0001 C   0  0  0  0  0  0
   -0.1548    0.5974    0.0001 C   0  0  0  0  0  0
   -1.3843    1.3030    0.0001 C   0  0  0  0  0  0
   -1.4082    2.6812   -0.0001 N   0  0  0  0  0  0
    1.0788    1.2571    0.0002 C   0  0  0  0  0  0
    2.2314    0.5274    0.0002 C   0  0  0  0  0  0
    2.1962   -0.8640    0.0000 C   0  0  0  0  0  0
    1.0103   -1.5366    0.0003 C   0  0  0  0  0  0
    3.4887   -1.6389   -0.0001 C   0  0  0  0  0  0
    3.5607    1.2374   -0.0001 C   0  0  0  0  0  0
   -3.7094   -1.3973    0.0001 N   0  0  0  0  0  0
   -2.2566    3.1516   -0.0001 H   0  0  0  0  0  0
   -0.5767    3.1807   -0.0003 H   0  0  0  0  0  0
    1.1184    2.3364    0.0000 H   0  0  0  0  0  0
    0.9981   -2.6165    0.0001 H   0  0  0  0  0  0
    3.8003   -1.8259    1.0276 H   0  0  0  0  0  0
    3.3427   -2.5890   -0.5140 H   0  0  0  0  0  0
    4.2580   -1.0624   -0.5138 H   0  0  0  0  0  0
    3.8813    1.4087    1.0274 H   0  0  0  0  0  0
    4.3004    0.6234   -0.5140 H   0  0  0  0  0  0
    3.4618    2.1935   -0.5141 H   0  0  0  0  0  0
   -4.5411   -0.8982    0.0005 H   0  0  0  0  0  0
   -3.7258   -2.3671    0.0000 H   0  0  0  0  0  0
  1  2  1  0  0  0
  1  6  2  0  0  0
  2  3  2  0  0  0
  2 14  1  0  0  0
  3  4  1  0  0  0
  4  5  2  0  0  0
  4 11  1  0  0  0
  5  6  1  0  0  0
  5  8  1  0  0  0
  6  7  1  0  0  0
  7 15  1  0  0  0
  7 16  1  0  0  0
  8  9  2  0  0  0
  8 17  1  0  0  0
  9 10  1  0  0  0
  9 13  1  0  0  0
 10 11  2  0  0  0
 10 12  1  0  0  0
 11 18  1  0  0  0
 12 19  1  0  0  0
 12 20  1  0  0  0
 12 21  1  0  0  0
 13 22  1  0  0  0
 13 23  1  0  0  0
 13 24  1  0  0  0
 14 25  1  0  0  0
 14 26  1  0  0  0
M  END
>  <ACTIVITY>
5.10237

>  <set_rl>
2

>  <Min_dist>
0.097561

>  <Avg_dist>
0.549731

>  <PC_uM>
5.3

>  <TG_uM>
7.7

>  <RL_uM>
7.9

$$$$
6-3
  Cerius2 12110214553D 1   1.00000                          
 
 20 21  0  0  0  0  0  0  0  0999 V2000
   -1.8103    1.0188    0.0007 N   0  0  0  0  0  0
   -2.2754   -0.2275    0.0005 C   0  0  0  0  0  0
   -1.4853   -1.2840   -0.0001 N   0  0  0  0  0  0
   -0.1520   -1.1348   -0.0005 C   0  0  0  0  0  0
    0.3875    0.1744   -0.0003 C   0  0  0  0  0  0
   -0.5093    1.2707    0.0003 C   0  0  0  0  0  0
   -0.0407    2.5670    0.0006 N   0  0  0  0  0  0
    1.7774    0.3515   -0.0003 C   0  0  0  0  0  0
    2.5949   -0.7442   -0.0004 C   0  0  0  0  0  0
    2.0645   -2.0299   -0.0011 C   0  0  0  0  0  0
    0.7161   -2.2345   -0.0007 C   0  0  0  0  0  0
    2.3054    1.5951   -0.0006 F   0  0  0  0  0  0
   -3.6444   -0.4238    0.0014 N   0  0  0  0  0  0
    0.9046    2.7410    0.1316 H   0  0  0  0  0  0
   -0.6561    3.3053   -0.1303 H   0  0  0  0  0  0
    3.6665   -0.6097   -0.0004 H   0  0  0  0  0  0
    2.7311   -2.8797   -0.0016 H   0  0  0  0  0  0
    0.3195   -3.2391   -0.0008 H   0  0  0  0  0  0
   -4.2437    0.3389    0.0022 H   0  0  0  0  0  0
   -4.0052   -1.3242    0.0013 H   0  0  0  0  0  0
  1  2  1  0  0  0
  1  6  2  0  0  0
  2  3  2  0  0  0
  2 13  1  0  0  0
  3  4  1  0  0  0
  4  5  2  0  0  0
  4 11  1  0  0  0
  5  6  1  0  0  0
  5  8  1  0  0  0
  6  7  1  0  0  0
  7 14  1  0  0  0
  7 15  1  0  0  0
  8  9  2  0  0  0
  8 12  1  0  0  0
  9 10  1  0  0  0
  9 16  1  0  0  0
 10 11  2  0  0  0
 10 17  1  0  0  0
 11 18  1  0  0  0
 13 19  1  0  0  0
 13 20  1  0  0  0
M  END
>  <ACTIVITY>
5.30103

>  <set_rl>
2

>  <Min_dist>
0.027027

>  <Avg_dist>
0.6054

>  <PC_uM>
0.41

>  <TG_uM>
N/A

>  <RL_uM>
5

$$$$
6-2
  Cerius2 12110214553D 1   1.00000                          
 
 23 24  0  0  0  0  0  0  0  0999 V2000
   -1.9668   -1.4342    0.0023 N   0  0  0  0  0  0
   -2.8951   -0.4813    0.0020 C   0  0  0  0  0  0
   -2.5986    0.8041    0.0007 N   0  0  0  0  0  0
   -1.3187    1.2058   -0.0005 C   0  0  0  0  0  0
   -0.2967    0.2260   -0.0002 C   0  0  0  0  0  0
   -0.6751   -1.1402    0.0012 C   0  0  0  0  0  0
    0.2767   -2.1372    0.0020 N   0  0  0  0  0  0
    1.0444    0.6240   -0.0013 C   0  0  0  0  0  0
    1.3513    1.9532   -0.0027 C   0  0  0  0  0  0
    0.3482    2.9181   -0.0030 C   0  0  0  0  0  0
   -0.9681    2.5628   -0.0024 C   0  0  0  0  0  0
    2.1424   -0.4083   -0.0005 C   0  0  0  0  0  0
    3.3786    0.2256   -0.1654 F   0  0  0  0  0  0
    2.1314   -1.0999    1.2155 F   0  0  0  0  0  0
    1.9364   -1.3090   -1.0511 F   0  0  0  0  0  0
   -4.2270   -0.8540    0.0026 N   0  0  0  0  0  0
    0.9234   -2.1897    0.7231 H   0  0  0  0  0  0
    0.2997   -2.7862   -0.7184 H   0  0  0  0  0  0
    2.3865    2.2610   -0.0033 H   0  0  0  0  0  0
    0.6166    3.9642   -0.0041 H   0  0  0  0  0  0
   -1.7359    3.3223   -0.0026 H   0  0  0  0  0  0
   -4.4677   -1.7937    0.0032 H   0  0  0  0  0  0
   -4.9204   -0.1757    0.0024 H   0  0  0  0  0  0
  1  2  1  0  0  0
  1  6  2  0  0  0
  2  3  2  0  0  0
  2 16  1  0  0  0
  3  4  1  0  0  0
  4  5  2  0  0  0
  4 11  1  0  0  0
  5  6  1  0  0  0
  5  8  1  0  0  0
  6  7  1  0  0  0
  7 17  1  0  0  0
  7 18  1  0  0  0
  8  9  2  0  0  0
  8 12  1  0  0  0
  9 10  1  0  0  0
  9 19  1  0  0  0
 10 11  2  0  0  0
 10 20  1  0  0  0
 11 21  1  0  0  0
 12 13  1  0  0  0
 12 14  1  0  0  0
 12 15  1  0  0  0
 16 22  1  0  0  0
 16 23  1  0  0  0
M  END
>  <ACTIVITY>
3.66756

>  <set_rl>
2

>  <Min_dist>
0.048781

>  <Avg_dist>
0.583766

>  <PC_uM>
82

>  <TG_uM>
N/A

>  <RL_uM>
215

$$$$
6-13
  Cerius2 12110214553D 1   1.00000                          
 
 24 25  0  0  0  0  0  0  0  0999 V2000
   -2.0065    1.3458    0.0029 N   0  0  0  0  0  0
   -2.7940    0.2741    0.0017 C   0  0  0  0  0  0
   -2.3220   -0.9580    0.0000 N   0  0  0  0  0  0
   -0.9980   -1.1779   -0.0010 C   0  0  0  0  0  0
   -0.1230   -0.0647   -0.0003 C   0  0  0  0  0  0
   -0.6854    1.2323    0.0020 C   0  0  0  0  0  0
    0.1200    2.3515    0.0023 N   0  0  0  0  0  0
    1.2678   -0.2739   -0.0009 C   0  0  0  0  0  0
    1.7564   -1.5689   -0.0021 C   0  0  0  0  0  0
    0.8884   -2.6524   -0.0028 C   0  0  0  0  0  0
   -0.4647   -2.4728   -0.0023 C   0  0  0  0  0  0
    2.3753    1.0966   -0.0006 S   0  0  0  0  0  0
    3.9627    0.2187   -0.0016 C   0  0  0  0  0  0
   -4.1647    0.4589    0.0027 N   0  0  0  0  0  0
    0.8924    2.3931    0.5876 H   0  0  0  0  0  0
   -0.0859    3.0974   -0.5828 H   0  0  0  0  0  0
    2.8231   -1.7381   -0.0029 H   0  0  0  0  0  0
    1.2908   -3.6547   -0.0042 H   0  0  0  0  0  0
   -1.1235   -3.3286   -0.0025 H   0  0  0  0  0  0
    4.7780    0.9423   -0.0015 H   0  0  0  0  0  0
    4.0324   -0.4072    0.8881 H   0  0  0  0  0  0
    4.0317   -0.4063   -0.8919 H   0  0  0  0  0  0
   -4.5332    1.3562    0.0042 H   0  0  0  0  0  0
   -4.7576   -0.3089    0.0019 H   0  0  0  0  0  0
  1  2  1  0  0  0
  1  6  2  0  0  0
  2  3  2  0  0  0
  2 14  1  0  0  0
  3  4  1  0  0  0
  4  5  2  0  0  0
  4 11  1  0  0  0
  5  6  1  0  0  0
  5  8  1  0  0  0
  6  7  1  0  0  0
  7 15  1  0  0  0
  7 16  1  0  0  0
  8  9  2  0  0  0
  8 12  1  0  0  0
  9 10  1  0  0  0
  9 17  1  0  0  0
 10 11  2  0  0  0
 10 18  1  0  0  0
 11 19  1  0  0  0
 12 13  1  0  0  0
 13 20  1  0  0  0
 13 21  1  0  0  0
 13 22  1  0  0  0
 14 23  1  0  0  0
 14 24  1  0  0  0
M  END
>  <ACTIVITY>
6.26761

>  <set_rl>
2

>  <Min_dist>
0.166667

>  <Avg_dist>
0.590191

>  <PC_uM>
1.1

>  <TG_uM>
N/A

>  <RL_uM>
0.54

$$$$
6-20
  Cerius2 12110214553D 1   1.00000                          
 
 24 25  0  0  0  0  0  0  0  0999 V2000
   -2.5426    0.7403   -0.0002 N   0  0  0  0  0  0
   -2.6689   -0.5841   -0.0004 C   0  0  0  0  0  0
   -1.6329   -1.3998   -0.0002 N   0  0  0  0  0  0
   -0.3826   -0.9110    0.0002 C   0  0  0  0  0  0
   -0.2007    0.4929    0.0004 C   0  0  0  0  0  0
   -1.3518    1.3202    0.0002 C   0  0  0  0  0  0
   -1.2347    2.6943    0.0000 N   0  0  0  0  0  0
    1.0933    1.0251    0.0004 C   0  0  0  0  0  0
    2.1754    0.1716    0.0002 C   0  0  0  0  0  0
    1.9898   -1.2123   -0.0001 C   0  0  0  0  0  0
    0.7387   -1.7517    0.0009 C   0  0  0  0  0  0
    3.4356    0.6820   -0.0003 O   0  0  0  0  0  0
    4.3320   -0.4309   -0.0004 C   0  0  0  0  0  0
   -3.9411   -1.1285   -0.0004 N   0  0  0  0  0  0
   -2.0305    3.2488   -0.0002 H   0  0  0  0  0  0
   -0.3565    3.1062    0.0000 H   0  0  0  0  0  0
    1.2427    2.0947    0.0002 H   0  0  0  0  0  0
    2.8506   -1.8647   -0.0002 H   0  0  0  0  0  0
    0.6113   -2.8242    0.0010 H   0  0  0  0  0  0
    5.3602   -0.0692   -0.0008 H   0  0  0  0  0  0
    4.1600   -1.0360    0.8897 H   0  0  0  0  0  0
    4.1595   -1.0363   -0.8903 H   0  0  0  0  0  0
   -4.7175   -0.5470   -0.0002 H   0  0  0  0  0  0
   -4.0565   -2.0916   -0.0005 H   0  0  0  0  0  0
  1  2  1  0  0  0
  1  6  2  0  0  0
  2  3  2  0  0  0
  2 14  1  0  0  0
  3  4  1  0  0  0
  4  5  2  0  0  0
  4 11  1  0  0  0
  5  6  1  0  0  0
  5  8  1  0  0  0
  6  7  1  0  0  0
  7 15  1  0  0  0
  7 16  1  0  0  0
  8  9  2  0  0  0
  8 17  1  0  0  0
  9 10  1  0  0  0
  9 12  1  0  0  0
 10 11  2  0  0  0
 10 18  1  0  0  0
 11 19  1  0  0  0
 12 13  1  0  0  0
 13 20  1  0  0  0
 13 21  1  0  0  0
 13 22  1  0  0  0
 14 23  1  0  0  0
 14 24  1  0  0  0
M  END
>  <ACTIVITY>
4.33724

>  <set_rl>
2

>  <Min_dist>
0.1875

>  <Avg_dist>
0.539593

>  <PC_uM>
58

>  <TG_uM>
22

>  <RL_uM>
46

$$$$
18-5
  Cerius2 12110214553D 1   1.00000                          
 
 47 51  0  0  0  0  0  0  0  0999 V2000
    5.6383    0.0627   -0.3599 C   0  0  0  0  0  0
    4.6722    0.5498   -1.1139 N   0  0  0  0  0  0
    3.3876    0.2850   -0.8281 C   0  0  0  0  0  0
    3.0933   -0.5250    0.2953 C   0  0  0  0  0  0
    4.1729   -1.0202    1.0686 C   0  0  0  0  0  0
    5.4058   -0.7017    0.7035 N   0  0  0  0  0  0
    3.9455   -1.8134    2.1737 N   0  0  0  0  0  0
    1.7618   -0.8141    0.6130 C   0  0  0  0  0  0
    0.7516   -0.3035   -0.1763 C   0  0  0  0  0  0
    1.0493    0.4951   -1.2843 C   0  0  0  0  0  0
    2.3390    0.7884   -1.6100 C   0  0  0  0  0  0
   -0.5820   -0.5880    0.1348 N   0  0  0  0  0  0
   -1.6596   -0.0493   -0.6988 C   0  0  0  0  0  0
   -2.8262   -0.9943   -0.6712 C   0  0  0  0  0  0
   -3.3081   -1.5008   -1.8649 C   0  0  0  0  0  0
   -4.3848   -2.3674   -1.8732 C   0  0  0  0  0  0
   -4.9909   -2.7347   -0.6844 C   0  0  0  0  0  0
   -4.5196   -2.2411    0.5118 C   0  0  0  0  0  0
   -3.4250   -1.3644    0.5295 C   0  0  0  0  0  0
   -2.9328   -0.8706    1.8173 C   0  0  0  0  0  0
   -2.5252    0.3504    2.0803 C   0  0  0  0  0  0
   -2.4782    1.4718    1.1393 C   0  0  0  0  0  0
   -2.8616    2.7461    1.5824 C   0  0  0  0  0  0
   -2.8208    3.8189    0.7198 C   0  0  0  0  0  0
   -2.4004    3.6425   -0.5869 C   0  0  0  0  0  0
   -2.0227    2.3896   -1.0318 C   0  0  0  0  0  0
   -2.0602    1.3009   -0.1783 C   0  0  0  0  0  0
    6.9498    0.3546   -0.6925 N   0  0  0  0  0  0
    4.6935   -2.1458    2.6943 H   0  0  0  0  0  0
    3.0377   -2.0388    2.4304 H   0  0  0  0  0  0
    1.5269   -1.4312    1.4677 H   0  0  0  0  0  0
    0.2453    0.8851   -1.8907 H   0  0  0  0  0  0
    2.5530    1.4072   -2.4690 H   0  0  0  0  0  0
   -0.7934   -1.1420    0.9025 H   0  0  0  0  0  0
   -1.3039    0.0525   -1.7241 H   0  0  0  0  0  0
   -2.8404   -1.2170   -2.7961 H   0  0  0  0  0  0
   -4.7542   -2.7586   -2.8096 H   0  0  0  0  0  0
   -5.8341   -3.4095   -0.6947 H   0  0  0  0  0  0
   -4.9946   -2.5289    1.4381 H   0  0  0  0  0  0
   -2.9023   -1.5799    2.6312 H   0  0  0  0  0  0
   -2.1926    0.5464    3.0889 H   0  0  0  0  0  0
   -3.1898    2.8862    2.6017 H   0  0  0  0  0  0
   -3.1176    4.7989    1.0634 H   0  0  0  0  0  0
   -2.3677    4.4858   -1.2608 H   0  0  0  0  0  0
   -1.6958    2.2587   -2.0527 H   0  0  0  0  0  0
    7.6761    0.0068   -0.1518 H   0  0  0  0  0  0
    7.1425    0.9070   -1.4662 H   0  0  0  0  0  0
  1  2  1  0  0  0
  1  6  2  0  0  0
  1 28  1  0  0  0
  2  3  2  0  0  0
  3  4  1  0  0  0
  3 11  1  0  0  0
  4  5  2  0  0  0
  4  8  1  0  0  0
  5  6  1  0  0  0
  5  7  1  0  0  0
  7 29  1  0  0  0
  7 30  1  0  0  0
  8  9  2  0  0  0
  8 31  1  0  0  0
  9 10  1  0  0  0
  9 12  1  0  0  0
 10 11  2  0  0  0
 10 32  1  0  0  0
 11 33  1  0  0  0
 12 13  1  0  0  0
 12 34  1  0  0  0
 13 14  1  0  0  0
 13 27  1  0  0  0
 13 35  1  0  0  0
 14 15  1  0  0  0
 14 19  2  0  0  0
 15 16  2  0  0  0
 15 36  1  0  0  0
 16 17  1  0  0  0
 16 37  1  0  0  0
 17 18  2  0  0  0
 17 38  1  0  0  0
 18 19  1  0  0  0
 18 39  1  0  0  0
 19 20  1  0  0  0
 20 21  2  0  0  0
 20 40  1  0  0  0
 21 22  1  0  0  0
 21 41  1  0  0  0
 22 23  1  0  0  0
 22 27  2  0  0  0
 23 24  2  0  0  0
 23 42  1  0  0  0
 24 25  1  0  0  0
 24 43  1  0  0  0
 25 26  2  0  0  0
 25 44  1  0  0  0
 26 27  1  0  0  0
 26 45  1  0  0  0
 28 46  1  0  0  0
 28 47  1  0  0  0
M  END
>  <ACTIVITY>
5.82391

>  <set_rl>
2

>  <Min_dist>
0.382353

>  <Avg_dist>
0.60497

>  <PC_uM>
13

>  <TG_uM>
5.8

>  <RL_uM>
1.5

$$$$
18-6
  Cerius2 12110214553D 1   1.00000                          
 
 49 53  0  0  0  0  0  0  0  0999 V2000
    5.6105   -0.1762   -0.4520 C   0  0  0  0  0  0
    4.6099   -0.5122   -1.2426 N   0  0  0  0  0  0
    3.3425   -0.4277   -0.8085 C   0  0  0  0  0  0
    3.1038    0.0278    0.5107 C   0  0  0  0  0  0
    4.2185    0.3747    1.3143 C   0  0  0  0  0  0
    5.4305    0.2562    0.7929 N   0  0  0  0  0  0
    4.0457    0.8247    2.6065 N   0  0  0  0  0  0
    1.7911    0.1246    0.9849 C   0  0  0  0  0  0
    0.7448   -0.2268    0.1566 C   0  0  0  0  0  0
    0.9876   -0.6762   -1.1446 C   0  0  0  0  0  0
    2.2582   -0.7770   -1.6251 C   0  0  0  0  0  0
   -0.5703   -0.1328    0.6234 N   0  0  0  0  0  0
   -1.6807   -0.0443   -0.3282 C   0  0  0  0  0  0
   -2.4861   -1.2702   -0.1410 C   0  0  0  0  0  0
   -1.6974   -2.4400   -0.1874 C   0  0  0  0  0  0
   -2.2386   -3.6825    0.0247 C   0  0  0  0  0  0
   -3.5906   -3.7799    0.3013 C   0  0  0  0  0  0
   -4.3500   -2.6398    0.3216 C   0  0  0  0  0  0
   -3.7954   -1.3641    0.0615 C   0  0  0  0  0  0
   -4.9074   -0.3389   -0.0042 C   0  0  0  0  0  0
   -4.6081    0.9555    0.6847 C   0  0  0  0  0  0
   -3.4287    1.7172    0.1201 C   0  0  0  0  0  0
   -3.7747    3.0822   -0.0226 C   0  0  0  0  0  0
   -2.8746    4.0188   -0.4572 C   0  0  0  0  0  0
   -1.5823    3.6238   -0.7537 C   0  0  0  0  0  0
   -1.2557    2.2967   -0.6345 C   0  0  0  0  0  0
   -2.2050    1.3351   -0.2270 C   0  0  0  0  0  0
    6.9027   -0.2835   -0.9362 N   0  0  0  0  0  0
    4.8173    1.0587    3.1458 H   0  0  0  0  0  0
    3.1527    0.9072    2.9760 H   0  0  0  0  0  0
    1.5986    0.4706    1.9897 H   0  0  0  0  0  0
    0.1559   -0.9473   -1.7780 H   0  0  0  0  0  0
    2.4297   -1.1256   -2.6329 H   0  0  0  0  0  0
   -0.7472   -0.1262    1.5771 H   0  0  0  0  0  0
   -1.2248   -0.1257   -1.3149 H   0  0  0  0  0  0
   -0.6410   -2.3547   -0.3955 H   0  0  0  0  0  0
   -1.6214   -4.5674   -0.0237 H   0  0  0  0  0  0
   -4.0412   -4.7413    0.4989 H   0  0  0  0  0  0
   -5.4044   -2.7170    0.5421 H   0  0  0  0  0  0
   -5.1217   -0.1298   -1.0523 H   0  0  0  0  0  0
   -5.8010   -0.7705    0.4465 H   0  0  0  0  0  0
   -5.4911    1.5915    0.6213 H   0  0  0  0  0  0
   -4.4126    0.7484    1.7368 H   0  0  0  0  0  0
   -4.7799    3.3951    0.2184 H   0  0  0  0  0  0
   -3.1699    5.0518   -0.5674 H   0  0  0  0  0  0
   -0.8453    4.3458   -1.0731 H   0  0  0  0  0  0
   -0.2478    1.9800   -0.8584 H   0  0  0  0  0  0
    7.6537   -0.0418   -0.3719 H   0  0  0  0  0  0
    7.0573   -0.6004   -1.8399 H   0  0  0  0  0  0
  1  2  1  0  0  0
  1  6  2  0  0  0
  1 28  1  0  0  0
  2  3  2  0  0  0
  3  4  1  0  0  0
  3 11  1  0  0  0
  4  5  2  0  0  0
  4  8  1  0  0  0
  5  6  1  0  0  0
  5  7  1  0  0  0
  7 29  1  0  0  0
  7 30  1  0  0  0
  8  9  2  0  0  0
  8 31  1  0  0  0
  9 10  1  0  0  0
  9 12  1  0  0  0
 10 11  2  0  0  0
 10 32  1  0  0  0
 11 33  1  0  0  0
 12 13  1  0  0  0
 12 34  1  0  0  0
 13 14  1  0  0  0
 13 27  1  0  0  0
 13 35  1  0  0  0
 14 15  1  0  0  0
 14 19  2  0  0  0
 15 16  2  0  0  0
 15 36  1  0  0  0
 16 17  1  0  0  0
 16 37  1  0  0  0
 17 18  2  0  0  0
 17 38  1  0  0  0
 18 19  1  0  0  0
 18 39  1  0  0  0
 19 20  1  0  0  0
 20 21  1  0  0  0
 20 40  1  0  0  0
 20 41  1  0  0  0
 21 22  1  0  0  0
 21 42  1  0  0  0
 21 43  1  0  0  0
 22 23  1  0  0  0
 22 27  2  0  0  0
 23 24  2  0  0  0
 23 44  1  0  0  0
 24 25  1  0  0  0
 24 45  1  0  0  0
 25 26  2  0  0  0
 25 46  1  0  0  0
 26 27  1  0  0  0
 26 47  1  0  0  0
 28 48  1  0  0  0
 28 49  1  0  0  0
M  END
>  <ACTIVITY>
7.72125

>  <set_rl>
2

>  <Min_dist>
0.382353

>  <Avg_dist>
0.597853

>  <PC_uM>
0.51

>  <TG_uM>
0.13

>  <RL_uM>
0.019

$$$$
19-4
  Cerius2 12110214553D 1   1.00000                          
 
 47 49  0  0  0  0  0  0  0  0999 V2000
    3.0762   -0.0169    0.2488 C   0  0  0  0  0  0
    3.7660   -1.1196    0.7695 C   0  0  0  0  0  0
    5.0895   -1.1607    0.6741 N   0  0  0  0  0  0
    5.7511   -0.1706    0.0937 C   0  0  0  0  0  0
    5.1240    0.8806   -0.4074 N   0  0  0  0  0  0
    3.7983    0.9858   -0.3496 C   0  0  0  0  0  0
    3.1504    2.2028   -0.9523 C   0  0  0  0  0  0
    1.7262    2.3674   -0.4240 C   0  0  0  0  0  0
    0.9851    1.0370   -0.6004 C   0  0  0  0  0  0
    1.5784    0.0207    0.3752 C   0  0  0  0  0  0
   -0.5018    1.2325   -0.2977 C   0  0  0  0  0  0
   -1.2063   -0.0407   -0.4673 N   0  0  0  0  0  0
   -2.5861   -0.1121   -0.2443 C   0  0  0  0  0  0
   -3.2878    1.0218    0.1373 C   0  0  0  0  0  0
   -4.6547    0.9480    0.3570 C   0  0  0  0  0  0
   -5.3200   -0.2584    0.1959 C   0  0  0  0  0  0
   -4.6224   -1.3902   -0.1841 C   0  0  0  0  0  0
   -3.2582   -1.3208   -0.4109 C   0  0  0  0  0  0
   -2.5726   -2.4353   -0.7852 O   0  0  0  0  0  0
   -3.5229   -3.5000   -0.8575 C   0  0  0  0  0  0
   -5.3436    2.0590    0.7312 O   0  0  0  0  0  0
   -6.7102    1.6678    0.8780 C   0  0  0  0  0  0
    7.1309   -0.2375    0.0102 N   0  0  0  0  0  0
    3.0750   -2.1550    1.3774 N   0  0  0  0  0  0
    3.7345    3.0865   -0.6952 H   0  0  0  0  0  0
    3.1224    2.0962   -2.0367 H   0  0  0  0  0  0
    1.7560    2.6327    0.6328 H   0  0  0  0  0  0
    1.2150    3.1488   -0.9864 H   0  0  0  0  0  0
    1.1101    0.6808   -1.6230 H   0  0  0  0  0  0
    1.1741   -0.9676    0.1561 H   0  0  0  0  0  0
    1.3087    0.2992    1.3939 H   0  0  0  0  0  0
   -0.6210    1.5798    0.7286 H   0  0  0  0  0  0
   -0.9178    1.9719   -0.9820 H   0  0  0  0  0  0
   -0.7164   -0.8342   -0.7342 H   0  0  0  0  0  0
   -2.7699    1.9610    0.2635 H   0  0  0  0  0  0
   -6.3848   -0.3139    0.3678 H   0  0  0  0  0  0
   -5.1430   -2.3282   -0.3085 H   0  0  0  0  0  0
   -3.0174   -4.4186   -1.1554 H   0  0  0  0  0  0
   -3.9861   -3.6405    0.1191 H   0  0  0  0  0  0
   -4.2901   -3.2530   -1.5913 H   0  0  0  0  0  0
   -7.3047    2.5303    1.1788 H   0  0  0  0  0  0
   -7.0821    1.2835   -0.0718 H   0  0  0  0  0  0
   -6.7860    0.8910    1.6389 H   0  0  0  0  0  0
    7.6023   -1.0031    0.3743 H   0  0  0  0  0  0
    7.6266    0.4812   -0.4125 H   0  0  0  0  0  0
    3.5582   -2.9158    1.7361 H   0  0  0  0  0  0
    2.1080   -2.1191    1.4444 H   0  0  0  0  0  0
  1  2  1  0  0  0
  1  6  2  0  0  0
  1 10  1  0  0  0
  2  3  2  0  0  0
  2 24  1  0  0  0
  3  4  1  0  0  0
  4  5  2  0  0  0
  4 23  1  0  0  0
  5  6  1  0  0  0
  6  7  1  0  0  0
  7  8  1  0  0  0
  7 25  1  0  0  0
  7 26  1  0  0  0
  8  9  1  0  0  0
  8 27  1  0  0  0
  8 28  1  0  0  0
  9 10  1  0  0  0
  9 11  1  0  0  0
  9 29  1  0  0  0
 10 30  1  0  0  0
 10 31  1  0  0  0
 11 12  1  0  0  0
 11 32  1  0  0  0
 11 33  1  0  0  0
 12 13  1  0  0  0
 12 34  1  0  0  0
 13 14  1  0  0  0
 13 18  2  0  0  0
 14 15  2  0  0  0
 14 35  1  0  0  0
 15 16  1  0  0  0
 15 21  1  0  0  0
 16 17  2  0  0  0
 16 36  1  0  0  0
 17 18  1  0  0  0
 17 37  1  0  0  0
 18 19  1  0  0  0
 19 20  1  0  0  0
 20 38  1  0  0  0
 20 39  1  0  0  0
 20 40  1  0  0  0
 21 22  1  0  0  0
 22 41  1  0  0  0
 22 42  1  0  0  0
 22 43  1  0  0  0
 23 44  1  0  0  0
 23 45  1  0  0  0
 24 46  1  0  0  0
 24 47  1  0  0  0
M  END
>  <ACTIVITY>
6.25181

>  <set_rl>
2

>  <Min_dist>
0.031915

>  <Avg_dist>
0.521706

>  <PC_uM>
1.67

>  <TG_uM>
0.181

>  <RL_uM>
0.56

$$$$
19-10
  Cerius2 12110214553D 1   1.00000                          
 
 42 44  0  0  0  0  0  0  0  0999 V2000
    2.3195   -0.1626   -0.0837 C   0  0  0  0  0  0
    2.2672   -1.4361   -0.6655 C   0  0  0  0  0  0
    3.3916   -2.1244   -0.8216 N   0  0  0  0  0  0
    4.5501   -1.6138   -0.4316 C   0  0  0  0  0  0
    4.6272   -0.4135    0.1186 N   0  0  0  0  0  0
    3.5404    0.3327    0.3022 C   0  0  0  0  0  0
    3.7040    1.6943    0.9215 C   0  0  0  0  0  0
    2.3639    2.2077    1.4459 C   0  0  0  0  0  0
    1.3235    2.0833    0.3267 C   0  0  0  0  0  0
    1.0361    0.5996    0.0973 C   0  0  0  0  0  0
    0.0356    2.7984    0.7400 C   0  0  0  0  0  0
   -0.9557    2.6772   -0.3319 N   0  0  0  0  0  0
   -1.8387    1.5943   -0.3478 C   0  0  0  0  0  0
   -2.7792    1.4783   -1.3637 C   0  0  0  0  0  0
   -3.6510    0.4073   -1.3775 C   0  0  0  0  0  0
   -3.5890   -0.5501   -0.3804 C   0  0  0  0  0  0
   -2.6528   -0.4375    0.6336 C   0  0  0  0  0  0
   -1.7738    0.6294    0.6486 C   0  0  0  0  0  0
   -2.5781   -1.6407    1.8829 Cl  0  0  0  0  0  0
   -4.6873   -1.8944   -0.4005 Cl  0  0  0  0  0  0
   -1.0213    3.6914   -1.3871 C   0  0  0  0  0  0
    5.7068   -2.3540   -0.6036 N   0  0  0  0  0  0
    1.0560   -1.9711   -1.0727 N   0  0  0  0  0  0
    4.4138    1.6320    1.7464 H   0  0  0  0  0  0
    4.0870    2.3872    0.1723 H   0  0  0  0  0  0
    2.0529    1.6104    2.3030 H   0  0  0  0  0  0
    2.4619    3.2526    1.7404 H   0  0  0  0  0  0
    1.7152    2.5273   -0.5885 H   0  0  0  0  0  0
    0.4211    0.4855   -0.7954 H   0  0  0  0  0  0
    0.4967    0.2001    0.9561 H   0  0  0  0  0  0
   -0.3561    2.3442    1.6501 H   0  0  0  0  0  0
    0.2473    3.8521    0.9217 H   0  0  0  0  0  0
   -2.8288    2.2254   -2.1420 H   0  0  0  0  0  0
   -4.3821    0.3171   -2.1673 H   0  0  0  0  0  0
   -1.0437    0.7172    1.4395 H   0  0  0  0  0  0
   -0.2611    4.4518   -1.2079 H   0  0  0  0  0  0
   -0.8440    3.2213   -2.3544 H   0  0  0  0  0  0
   -2.0074    4.1557   -1.3840 H   0  0  0  0  0  0
    5.6632   -3.2357   -1.0056 H   0  0  0  0  0  0
    6.5612   -1.9910   -0.3221 H   0  0  0  0  0  0
    1.0262   -2.8533   -1.4749 H   0  0  0  0  0  0
    0.2378   -1.4635   -0.9557 H   0  0  0  0  0  0
  1  2  1  0  0  0
  1  6  2  0  0  0
  1 10  1  0  0  0
  2  3  2  0  0  0
  2 23  1  0  0  0
  3  4  1  0  0  0
  4  5  2  0  0  0
  4 22  1  0  0  0
  5  6  1  0  0  0
  6  7  1  0  0  0
  7  8  1  0  0  0
  7 24  1  0  0  0
  7 25  1  0  0  0
  8  9  1  0  0  0
  8 26  1  0  0  0
  8 27  1  0  0  0
  9 10  1  0  0  0
  9 11  1  0  0  0
  9 28  1  0  0  0
 10 29  1  0  0  0
 10 30  1  0  0  0
 11 12  1  0  0  0
 11 31  1  0  0  0
 11 32  1  0  0  0
 12 13  1  0  0  0
 12 21  1  0  0  0
 13 14  1  0  0  0
 13 18  2  0  0  0
 14 15  2  0  0  0
 14 33  1  0  0  0
 15 16  1  0  0  0
 15 34  1  0  0  0
 16 17  2  0  0  0
 16 20  1  0  0  0
 17 18  1  0  0  0
 17 19  1  0  0  0
 18 35  1  0  0  0
 21 36  1  0  0  0
 21 37  1  0  0  0
 21 38  1  0  0  0
 22 39  1  0  0  0
 22 40  1  0  0  0
 23 41  1  0  0  0
 23 42  1  0  0  0
M  END
>  <ACTIVITY>
7.46852

>  <set_rl>
2

>  <Min_dist>
0.070588

>  <Avg_dist>
0.550988

>  <PC_uM>
0.246

>  <TG_uM>
0.021

>  <RL_uM>
0.034

$$$$
20-5B
  Cerius2 12110214553D 1   1.00000                          
 
 40 42  0  0  0  0  0  0  0  0999 V2000
    1.5494   -0.1722    0.2596 C   0  0  0  0  0  0
    2.1765   -1.4170    0.1178 C   0  0  0  0  0  0
    3.4534   -1.4625   -0.2424 N   0  0  0  0  0  0
    4.1278   -0.3442   -0.4650 C   0  0  0  0  0  0
    3.5590    0.8434   -0.3400 N   0  0  0  0  0  0
    2.2817    0.9630    0.0146 C   0  0  0  0  0  0
    1.6962    2.3449    0.1242 C   0  0  0  0  0  0
    0.4042    2.3152    0.9392 C   0  0  0  0  0  0
   -0.5091    1.2265    0.3637 C   0  0  0  0  0  0
    0.1061   -0.1367    0.6797 C   0  0  0  0  0  0
   -1.8948    1.3260    1.0048 C   0  0  0  0  0  0
   -2.7892    0.2545    0.4365 C   0  0  0  0  0  0
   -3.5467    0.5125   -0.6910 C   0  0  0  0  0  0
   -4.3670   -0.4703   -1.2121 C   0  0  0  0  0  0
   -4.4298   -1.7114   -0.6062 C   0  0  0  0  0  0
   -3.6719   -1.9696    0.5204 C   0  0  0  0  0  0
   -2.8480   -0.9880    1.0391 C   0  0  0  0  0  0
   -3.4782    1.8653   -1.3514 C   0  0  0  0  0  0
    5.4587   -0.4203   -0.8367 N   0  0  0  0  0  0
    1.4723   -2.5869    0.3512 N   0  0  0  0  0  0
    2.4151    3.0030    0.6122 H   0  0  0  0  0  0
    1.4835    2.7263   -0.8745 H   0  0  0  0  0  0
    0.6332    2.0883    1.9805 H   0  0  0  0  0  0
   -0.0929    3.2830    0.8730 H   0  0  0  0  0  0
   -0.5918    1.3508   -0.7160 H   0  0  0  0  0  0
   -0.4431   -0.9123    0.1458 H   0  0  0  0  0  0
    0.0371   -0.3235    1.7513 H   0  0  0  0  0  0
   -1.8069    1.1918    2.0829 H   0  0  0  0  0  0
   -2.3230    2.3060    0.7943 H   0  0  0  0  0  0
   -4.9593   -0.2685   -2.0924 H   0  0  0  0  0  0
   -5.0714   -2.4791   -1.0130 H   0  0  0  0  0  0
   -3.7212   -2.9390    0.9938 H   0  0  0  0  0  0
   -2.2558   -1.1897    1.9194 H   0  0  0  0  0  0
   -2.6901    1.8626   -2.1043 H   0  0  0  0  0  0
   -4.4339    2.0864   -1.8266 H   0  0  0  0  0  0
   -3.2612    2.6254   -0.6009 H   0  0  0  0  0  0
    5.8872   -1.2854   -0.9314 H   0  0  0  0  0  0
    5.9632    0.3915   -1.0025 H   0  0  0  0  0  0
    1.9120   -3.4457    0.2514 H   0  0  0  0  0  0
    0.5396   -2.5472    0.6144 H   0  0  0  0  0  0
  1  2  1  0  0  0
  1  6  2  0  0  0
  1 10  1  0  0  0
  2  3  2  0  0  0
  2 20  1  0  0  0
  3  4  1  0  0  0
  4  5  2  0  0  0
  4 19  1  0  0  0
  5  6  1  0  0  0
  6  7  1  0  0  0
  7  8  1  0  0  0
  7 21  1  0  0  0
  7 22  1  0  0  0
  8  9  1  0  0  0
  8 23  1  0  0  0
  8 24  1  0  0  0
  9 10  1  0  0  0
  9 11  1  0  0  0
  9 25  1  0  0  0
 10 26  1  0  0  0
 10 27  1  0  0  0
 11 12  1  0  0  0
 11 28  1  0  0  0
 11 29  1  0  0  0
 12 13  1  0  0  0
 12 17  2  0  0  0
 13 14  2  0  0  0
 13 18  1  0  0  0
 14 15  1  0  0  0
 14 30  1  0  0  0
 15 16  2  0  0  0
 15 31  1  0  0  0
 16 17  1  0  0  0
 16 32  1  0  0  0
 17 33  1  0  0  0
 18 34  1  0  0  0
 18 35  1  0  0  0
 18 36  1  0  0  0
 19 37  1  0  0  0
 19 38  1  0  0  0
 20 39  1  0  0  0
 20 40  1  0  0  0
M  END
>  <ACTIVITY>
6.95861

>  <set_rl>
2

>  <Min_dist>
0.104478

>  <Avg_dist>
0.621283

>  <PC_uM>
0.25

>  <TG_uM>
0.023

>  <RL_uM>
0.11

$$$$
19-3
  Cerius2 12110214553D 1   1.00000                          
 
 53 55  0  0  0  0  0  0  0  0999 V2000
    2.5645   -0.1174   -0.1437 C   0  0  0  0  0  0
    2.5697   -1.3562   -0.7981 C   0  0  0  0  0  0
    3.7289   -1.8978   -1.1522 N   0  0  0  0  0  0
    4.8681   -1.2748   -0.8897 C   0  0  0  0  0  0
    4.8909   -0.1039   -0.2749 N   0  0  0  0  0  0
    3.7662    0.4981    0.1051 C   0  0  0  0  0  0
    3.8662    1.8355    0.7874 C   0  0  0  0  0  0
    2.5666    2.1591    1.5230 C   0  0  0  0  0  0
    1.3970    1.9708    0.5499 C   0  0  0  0  0  0
    1.2443    0.4774    0.2615 C   0  0  0  0  0  0
    0.1107    2.5062    1.1821 C   0  0  0  0  0  0
   -1.0043    2.3245    0.2494 N   0  0  0  0  0  0
   -1.7572    1.1456    0.2803 C   0  0  0  0  0  0
   -2.8140    0.9736   -0.6039 C   0  0  0  0  0  0
   -3.5602   -0.1940   -0.5738 C   0  0  0  0  0  0
   -3.2503   -1.1930    0.3413 C   0  0  0  0  0  0
   -2.1922   -1.0205    1.2257 C   0  0  0  0  0  0
   -1.4437    0.1456    1.1913 C   0  0  0  0  0  0
   -1.8887   -1.9973    2.1218 O   0  0  0  0  0  0
   -0.7701   -1.5304    2.8787 C   0  0  0  0  0  0
   -3.9834   -2.3402    0.3717 O   0  0  0  0  0  0
   -3.3547   -3.2560   -0.5272 C   0  0  0  0  0  0
   -4.5957   -0.3618   -1.4392 O   0  0  0  0  0  0
   -4.6612    0.8205   -2.2391 C   0  0  0  0  0  0
   -1.3064    3.2981   -0.6432 C   0  0  0  0  0  0
   -1.5681    4.1417   -1.4166 C   0  0  0  0  0  0
    6.0626   -1.8631   -1.2673 N   0  0  0  0  0  0
    1.3788   -2.0088   -1.0722 N   0  0  0  0  0  0
    4.6891    1.8149    1.5019 H   0  0  0  0  0  0
    4.0598    2.6067    0.0419 H   0  0  0  0  0  0
    2.4489    1.4855    2.3719 H   0  0  0  0  0  0
    2.5904    3.1915    1.8716 H   0  0  0  0  0  0
    1.6026    2.5048   -0.3778 H   0  0  0  0  0  0
    0.5243    0.3379   -0.5448 H   0  0  0  0  0  0
    0.8804   -0.0271    1.1566 H   0  0  0  0  0  0
   -0.0946    1.9624    2.1042 H   0  0  0  0  0  0
    0.2293    3.5667    1.4045 H   0  0  0  0  0  0
   -3.0547    1.7500   -1.3150 H   0  0  0  0  0  0
   -0.6212    0.2796    1.8783 H   0  0  0  0  0  0
   -0.4889   -2.2842    3.6141 H   0  0  0  0  0  0
    0.0698   -1.3450    2.2091 H   0  0  0  0  0  0
   -1.0379   -0.6059    3.3901 H   0  0  0  0  0  0
   -3.9093   -4.1944   -0.5366 H   0  0  0  0  0  0
   -3.3436   -2.8304   -1.5306 H   0  0  0  0  0  0
   -2.3317   -3.4418   -0.2000 H   0  0  0  0  0  0
   -5.4810    0.7319   -2.9520 H   0  0  0  0  0  0
   -4.8300    1.6848   -1.5969 H   0  0  0  0  0  0
   -3.7226    0.9466   -2.7787 H   0  0  0  0  0  0
   -1.8023    4.8962   -2.1083 H   0  0  0  0  0  0
    6.0590   -2.7217   -1.7185 H   0  0  0  0  0  0
    6.9033   -1.4168   -1.0807 H   0  0  0  0  0  0
    1.3888   -2.8663   -1.5255 H   0  0  0  0  0  0
    0.5350   -1.6082   -0.8107 H   0  0  0  0  0  0
  1  2  1  0  0  0
  1  6  2  0  0  0
  1 10  1  0  0  0
  2  3  2  0  0  0
  2 28  1  0  0  0
  3  4  1  0  0  0
  4  5  2  0  0  0
  4 27  1  0  0  0
  5  6  1  0  0  0
  6  7  1  0  0  0
  7  8  1  0  0  0
  7 29  1  0  0  0
  7 30  1  0  0  0
  8  9  1  0  0  0
  8 31  1  0  0  0
  8 32  1  0  0  0
  9 10  1  0  0  0
  9 11  1  0  0  0
  9 33  1  0  0  0
 10 34  1  0  0  0
 10 35  1  0  0  0
 11 12  1  0  0  0
 11 36  1  0  0  0
 11 37  1  0  0  0
 12 13  1  0  0  0
 12 25  1  0  0  0
 13 14  1  0  0  0
 13 18  2  0  0  0
 14 15  2  0  0  0
 14 38  1  0  0  0
 15 16  1  0  0  0
 15 23  1  0  0  0
 16 17  2  0  0  0
 16 21  1  0  0  0
 17 18  1  0  0  0
 17 19  1  0  0  0
 18 39  1  0  0  0
 19 20  1  0  0  0
 20 40  1  0  0  0
 20 41  1  0  0  0
 20 42  1  0  0  0
 21 22  1  0  0  0
 22 43  1  0  0  0
 22 44  1  0  0  0
 22 45  1  0  0  0
 23 24  1  0  0  0
 24 46  1  0  0  0
 24 47  1  0  0  0
 24 48  1  0  0  0
 25 26  3  0  0  0
 26 49  1  0  0  0
 27 50  1  0  0  0
 27 51  1  0  0  0
 28 52  1  0  0  0
 28 53  1  0  0  0
M  END
>  <ACTIVITY>
7.13077

>  <set_rl>
2

>  <Min_dist>
0.079208

>  <Avg_dist>
0.548779

>  <PC_uM>
0.119

>  <TG_uM>
0.012

>  <RL_uM>
0.074

$$$$
20-5H
  Cerius2 12110214553D 1   1.00000                          
 
 41 43  0  0  0  0  0  0  0  0999 V2000
    2.7137   -0.1954    0.2234 C   0  0  0  0  0  0
    2.7919   -1.5925    0.1543 C   0  0  0  0  0  0
    3.9540   -2.1633   -0.1388 N   0  0  0  0  0  0
    5.0281   -1.4211   -0.3631 C   0  0  0  0  0  0
    4.9810   -0.1005   -0.3058 N   0  0  0  0  0  0
    3.8484    0.5380   -0.0208 C   0  0  0  0  0  0
    3.8646    2.0423    0.0139 C   0  0  0  0  0  0
    2.6431    2.5731    0.7627 C   0  0  0  0  0  0
    1.3890    1.9136    0.1772 C   0  0  0  0  0  0
    1.3933    0.4358    0.5682 C   0  0  0  0  0  0
    0.1396    2.5913    0.7434 C   0  0  0  0  0  0
   -1.0905    1.9403    0.1655 C   0  0  0  0  0  0
   -1.6667    0.8612    0.8077 C   0  0  0  0  0  0
   -2.7989    0.2624    0.2753 C   0  0  0  0  0  0
   -3.3501    0.7491   -0.9014 C   0  0  0  0  0  0
   -2.7704    1.8281   -1.5396 C   0  0  0  0  0  0
   -1.6449    2.4269   -1.0037 C   0  0  0  0  0  0
   -3.3673   -0.7995    0.9049 O   0  0  0  0  0  0
   -4.4991   -1.1860    0.1229 C   0  0  0  0  0  0
   -5.1292   -2.2810    0.7239 F   0  0  0  0  0  0
   -5.3978   -0.1168    0.0431 F   0  0  0  0  0  0
   -4.0784   -1.5386   -1.1639 F   0  0  0  0  0  0
    6.2278   -2.0420   -0.6639 N   0  0  0  0  0  0
    1.6693   -2.3695    0.3895 N   0  0  0  0  0  0
    4.7706    2.3813    0.5162 H   0  0  0  0  0  0
    3.8568    2.4262   -1.0062 H   0  0  0  0  0  0
    2.7266    2.3262    1.8211 H   0  0  0  0  0  0
    2.5796    3.6543    0.6399 H   0  0  0  0  0  0
    1.3995    2.0062   -0.9088 H   0  0  0  0  0  0
    0.5969   -0.0809    0.0326 H   0  0  0  0  0  0
    1.2192    0.3463    1.6405 H   0  0  0  0  0  0
    0.1300    2.4875    1.8284 H   0  0  0  0  0  0
    0.1489    3.6489    0.4796 H   0  0  0  0  0  0
   -1.2356    0.4839    1.7233 H   0  0  0  0  0  0
   -4.2315    0.2843   -1.3181 H   0  0  0  0  0  0
   -3.1988    2.2071   -2.4557 H   0  0  0  0  0  0
   -1.1932    3.2707   -1.5041 H   0  0  0  0  0  0
    6.2752   -3.0099   -0.7085 H   0  0  0  0  0  0
    7.0213   -1.5094   -0.8301 H   0  0  0  0  0  0
    1.7297   -3.3363    0.3402 H   0  0  0  0  0  0
    0.8230   -1.9466    0.6036 H   0  0  0  0  0  0
  1  2  1  0  0  0
  1  6  2  0  0  0
  1 10  1  0  0  0
  2  3  2  0  0  0
  2 24  1  0  0  0
  3  4  1  0  0  0
  4  5  2  0  0  0
  4 23  1  0  0  0
  5  6  1  0  0  0
  6  7  1  0  0  0
  7  8  1  0  0  0
  7 25  1  0  0  0
  7 26  1  0  0  0
  8  9  1  0  0  0
  8 27  1  0  0  0
  8 28  1  0  0  0
  9 10  1  0  0  0
  9 11  1  0  0  0
  9 29  1  0  0  0
 10 30  1  0  0  0
 10 31  1  0  0  0
 11 12  1  0  0  0
 11 32  1  0  0  0
 11 33  1  0  0  0
 12 13  1  0  0  0
 12 17  2  0  0  0
 13 14  2  0  0  0
 13 34  1  0  0  0
 14 15  1  0  0  0
 14 18  1  0  0  0
 15 16  2  0  0  0
 15 35  1  0  0  0
 16 17  1  0  0  0
 16 36  1  0  0  0
 17 37  1  0  0  0
 18 19  1  0  0  0
 19 20  1  0  0  0
 19 21  1  0  0  0
 19 22  1  0  0  0
 23 38  1  0  0  0
 23 39  1  0  0  0
 24 40  1  0  0  0
 24 41  1  0  0  0
M  END
>  <ACTIVITY>
7.10237

>  <set_rl>
2

>  <Min_dist>
0.054054

>  <Avg_dist>
0.602388

>  <PC_uM>
0.1

>  <TG_uM>
0.014

>  <RL_uM>
0.079

$$$$
20-9C
  Cerius2 12110214553D 1   1.00000                          
 
 34 36  0  0  0  0  0  0  0  0999 V2000
    1.2620   -0.3483   -0.0214 C   0  0  0  0  0  0
    2.2120   -1.3776   -0.0552 C   0  0  0  0  0  0
    3.5031   -1.0691   -0.0405 N   0  0  0  0  0  0
    3.8897    0.1971    0.0060 C   0  0  0  0  0  0
    3.0135    1.1875    0.0369 N   0  0  0  0  0  0
    1.7038    0.9510    0.0212 C   0  0  0  0  0  0
    0.7644    2.1263    0.0443 C   0  0  0  0  0  0
   -0.6383    1.6818    0.4560 C   0  0  0  0  0  0
   -1.0485    0.4925   -0.4202 C   0  0  0  0  0  0
   -0.1964   -0.7140   -0.0266 C   0  0  0  0  0  0
   -2.5053    0.1777   -0.1972 C   0  0  0  0  0  0
   -3.3948    0.2367   -1.2537 C   0  0  0  0  0  0
   -4.7311   -0.0520   -1.0491 C   0  0  0  0  0  0
   -5.1778   -0.4002    0.2119 C   0  0  0  0  0  0
   -4.2881   -0.4601    1.2682 C   0  0  0  0  0  0
   -2.9510   -0.1756    1.0627 C   0  0  0  0  0  0
    5.2421    0.4905    0.0233 N   0  0  0  0  0  0
    1.8086   -2.7019   -0.1030 N   0  0  0  0  0  0
    1.1310    2.8665    0.7554 H   0  0  0  0  0  0
    0.7235    2.5743   -0.9485 H   0  0  0  0  0  0
   -0.6343    1.3806    1.5036 H   0  0  0  0  0  0
   -1.3401    2.5030    0.3107 H   0  0  0  0  0  0
   -0.8794    0.7349   -1.4694 H   0  0  0  0  0  0
   -0.3623   -1.5207   -0.7406 H   0  0  0  0  0  0
   -0.4876   -1.0517    0.9680 H   0  0  0  0  0  0
   -3.0458    0.5087   -2.2389 H   0  0  0  0  0  0
   -5.4261   -0.0052   -1.8744 H   0  0  0  0  0  0
   -6.2219   -0.6250    0.3719 H   0  0  0  0  0  0
   -4.6371   -0.7318    2.2535 H   0  0  0  0  0  0
   -2.2559   -0.2224    1.8880 H   0  0  0  0  0  0
    5.8944   -0.2270    0.0013 H   0  0  0  0  0  0
    5.5377    1.4138    0.0572 H   0  0  0  0  0  0
    2.4710   -3.4102   -0.1262 H   0  0  0  0  0  0
    0.8638   -2.9211   -0.1132 H   0  0  0  0  0  0
  1  2  1  0  0  0
  1  6  2  0  0  0
  1 10  1  0  0  0
  2  3  2  0  0  0
  2 18  1  0  0  0
  3  4  1  0  0  0
  4  5  2  0  0  0
  4 17  1  0  0  0
  5  6  1  0  0  0
  6  7  1  0  0  0
  7  8  1  0  0  0
  7 19  1  0  0  0
  7 20  1  0  0  0
  8  9  1  0  0  0
  8 21  1  0  0  0
  8 22  1  0  0  0
  9 10  1  0  0  0
  9 11  1  0  0  0
  9 23  1  0  0  0
 10 24  1  0  0  0
 10 25  1  0  0  0
 11 12  1  0  0  0
 11 16  2  0  0  0
 12 13  2  0  0  0
 12 26  1  0  0  0
 13 14  1  0  0  0
 13 27  1  0  0  0
 14 15  2  0  0  0
 14 28  1  0  0  0
 15 16  1  0  0  0
 15 29  1  0  0  0
 16 30  1  0  0  0
 17 31  1  0  0  0
 17 32  1  0  0  0
 18 33  1  0  0  0
 18 34  1  0  0  0
M  END
>  <ACTIVITY>
5.72125

>  <set_rl>
2

>  <Min_dist>
0.152542

>  <Avg_dist>
0.62741

>  <PC_uM>
2.2

>  <TG_uM>
1.3

>  <RL_uM>
1.9

$$$$
21-3
  Cerius2 12110214553D 1   1.00000                          
 
 33 35  0  0  0  0  0  0  0  0999 V2000
   -4.4994    1.2065    0.0932 N   0  0  0  0  0  0
   -4.9599   -0.0371    0.1903 C   0  0  0  0  0  0
   -4.1901   -1.1032    0.1069 N   0  0  0  0  0  0
   -2.8700   -0.9864   -0.0850 C   0  0  0  0  0  0
   -2.3061    0.3064   -0.1981 C   0  0  0  0  0  0
   -3.2113    1.4527   -0.0974 C   0  0  0  0  0  0
   -2.7397    2.7443   -0.1978 N   0  0  0  0  0  0
   -0.9985    0.4543   -0.3881 N   0  0  0  0  0  0
   -0.2035   -0.5865   -0.4747 C   0  0  0  0  0  0
   -0.6896   -1.8881   -0.3729 C   0  0  0  0  0  0
   -2.0249   -2.1054   -0.1773 C   0  0  0  0  0  0
    1.2719   -0.3680   -0.6903 C   0  0  0  0  0  0
    2.1049   -0.2372    0.9158 S   0  0  0  0  0  0
    3.7656    0.0074    0.3803 C   0  0  0  0  0  0
    4.7829    0.1627    1.3142 C   0  0  0  0  0  0
    6.0832    0.3543    0.8908 C   0  0  0  0  0  0
    6.3736    0.3922   -0.4609 C   0  0  0  0  0  0
    5.3637    0.2384   -1.3932 C   0  0  0  0  0  0
    4.0621    0.0399   -0.9771 C   0  0  0  0  0  0
   -6.3164   -0.2210    0.3896 N   0  0  0  0  0  0
   -3.3541    3.4917   -0.1286 H   0  0  0  0  0  0
   -1.7935    2.9057   -0.3376 H   0  0  0  0  0  0
   -0.0115   -2.7253   -0.4484 H   0  0  0  0  0  0
   -2.4189   -3.1077   -0.0960 H   0  0  0  0  0  0
    1.6862   -1.2086   -1.2470 H   0  0  0  0  0  0
    1.4244    0.5520   -1.2546 H   0  0  0  0  0  0
    4.5568    0.1339    2.3699 H   0  0  0  0  0  0
    6.8743    0.4750    1.6160 H   0  0  0  0  0  0
    7.3915    0.5425   -0.7891 H   0  0  0  0  0  0
    5.5941    0.2689   -2.4479 H   0  0  0  0  0  0
    3.2739   -0.0801   -1.7057 H   0  0  0  0  0  0
   -6.9054    0.5469    0.4549 H   0  0  0  0  0  0
   -6.6785   -1.1178    0.4639 H   0  0  0  0  0  0
  1  2  1  0  0  0
  1  6  2  0  0  0
  2  3  2  0  0  0
  2 20  1  0  0  0
  3  4  1  0  0  0
  4  5  2  0  0  0
  4 11  1  0  0  0
  5  6  1  0  0  0
  5  8  1  0  0  0
  6  7  1  0  0  0
  7 21  1  0  0  0
  7 22  1  0  0  0
  8  9  2  0  0  0
  9 10  1  0  0  0
  9 12  1  0  0  0
 10 11  2  0  0  0
 10 23  1  0  0  0
 11 24  1  0  0  0
 12 13  1  0  0  0
 12 25  1  0  0  0
 12 26  1  0  0  0
 13 14  1  0  0  0
 14 15  1  0  0  0
 14 19  2  0  0  0
 15 16  2  0  0  0
 15 27  1  0  0  0
 16 17  1  0  0  0
 16 28  1  0  0  0
 17 18  2  0  0  0
 17 29  1  0  0  0
 18 19  1  0  0  0
 18 30  1  0  0  0
 19 31  1  0  0  0
 20 32  1  0  0  0
 20 33  1  0  0  0
M  END
>  <ACTIVITY>
6.284

>  <set_rl>
2

>  <Min_dist>
0.031746

>  <Avg_dist>
0.558585

>  <PC_uM>
2

>  <TG_uM>
0.13

>  <RL_uM>
0.52

$$$$
21-6
  Cerius2 12110214553D 1   1.00000                          
 
 38 40  0  0  0  0  0  0  0  0999 V2000
   -4.1123    1.5707    0.0009 N   0  0  0  0  0  0
   -4.9459    0.5348    0.0006 C   0  0  0  0  0  0
   -4.5426   -0.7196   -0.0003 N   0  0  0  0  0  0
   -3.2386   -1.0240   -0.0009 C   0  0  0  0  0  0
   -2.2902    0.0261   -0.0006 C   0  0  0  0  0  0
   -2.7982    1.3992    0.0004 C   0  0  0  0  0  0
   -1.9387    2.4772    0.0003 N   0  0  0  0  0  0
   -0.9885   -0.2448   -0.0003 N   0  0  0  0  0  0
   -0.5532   -1.4830   -0.0002 C   0  0  0  0  0  0
   -1.4296   -2.5659   -0.0009 C   0  0  0  0  0  0
   -2.7798   -2.3523   -0.0014 C   0  0  0  0  0  0
    0.9318   -1.7397    0.0002 C   0  0  0  0  0  0
    1.6483   -0.4619    0.0005 N   0  0  0  0  0  0
    3.0478   -0.4442    0.0009 C   0  0  0  0  0  0
    3.7584   -1.6357    0.0010 C   0  0  0  0  0  0
    5.1405   -1.6156    0.0015 C   0  0  0  0  0  0
    5.8177   -0.4103    0.0018 C   0  0  0  0  0  0
    5.1160    0.7813    0.0016 C   0  0  0  0  0  0
    3.7310    0.7699   -0.0046 C   0  0  0  0  0  0
    3.0396    1.9412   -0.0049 O   0  0  0  0  0  0
    4.0077    2.9923    0.0021 C   0  0  0  0  0  0
   -6.3060    0.7869    0.0017 N   0  0  0  0  0  0
   -2.2932    3.3801    0.0009 H   0  0  0  0  0  0
   -0.9795    2.3327   -0.0004 H   0  0  0  0  0  0
   -1.0424   -3.5741   -0.0012 H   0  0  0  0  0  0
   -3.4735   -3.1800   -0.0018 H   0  0  0  0  0  0
    1.2021   -2.3080    0.8903 H   0  0  0  0  0  0
    1.2026   -2.3079   -0.8897 H   0  0  0  0  0  0
    1.1527    0.3720    0.0004 H   0  0  0  0  0  0
    3.2318   -2.5786    0.0012 H   0  0  0  0  0  0
    5.6927   -2.5438    0.0020 H   0  0  0  0  0  0
    6.8976   -0.3993    0.0025 H   0  0  0  0  0  0
    5.6481    1.7211    0.0018 H   0  0  0  0  0  0
    3.4980    3.9557    0.0021 H   0  0  0  0  0  0
    4.6278    2.9092    0.8946 H   0  0  0  0  0  0
    4.6358    2.9136   -0.8853 H   0  0  0  0  0  0
   -6.6298    1.7013    0.0027 H   0  0  0  0  0  0
   -6.9360    0.0493    0.0015 H   0  0  0  0  0  0
  1  2  1  0  0  0
  1  6  2  0  0  0
  2  3  2  0  0  0
  2 22  1  0  0  0
  3  4  1  0  0  0
  4  5  2  0  0  0
  4 11  1  0  0  0
  5  6  1  0  0  0
  5  8  1  0  0  0
  6  7  1  0  0  0
  7 23  1  0  0  0
  7 24  1  0  0  0
  8  9  2  0  0  0
  9 10  1  0  0  0
  9 12  1  0  0  0
 10 11  2  0  0  0
 10 25  1  0  0  0
 11 26  1  0  0  0
 12 13  1  0  0  0
 12 27  1  0  0  0
 12 28  1  0  0  0
 13 14  1  0  0  0
 13 29  1  0  0  0
 14 15  1  0  0  0
 14 19  2  0  0  0
 15 16  2  0  0  0
 15 30  1  0  0  0
 16 17  1  0  0  0
 16 31  1  0  0  0
 17 18  2  0  0  0
 17 32  1  0  0  0
 18 19  1  0  0  0
 18 33  1  0  0  0
 19 20  1  0  0  0
 20 21  1  0  0  0
 21 34  1  0  0  0
 21 35  1  0  0  0
 21 36  1  0  0  0
 22 37  1  0  0  0
 22 38  1  0  0  0
M  END
>  <ACTIVITY>
6.37675

>  <set_rl>
2

>  <Min_dist>
0.063291

>  <Avg_dist>
0.459715

>  <PC_uM>
2.7

>  <TG_uM>
0.12

>  <RL_uM>
0.42

$$$$
21-24
  Cerius2 12110214553D 1   1.00000                          
 
 37 39  0  0  0  0  0  0  0  0999 V2000
   -5.0277    0.7640   -0.9244 N   0  0  0  0  0  0
   -5.6442   -0.1648   -0.1997 C   0  0  0  0  0  0
   -5.0070   -1.0299    0.5629 N   0  0  0  0  0  0
   -3.6708   -1.0182    0.6499 C   0  0  0  0  0  0
   -2.9445   -0.0577   -0.0932 C   0  0  0  0  0  0
   -3.7073    0.8770   -0.9225 C   0  0  0  0  0  0
   -3.0734    1.8418   -1.6764 N   0  0  0  0  0  0
   -1.6171   -0.0208   -0.0265 N   0  0  0  0  0  0
   -0.9516   -0.8673    0.7240 C   0  0  0  0  0  0
   -1.6011   -1.8394    1.4817 C   0  0  0  0  0  0
   -2.9649   -1.9282    1.4552 C   0  0  0  0  0  0
    0.5526   -0.7860    0.7668 C   0  0  0  0  0  0
    1.0090    0.3053   -0.1044 N   0  0  0  0  0  0
    2.4038    0.3286   -0.0216 C   0  0  0  0  0  0
    3.1419   -0.7858   -0.3976 C   0  0  0  0  0  0
    4.5215   -0.7592   -0.3149 C   0  0  0  0  0  0
    5.1670    0.3764    0.1425 C   0  0  0  0  0  0
    4.4349    1.4876    0.5176 C   0  0  0  0  0  0
    3.0555    1.4695    0.4319 C   0  0  0  0  0  0
    2.1372    2.8653    0.9032 Cl  0  0  0  0  0  0
    5.4453   -2.1519   -0.7847 Cl  0  0  0  0  0  0
    0.6743   -0.0851   -1.4805 C   0  0  0  0  0  0
   -7.0253   -0.2256   -0.2486 N   0  0  0  0  0  0
   -3.5950    2.4528   -2.2201 H   0  0  0  0  0  0
   -2.1059    1.9097   -1.6630 H   0  0  0  0  0  0
   -1.0271   -2.5228    2.0898 H   0  0  0  0  0  0
   -3.4847   -2.6755    2.0364 H   0  0  0  0  0  0
    0.8771   -0.5943    1.7895 H   0  0  0  0  0  0
    0.9774   -1.7285    0.4214 H   0  0  0  0  0  0
    2.6387   -1.6725   -0.7539 H   0  0  0  0  0  0
    6.2449    0.3945    0.2068 H   0  0  0  0  0  0
    4.9416    2.3721    0.8744 H   0  0  0  0  0  0
    0.9950    0.6973   -2.1683 H   0  0  0  0  0  0
    1.1827   -1.0170   -1.7276 H   0  0  0  0  0  0
   -0.4033   -0.2251   -1.5665 H   0  0  0  0  0  0
   -7.5191    0.3998   -0.8018 H   0  0  0  0  0  0
   -7.5001   -0.8936    0.2704 H   0  0  0  0  0  0
  1  2  1  0  0  0
  1  6  2  0  0  0
  2  3  2  0  0  0
  2 23  1  0  0  0
  3  4  1  0  0  0
  4  5  2  0  0  0
  4 11  1  0  0  0
  5  6  1  0  0  0
  5  8  1  0  0  0
  6  7  1  0  0  0
  7 24  1  0  0  0
  7 25  1  0  0  0
  8  9  2  0  0  0
  9 10  1  0  0  0
  9 12  1  0  0  0
 10 11  2  0  0  0
 10 26  1  0  0  0
 11 27  1  0  0  0
 12 13  1  0  0  0
 12 28  1  0  0  0
 12 29  1  0  0  0
 13 14  1  0  0  0
 13 22  1  0  0  0
 14 15  1  0  0  0
 14 19  2  0  0  0
 15 16  2  0  0  0
 15 30  1  0  0  0
 16 17  1  0  0  0
 16 21  1  0  0  0
 17 18  2  0  0  0
 17 31  1  0  0  0
 18 19  1  0  0  0
 18 32  1  0  0  0
 19 20  1  0  0  0
 22 33  1  0  0  0
 22 34  1  0  0  0
 22 35  1  0  0  0
 23 36  1  0  0  0
 23 37  1  0  0  0
M  END
>  <ACTIVITY>
7.3279

>  <set_rl>
2

>  <Min_dist>
0.055556

>  <Avg_dist>
0.495335

>  <PC_uM>
0.15

>  <TG_uM>
0.025

>  <RL_uM>
0.047

$$$$
21-41
  Cerius2 12110214553D 1   1.00000                          
 
 42 44  0  0  0  0  0  0  0  0999 V2000
   -3.5756   -1.9122    0.8652 N   0  0  0  0  0  0
   -4.4851   -1.6032   -0.0543 C   0  0  0  0  0  0
   -4.3783   -0.5650   -0.8586 N   0  0  0  0  0  0
   -3.3209    0.2538   -0.7899 C   0  0  0  0  0  0
   -2.3106   -0.0109    0.1648 C   0  0  0  0  0  0
   -2.4845   -1.1786    1.0307 C   0  0  0  0  0  0
   -1.5451   -1.5038    1.9861 N   0  0  0  0  0  0
   -1.2485    0.7835    0.2562 N   0  0  0  0  0  0
   -1.1107    1.8253   -0.5302 C   0  0  0  0  0  0
   -2.0659    2.1463   -1.4922 C   0  0  0  0  0  0
   -3.1804    1.3678   -1.6349 C   0  0  0  0  0  0
    0.1110    2.6963   -0.3887 C   0  0  0  0  0  0
    0.9660    2.1686    0.6775 N   0  0  0  0  0  0
    1.9511    1.2358    0.3801 C   0  0  0  0  0  0
    2.7630    0.7353    1.3955 C   0  0  0  0  0  0
    3.7324   -0.1823    1.1075 C   0  0  0  0  0  0
    3.9098   -0.6204   -0.2114 C   0  0  0  0  0  0
    3.0909   -0.1144   -1.2296 C   0  0  0  0  0  0
    2.1205    0.7989   -0.9319 C   0  0  0  0  0  0
    4.9506   -1.6061   -0.5257 C   0  0  0  0  0  0
    5.6589   -2.0427    0.3571 O   0  0  0  0  0  0
    5.1395   -2.0758   -1.9451 C   0  0  0  0  0  0
    0.7820    2.6249    2.0574 C   0  0  0  0  0  0
   -5.6001   -2.4132   -0.1728 N   0  0  0  0  0  0
   -1.6769   -2.2812    2.5510 H   0  0  0  0  0  0
   -0.7524   -0.9551    2.0933 H   0  0  0  0  0  0
   -1.9258    3.0101   -2.1251 H   0  0  0  0  0  0
   -3.9309    1.6019   -2.3755 H   0  0  0  0  0  0
    0.6637    2.7024   -1.3281 H   0  0  0  0  0  0
   -0.1943    3.7127   -0.1401 H   0  0  0  0  0  0
    2.6259    1.0738    2.4118 H   0  0  0  0  0  0
    4.3617   -0.5695    1.8953 H   0  0  0  0  0  0
    3.2246   -0.4492   -2.2476 H   0  0  0  0  0  0
    1.4886    1.1892   -1.7160 H   0  0  0  0  0  0
    5.9523   -2.8011   -1.9826 H   0  0  0  0  0  0
    4.2200   -2.5419   -2.2990 H   0  0  0  0  0  0
    5.3830   -1.2241   -2.5803 H   0  0  0  0  0  0
   -0.0307    3.3503    2.0949 H   0  0  0  0  0  0
    0.5383    1.7731    2.6923 H   0  0  0  0  0  0
    1.7015    3.0909    2.4117 H   0  0  0  0  0  0
   -5.7033   -3.1842    0.4068 H   0  0  0  0  0  0
   -6.2788   -2.2103   -0.8354 H   0  0  0  0  0  0
  1  2  1  0  0  0
  1  6  2  0  0  0
  2  3  2  0  0  0
  2 24  1  0  0  0
  3  4  1  0  0  0
  4  5  2  0  0  0
  4 11  1  0  0  0
  5  6  1  0  0  0
  5  8  1  0  0  0
  6  7  1  0  0  0
  7 25  1  0  0  0
  7 26  1  0  0  0
  8  9  2  0  0  0
  9 10  1  0  0  0
  9 12  1  0  0  0
 10 11  2  0  0  0
 10 27  1  0  0  0
 11 28  1  0  0  0
 12 13  1  0  0  0
 12 29  1  0  0  0
 12 30  1  0  0  0
 13 14  1  0  0  0
 13 23  1  0  0  0
 14 15  1  0  0  0
 14 19  2  0  0  0
 15 16  2  0  0  0
 15 31  1  0  0  0
 16 17  1  0  0  0
 16 32  1  0  0  0
 17 18  2  0  0  0
 17 20  1  0  0  0
 18 19  1  0  0  0
 18 33  1  0  0  0
 19 34  1  0  0  0
 20 21  2  0  0  0
 20 22  1  0  0  0
 22 35  1  0  0  0
 22 36  1  0  0  0
 22 37  1  0  0  0
 23 38  1  0  0  0
 23 39  1  0  0  0
 23 40  1  0  0  0
 24 41  1  0  0  0
 24 42  1  0  0  0
M  END
>  <ACTIVITY>
8.29243

>  <set_rl>
2

>  <Min_dist>
0.068493

>  <Avg_dist>
0.502014

>  <PC_uM>
0.13

>  <TG_uM>
0.015

>  <RL_uM>
0.0051

$$$$
22-5
  Cerius2 12110214553D 1   1.00000                          
 
 34 36  0  0  0  0  0  0  0  0999 V2000
   -3.0065   -2.0885   -0.1596 N   0  0  0  0  0  0
   -4.1215   -1.3890    0.0317 C   0  0  0  0  0  0
   -4.1217   -0.0782    0.1798 N   0  0  0  0  0  0
   -2.9719    0.6091    0.1416 C   0  0  0  0  0  0
   -1.7606   -0.0903   -0.0595 C   0  0  0  0  0  0
   -1.8220   -1.5002   -0.2125 C   0  0  0  0  0  0
   -0.6740   -2.2398   -0.4113 N   0  0  0  0  0  0
   -0.6032    0.5693   -0.1020 N   0  0  0  0  0  0
   -0.5598    1.8793    0.0411 C   0  0  0  0  0  0
   -1.7254    2.6319    0.2435 C   0  0  0  0  0  0
   -2.9367    2.0079    0.2955 C   0  0  0  0  0  0
    0.9969    2.7021   -0.0228 S   0  0  0  0  0  0
    2.0755    1.3108   -0.0983 C   0  0  0  0  0  0
    2.5112    0.8352   -1.3286 C   0  0  0  0  0  0
    3.3564   -0.2552   -1.3867 C   0  0  0  0  0  0
    3.7699   -0.8759   -0.2171 C   0  0  0  0  0  0
    3.3353   -0.4017    1.0120 C   0  0  0  0  0  0
    2.4951    0.6923    1.0726 C   0  0  0  0  0  0
    4.6016   -1.9503   -0.2755 O   0  0  0  0  0  0
    4.8424   -2.3599    1.0722 C   0  0  0  0  0  0
   -5.3298   -2.0632    0.0768 N   0  0  0  0  0  0
   -0.7293   -3.2027   -0.5145 H   0  0  0  0  0  0
    0.1881   -1.7968   -0.4478 H   0  0  0  0  0  0
   -1.6639    3.7040    0.3584 H   0  0  0  0  0  0
   -3.8447    2.5717    0.4507 H   0  0  0  0  0  0
    2.1888    1.3179   -2.2393 H   0  0  0  0  0  0
    3.6953   -0.6251   -2.3431 H   0  0  0  0  0  0
    3.6579   -0.8857    1.9220 H   0  0  0  0  0  0
    2.1568    1.0613    2.0295 H   0  0  0  0  0  0
    5.5079   -3.2232    1.0762 H   0  0  0  0  0  0
    5.3057   -1.5415    1.6234 H   0  0  0  0  0  0
    3.8974   -2.6273    1.5451 H   0  0  0  0  0  0
   -5.3516   -3.0271   -0.0302 H   0  0  0  0  0  0
   -6.1545   -1.5718    0.2154 H   0  0  0  0  0  0
  1  2  1  0  0  0
  1  6  2  0  0  0
  2  3  2  0  0  0
  2 21  1  0  0  0
  3  4  1  0  0  0
  4  5  2  0  0  0
  4 11  1  0  0  0
  5  6  1  0  0  0
  5  8  1  0  0  0
  6  7  1  0  0  0
  7 22  1  0  0  0
  7 23  1  0  0  0
  8  9  2  0  0  0
  9 10  1  0  0  0
  9 12  1  0  0  0
 10 11  2  0  0  0
 10 24  1  0  0  0
 11 25  1  0  0  0
 12 13  1  0  0  0
 13 14  1  0  0  0
 13 18  2  0  0  0
 14 15  2  0  0  0
 14 26  1  0  0  0
 15 16  1  0  0  0
 15 27  1  0  0  0
 16 17  2  0  0  0
 16 19  1  0  0  0
 17 18  1  0  0  0
 17 28  1  0  0  0
 18 29  1  0  0  0
 19 20  1  0  0  0
 20 30  1  0  0  0
 20 31  1  0  0  0
 20 32  1  0  0  0
 21 33  1  0  0  0
 21 34  1  0  0  0
M  END
>  <ACTIVITY>
7.12494

>  <set_rl>
2

>  <Min_dist>
0.136364

>  <Avg_dist>
0.576267

>  <PC_uM>
0.7

>  <TG_uM>
0.045

>  <RL_uM>
0.075

$$$$
22-9
  Cerius2 12110214553D 1   1.00000                          
 
 40 42  0  0  0  0  0  0  0  0999 V2000
   -4.6033    1.5663    0.0577 N   0  0  0  0  0  0
   -5.0092    0.7781    1.0486 C   0  0  0  0  0  0
   -4.3418   -0.2854    1.4481 N   0  0  0  0  0  0
   -3.1903   -0.6366    0.8617 C   0  0  0  0  0  0
   -2.6940    0.1545   -0.2014 C   0  0  0  0  0  0
   -3.4792    1.3238   -0.6009 C   0  0  0  0  0  0
   -3.0635    2.1445   -1.6279 N   0  0  0  0  0  0
   -1.5529   -0.1683   -0.8026 N   0  0  0  0  0  0
   -0.8630   -1.2205   -0.4287 C   0  0  0  0  0  0
   -1.2917   -2.0443    0.6097 C   0  0  0  0  0  0
   -2.4572   -1.7649    1.2670 C   0  0  0  0  0  0
    0.6426   -1.6007   -1.2614 S   0  0  0  0  0  0
    0.8651   -2.9870   -1.0428 O   0  0  0  0  0  0
    0.5498   -0.9730   -2.5328 O   0  0  0  0  0  0
    1.9405   -0.7673   -0.4097 C   0  0  0  0  0  0
    2.5983   -1.3968    0.6308 C   0  0  0  0  0  0
    3.6173   -0.7472    1.3021 C   0  0  0  0  0  0
    3.9815    0.5377    0.9327 C   0  0  0  0  0  0
    3.3195    1.1712   -0.1145 C   0  0  0  0  0  0
    2.3027    0.5123   -0.7870 C   0  0  0  0  0  0
    3.6729    2.4324   -0.4805 O   0  0  0  0  0  0
    2.8223    2.8006   -1.5681 C   0  0  0  0  0  0
    4.9834    1.1783    1.5924 O   0  0  0  0  0  0
    5.4558    0.2801    2.5985 C   0  0  0  0  0  0
   -6.1925    1.0908    1.6933 N   0  0  0  0  0  0
   -3.5966    2.9150   -1.8791 H   0  0  0  0  0  0
   -2.2380    1.9514   -2.0992 H   0  0  0  0  0  0
   -0.7032   -2.9037    0.8953 H   0  0  0  0  0  0
   -2.8044   -2.3927    2.0743 H   0  0  0  0  0  0
    2.3151   -2.3981    0.9199 H   0  0  0  0  0  0
    4.1293   -1.2410    2.1148 H   0  0  0  0  0  0
    1.7876    1.0017   -1.6003 H   0  0  0  0  0  0
    3.0697    3.8098   -1.8974 H   0  0  0  0  0  0
    2.9659    2.1036   -2.3938 H   0  0  0  0  0  0
    1.7825    2.7692   -1.2429 H   0  0  0  0  0  0
    6.2643    0.7524    3.1566 H   0  0  0  0  0  0
    4.6400    0.0346    3.2784 H   0  0  0  0  0  0
    5.8236   -0.6317    2.1279 H   0  0  0  0  0  0
   -6.7033    1.8685    1.4192 H   0  0  0  0  0  0
   -6.5114    0.5323    2.4194 H   0  0  0  0  0  0
  1  2  1  0  0  0
  1  6  2  0  0  0
  2  3  2  0  0  0
  2 25  1  0  0  0
  3  4  1  0  0  0
  4  5  2  0  0  0
  4 11  1  0  0  0
  5  6  1  0  0  0
  5  8  1  0  0  0
  6  7  1  0  0  0
  7 26  1  0  0  0
  7 27  1  0  0  0
  8  9  2  0  0  0
  9 10  1  0  0  0
  9 12  1  0  0  0
 10 11  2  0  0  0
 10 28  1  0  0  0
 11 29  1  0  0  0
 12 13  2  0  0  0
 12 14  2  0  0  0
 12 15  1  0  0  0
 15 16  1  0  0  0
 15 20  2  0  0  0
 16 17  2  0  0  0
 16 30  1  0  0  0
 17 18  1  0  0  0
 17 31  1  0  0  0
 18 19  2  0  0  0
 18 23  1  0  0  0
 19 20  1  0  0  0
 19 21  1  0  0  0
 20 32  1  0  0  0
 21 22  1  0  0  0
 22 33  1  0  0  0
 22 34  1  0  0  0
 22 35  1  0  0  0
 23 24  1  0  0  0
 24 36  1  0  0  0
 24 37  1  0  0  0
 24 38  1  0  0  0
 25 39  1  0  0  0
 25 40  1  0  0  0
M  END
>  <ACTIVITY>
6.05552

>  <set_rl>
2

>  <Min_dist>
0.141026

>  <Avg_dist>
0.595209

>  <PC_uM>
2.7

>  <TG_uM>
0.94

>  <RL_uM>
0.88

$$$$
22-19
  Cerius2 12110214553D 1   1.00000                          
 
 38 40  0  0  0  0  0  0  0  0999 V2000
   -4.1217   -1.0572    0.9389 N   0  0  0  0  0  0
   -4.5704   -0.8748   -0.2999 C   0  0  0  0  0  0
   -3.8769   -0.2322   -1.2198 N   0  0  0  0  0  0
   -2.6685    0.2702   -0.9307 C   0  0  0  0  0  0
   -2.1490    0.1017    0.3725 C   0  0  0  0  0  0
   -2.9403   -0.5983    1.3206 C   0  0  0  0  0  0
   -2.4888   -0.7953    2.6096 N   0  0  0  0  0  0
   -0.9495    0.5913    0.6860 N   0  0  0  0  0  0
   -0.2245    1.2391   -0.2037 C   0  0  0  0  0  0
   -0.6819    1.4403   -1.5134 C   0  0  0  0  0  0
   -1.9021    0.9605   -1.8884 C   0  0  0  0  0  0
    1.0209    1.7339    0.1649 N   0  0  0  0  0  0
    2.1479    0.9055    0.1084 C   0  0  0  0  0  0
    3.3713    1.3636    0.5797 C   0  0  0  0  0  0
    4.4824    0.5455    0.5241 C   0  0  0  0  0  0
    4.3769   -0.7335   -0.0023 C   0  0  0  0  0  0
    3.1553   -1.1919   -0.4732 C   0  0  0  0  0  0
    2.0420   -0.3771   -0.4136 C   0  0  0  0  0  0
    5.4717   -1.5383   -0.0571 O   0  0  0  0  0  0
    5.0486   -2.7719   -0.6413 C   0  0  0  0  0  0
    1.1542    3.1225    0.6124 C   0  0  0  0  0  0
   -5.8144   -1.3796   -0.6373 N   0  0  0  0  0  0
   -3.0390   -1.2753    3.2482 H   0  0  0  0  0  0
   -1.6213   -0.4537    2.8772 H   0  0  0  0  0  0
   -0.0691    1.9748   -2.2242 H   0  0  0  0  0  0
   -2.2703    1.1060   -2.8932 H   0  0  0  0  0  0
    3.4537    2.3595    0.9892 H   0  0  0  0  0  0
    5.4340    0.9018    0.8902 H   0  0  0  0  0  0
    3.0741   -2.1878   -0.8833 H   0  0  0  0  0  0
    1.0910   -0.7341   -0.7803 H   0  0  0  0  0  0
    5.8971   -3.4530   -0.7062 H   0  0  0  0  0  0
    4.2705   -3.2189   -0.0226 H   0  0  0  0  0  0
    4.6556   -2.5848   -1.6406 H   0  0  0  0  0  0
    0.1674    3.5820    0.6700 H   0  0  0  0  0  0
    1.6229    3.1437    1.5963 H   0  0  0  0  0  0
    1.7714    3.6749   -0.0961 H   0  0  0  0  0  0
   -6.3404   -1.8555    0.0243 H   0  0  0  0  0  0
   -6.1601   -1.2574   -1.5354 H   0  0  0  0  0  0
  1  2  1  0  0  0
  1  6  2  0  0  0
  2  3  2  0  0  0
  2 22  1  0  0  0
  3  4  1  0  0  0
  4  5  2  0  0  0
  4 11  1  0  0  0
  5  6  1  0  0  0
  5  8  1  0  0  0
  6  7  1  0  0  0
  7 23  1  0  0  0
  7 24  1  0  0  0
  8  9  2  0  0  0
  9 10  1  0  0  0
  9 12  1  0  0  0
 10 11  2  0  0  0
 10 25  1  0  0  0
 11 26  1  0  0  0
 12 13  1  0  0  0
 12 21  1  0  0  0
 13 14  1  0  0  0
 13 18  2  0  0  0
 14 15  2  0  0  0
 14 27  1  0  0  0
 15 16  1  0  0  0
 15 28  1  0  0  0
 16 17  2  0  0  0
 16 19  1  0  0  0
 17 18  1  0  0  0
 17 29  1  0  0  0
 18 30  1  0  0  0
 19 20  1  0  0  0
 20 31  1  0  0  0
 20 32  1  0  0  0
 20 33  1  0  0  0
 21 34  1  0  0  0
 21 35  1  0  0  0
 21 36  1  0  0  0
 22 37  1  0  0  0
 22 38  1  0  0  0
M  END
>  <ACTIVITY>
8.16749

>  <set_rl>
2

>  <Min_dist>
0.095238

>  <Avg_dist>
0.544002

>  <PC_uM>
0.22

>  <TG_uM>
0.0086

>  <RL_uM>
0.0068

$$$$
22-20
  Cerius2 12110214553D 1   1.00000                          
 
 42 44  0  0  0  0  0  0  0  0999 V2000
   -5.0315    0.0963   -0.2553 N   0  0  0  0  0  0
   -4.9549   -0.9384    0.5771 C   0  0  0  0  0  0
   -3.8048   -1.4505    0.9707 N   0  0  0  0  0  0
   -2.6475   -0.9339    0.5348 C   0  0  0  0  0  0
   -2.6775    0.1661   -0.3516 C   0  0  0  0  0  0
   -3.9444    0.6751   -0.7401 C   0  0  0  0  0  0
   -4.0403    1.7473   -1.6035 N   0  0  0  0  0  0
   -1.5409    0.6990   -0.7996 N   0  0  0  0  0  0
   -0.3709    0.2176   -0.4305 C   0  0  0  0  0  0
   -0.2718   -0.8721    0.4458 C   0  0  0  0  0  0
   -1.4031   -1.4556    0.9352 C   0  0  0  0  0  0
    0.7902    0.8028   -0.9212 N   0  0  0  0  0  0
    2.0375    0.4076   -0.4235 C   0  0  0  0  0  0
    2.7261   -0.6365   -1.0236 C   0  0  0  0  0  0
    3.9611   -1.0256   -0.5284 C   0  0  0  0  0  0
    4.5078   -0.3721    0.5662 C   0  0  0  0  0  0
    3.8235    0.6689    1.1660 C   0  0  0  0  0  0
    2.5922    1.0659    0.6717 C   0  0  0  0  0  0
    1.9195    2.0905    1.2627 O   0  0  0  0  0  0
    2.7292    2.5438    2.3494 C   0  0  0  0  0  0
    4.6368   -2.0489   -1.1159 O   0  0  0  0  0  0
    5.8569   -2.2092   -0.3893 C   0  0  0  0  0  0
    0.7088    1.8333   -1.9594 C   0  0  0  0  0  0
   -6.1288   -1.4998    1.0494 N   0  0  0  0  0  0
   -4.9119    2.0859   -1.8614 H   0  0  0  0  0  0
   -3.2361    2.1625   -1.9525 H   0  0  0  0  0  0
    0.6988   -1.2489    0.7328 H   0  0  0  0  0  0
   -1.3457   -2.2957    1.6116 H   0  0  0  0  0  0
    2.3004   -1.1460   -1.8754 H   0  0  0  0  0  0
    5.4698   -0.6772    0.9509 H   0  0  0  0  0  0
    4.2515    1.1756    2.0183 H   0  0  0  0  0  0
    2.2285    3.3689    2.8560 H   0  0  0  0  0  0
    2.8841    1.7259    3.0530 H   0  0  0  0  0  0
    3.6925    2.8825    1.9682 H   0  0  0  0  0  0
    6.4356   -3.0230   -0.8261 H   0  0  0  0  0  0
    6.4336   -1.2856   -0.4393 H   0  0  0  0  0  0
    5.6320   -2.4412    0.6517 H   0  0  0  0  0  0
   -0.3368    2.0745   -2.1507 H   0  0  0  0  0  0
    1.2328    2.7285   -1.6246 H   0  0  0  0  0  0
    1.1699    1.4636   -2.8752 H   0  0  0  0  0  0
   -6.9852   -1.1381    0.7725 H   0  0  0  0  0  0
   -6.0950   -2.2550    1.6573 H   0  0  0  0  0  0
  1  2  1  0  0  0
  1  6  2  0  0  0
  2  3  2  0  0  0
  2 24  1  0  0  0
  3  4  1  0  0  0
  4  5  2  0  0  0
  4 11  1  0  0  0
  5  6  1  0  0  0
  5  8  1  0  0  0
  6  7  1  0  0  0
  7 25  1  0  0  0
  7 26  1  0  0  0
  8  9  2  0  0  0
  9 10  1  0  0  0
  9 12  1  0  0  0
 10 11  2  0  0  0
 10 27  1  0  0  0
 11 28  1  0  0  0
 12 13  1  0  0  0
 12 23  1  0  0  0
 13 14  1  0  0  0
 13 18  2  0  0  0
 14 15  2  0  0  0
 14 29  1  0  0  0
 15 16  1  0  0  0
 15 21  1  0  0  0
 16 17  2  0  0  0
 16 30  1  0  0  0
 17 18  1  0  0  0
 17 31  1  0  0  0
 18 19  1  0  0  0
 19 20  1  0  0  0
 20 32  1  0  0  0
 20 33  1  0  0  0
 20 34  1  0  0  0
 21 22  1  0  0  0
 22 35  1  0  0  0
 22 36  1  0  0  0
 22 37  1  0  0  0
 23 38  1  0  0  0
 23 39  1  0  0  0
 23 40  1  0  0  0
 24 41  1  0  0  0
 24 42  1  0  0  0
M  END
>  <ACTIVITY>
8.37675

>  <set_rl>
2

>  <Min_dist>
0.076923

>  <Avg_dist>
0.559291

>  <PC_uM>
0.034

>  <TG_uM>
0.041

>  <RL_uM>
0.0042

$$$$
21-20
  Cerius2 12110214553D 1   1.00000                          
 
 45 47  0  0  0  0  0  0  0  0999 V2000
   -3.7389   -1.9606    0.6539 N   0  0  0  0  0  0
   -4.7180   -1.4609   -0.0942 C   0  0  0  0  0  0
   -4.6431   -0.2932   -0.6999 N   0  0  0  0  0  0
   -3.5486    0.4707   -0.5905 C   0  0  0  0  0  0
   -2.4639    0.0053    0.1899 C   0  0  0  0  0  0
   -2.6053   -1.2995    0.8388 C   0  0  0  0  0  0
   -1.5938   -1.8224    1.6160 N   0  0  0  0  0  0
   -1.3636    0.7409    0.3166 N   0  0  0  0  0  0
   -1.2560    1.9080   -0.2742 C   0  0  0  0  0  0
   -2.2841    2.4285   -1.0570 C   0  0  0  0  0  0
   -3.4407    1.7197   -1.2254 C   0  0  0  0  0  0
    0.0111    2.7052   -0.1009 C   0  0  0  0  0  0
    0.9405    1.9647    0.7560 N   0  0  0  0  0  0
    1.8567    1.0728    0.1877 C   0  0  0  0  0  0
    1.8850    0.8895   -1.1885 C   0  0  0  0  0  0
    2.7890    0.0085   -1.7514 C   0  0  0  0  0  0
    3.6688   -0.6936   -0.9438 C   0  0  0  0  0  0
    3.6431   -0.5122    0.4355 C   0  0  0  0  0  0
    2.7412    0.3753    0.9991 C   0  0  0  0  0  0
    4.5058   -1.2018    1.2289 O   0  0  0  0  0  0
    4.2368   -0.8042    2.5749 C   0  0  0  0  0  0
    4.5581   -1.5611   -1.4995 O   0  0  0  0  0  0
    4.3408   -1.5272   -2.9115 C   0  0  0  0  0  0
    0.9107    2.1580    2.2079 C   0  0  0  0  0  0
   -5.8741   -2.2053   -0.2447 N   0  0  0  0  0  0
   -1.7050   -2.6886    2.0383 H   0  0  0  0  0  0
   -0.7708   -1.3242    1.7405 H   0  0  0  0  0  0
   -2.1674    3.3921   -1.5308 H   0  0  0  0  0  0
   -4.2478    2.1080   -1.8290 H   0  0  0  0  0  0
    0.4705    2.8735   -1.0749 H   0  0  0  0  0  0
   -0.2233    3.6642    0.3610 H   0  0  0  0  0  0
    1.1996    1.4357   -1.8197 H   0  0  0  0  0  0
    2.8093   -0.1330   -2.8218 H   0  0  0  0  0  0
    2.7197    0.5175    2.0695 H   0  0  0  0  0  0
    4.9078   -1.3337    3.2512 H   0  0  0  0  0  0
    4.3936    0.2699    2.6747 H   0  0  0  0  0  0
    3.2038   -1.0454    2.8254 H   0  0  0  0  0  0
    5.0342   -2.2102   -3.4023 H   0  0  0  0  0  0
    3.3168   -1.8307   -3.1289 H   0  0  0  0  0  0
    4.5058   -0.5149   -3.2803 H   0  0  0  0  0  0
    0.1384    2.8841    2.4619 H   0  0  0  0  0  0
    0.6916    1.2086    2.6964 H   0  0  0  0  0  0
    1.8798    2.5253    2.5455 H   0  0  0  0  0  0
   -5.9552   -3.0686    0.1902 H   0  0  0  0  0  0
   -6.6038   -1.8641   -0.7852 H   0  0  0  0  0  0
  1  2  1  0  0  0
  1  6  2  0  0  0
  2  3  2  0  0  0
  2 25  1  0  0  0
  3  4  1  0  0  0
  4  5  2  0  0  0
  4 11  1  0  0  0
  5  6  1  0  0  0
  5  8  1  0  0  0
  6  7  1  0  0  0
  7 26  1  0  0  0
  7 27  1  0  0  0
  8  9  2  0  0  0
  9 10  1  0  0  0
  9 12  1  0  0  0
 10 11  2  0  0  0
 10 28  1  0  0  0
 11 29  1  0  0  0
 12 13  1  0  0  0
 12 30  1  0  0  0
 12 31  1  0  0  0
 13 14  1  0  0  0
 13 24  1  0  0  0
 14 15  1  0  0  0
 14 19  2  0  0  0
 15 16  2  0  0  0
 15 32  1  0  0  0
 16 17  1  0  0  0
 16 33  1  0  0  0
 17 18  2  0  0  0
 17 22  1  0  0  0
 18 19  1  0  0  0
 18 20  1  0  0  0
 19 34  1  0  0  0
 20 21  1  0  0  0
 21 35  1  0  0  0
 21 36  1  0  0  0
 21 37  1  0  0  0
 22 23  1  0  0  0
 23 38  1  0  0  0
 23 39  1  0  0  0
 23 40  1  0  0  0
 24 41  1  0  0  0
 24 42  1  0  0  0
 24 43  1  0  0  0
 25 44  1  0  0  0
 25 45  1  0  0  0
M  END
>  <ACTIVITY>
8.56864

>  <set_rl>
2

>  <Min_dist>
0.073171

>  <Avg_dist>
0.466051

>  <PC_uM>
0.091

>  <TG_uM>
0.0098

>  <RL_uM>
0.0027

$$$$
22-17
  Cerius2 12110214553D 1   1.00000                          
 
 37 40  0  0  0  0  0  0  0  0999 V2000
   -3.8528   -1.7953    0.2360 N   0  0  0  0  0  0
   -4.8324   -0.8969    0.1859 C   0  0  0  0  0  0
   -4.6047    0.3977    0.0749 N   0  0  0  0  0  0
   -3.3495    0.8625    0.0077 C   0  0  0  0  0  0
   -2.2748   -0.0536    0.0575 C   0  0  0  0  0  0
   -2.5806   -1.4346    0.1769 C   0  0  0  0  0  0
   -1.5756   -2.3786    0.2305 N   0  0  0  0  0  0
   -1.0170    0.3824   -0.0078 N   0  0  0  0  0  0
   -0.7464    1.6673   -0.1195 C   0  0  0  0  0  0
   -1.7661    2.6275   -0.1741 C   0  0  0  0  0  0
   -3.0714    2.2370   -0.1114 C   0  0  0  0  0  0
    0.5796    2.0796   -0.1840 N   0  0  0  0  0  0
    1.6032    1.1316   -0.2545 C   0  0  0  0  0  0
    1.3872   -0.0720   -0.9369 C   0  0  0  0  0  0
    2.3651   -1.0120   -1.0213 C   0  0  0  0  0  0
    3.6138   -0.7807   -0.4179 C   0  0  0  0  0  0
    3.8413    0.4348    0.2750 C   0  0  0  0  0  0
    2.8166    1.3926    0.3432 C   0  0  0  0  0  0
    5.0913    0.6616    0.8773 C   0  0  0  0  0  0
    6.0639   -0.2860    0.7877 C   0  0  0  0  0  0
    5.8404   -1.4809    0.1060 C   0  0  0  0  0  0
    4.6429   -1.7351   -0.4888 C   0  0  0  0  0  0
   -6.1428   -1.3380    0.2524 N   0  0  0  0  0  0
   -1.7976   -3.3194    0.3122 H   0  0  0  0  0  0
   -0.6470   -2.1015    0.1866 H   0  0  0  0  0  0
   -1.5187    3.6748   -0.2654 H   0  0  0  0  0  0
   -3.8700    2.9630   -0.1521 H   0  0  0  0  0  0
    0.7941    3.0256   -0.1800 H   0  0  0  0  0  0
    0.4302   -0.2560   -1.4023 H   0  0  0  0  0  0
    2.1832   -1.9355   -1.5509 H   0  0  0  0  0  0
    2.9758    2.3234    0.8674 H   0  0  0  0  0  0
    5.2787    1.5833    1.4082 H   0  0  0  0  0  0
    7.0232   -0.1093    1.2512 H   0  0  0  0  0  0
    6.6292   -2.2164    0.0492 H   0  0  0  0  0  0
    4.4846   -2.6655   -1.0139 H   0  0  0  0  0  0
   -6.3320   -2.2859    0.3339 H   0  0  0  0  0  0
   -6.8720   -0.6992    0.2175 H   0  0  0  0  0  0
  1  2  1  0  0  0
  1  6  2  0  0  0
  2  3  2  0  0  0
  2 23  1  0  0  0
  3  4  1  0  0  0
  4  5  2  0  0  0
  4 11  1  0  0  0
  5  6  1  0  0  0
  5  8  1  0  0  0
  6  7  1  0  0  0
  7 24  1  0  0  0
  7 25  1  0  0  0
  8  9  2  0  0  0
  9 10  1  0  0  0
  9 12  1  0  0  0
 10 11  2  0  0  0
 10 26  1  0  0  0
 11 27  1  0  0  0
 12 13  1  0  0  0
 12 28  1  0  0  0
 13 14  1  0  0  0
 13 18  2  0  0  0
 14 15  2  0  0  0
 14 29  1  0  0  0
 15 16  1  0  0  0
 15 30  1  0  0  0
 16 17  2  0  0  0
 16 22  1  0  0  0
 17 18  1  0  0  0
 17 19  1  0  0  0
 18 31  1  0  0  0
 19 20  2  0  0  0
 19 32  1  0  0  0
 20 21  1  0  0  0
 20 33  1  0  0  0
 21 22  2  0  0  0
 21 34  1  0  0  0
 22 35  1  0  0  0
 23 36  1  0  0  0
 23 37  1  0  0  0
M  END
>  <ACTIVITY>
5.69897

>  <set_rl>
2

>  <Min_dist>
0.037736

>  <Avg_dist>
0.54722

>  <PC_uM>
15

>  <TG_uM>
1.1

>  <RL_uM>
2

$$$$
22-21
  Cerius2 12110214553D 1   1.00000                          
 
 42 44  0  0  0  0  0  0  0  0999 V2000
   -4.6634   -0.7047    1.1789 N   0  0  0  0  0  0
   -5.1572   -0.6888   -0.0561 C   0  0  0  0  0  0
   -4.4652   -0.2572   -1.0928 N   0  0  0  0  0  0
   -3.2122    0.1908   -0.9333 C   0  0  0  0  0  0
   -2.6439    0.1939    0.3605 C   0  0  0  0  0  0
   -3.4358   -0.2826    1.4379 C   0  0  0  0  0  0
   -2.9381   -0.3046    2.7247 N   0  0  0  0  0  0
   -1.3995    0.6338    0.5465 N   0  0  0  0  0  0
   -0.6743    1.0729   -0.4625 C   0  0  0  0  0  0
   -1.1787    1.0962   -1.7702 C   0  0  0  0  0  0
   -2.4461    0.6577   -2.0177 C   0  0  0  0  0  0
    0.6189    1.5233   -0.2247 N   0  0  0  0  0  0
    1.6810    0.6125   -0.1853 C   0  0  0  0  0  0
    1.4614   -0.7240   -0.4921 C   0  0  0  0  0  0
    2.5091   -1.6243   -0.4541 C   0  0  0  0  0  0
    3.7807   -1.1956   -0.1094 C   0  0  0  0  0  0
    4.0040    0.1427    0.1990 C   0  0  0  0  0  0
    2.9553    1.0464    0.1550 C   0  0  0  0  0  0
    5.2518    0.5641    0.5378 O   0  0  0  0  0  0
    5.1587    1.9669    0.7939 C   0  0  0  0  0  0
    4.8112   -2.0836   -0.0721 O   0  0  0  0  0  0
    4.2723   -3.3572   -0.4321 C   0  0  0  0  0  0
    0.8703    2.9513   -0.0152 C   0  0  0  0  0  0
   -6.4483   -1.1437   -0.2615 N   0  0  0  0  0  0
   -3.4892   -0.6326    3.4524 H   0  0  0  0  0  0
   -2.0370    0.0081    2.9016 H   0  0  0  0  0  0
   -0.5647    1.4612   -2.5803 H   0  0  0  0  0  0
   -2.8510    0.6684   -3.0189 H   0  0  0  0  0  0
    0.4707   -1.0602   -0.7603 H   0  0  0  0  0  0
    2.3364   -2.6633   -0.6931 H   0  0  0  0  0  0
    3.1266    2.0855    0.3940 H   0  0  0  0  0  0
    6.1402    2.3516    1.0709 H   0  0  0  0  0  0
    4.8081    2.4775   -0.1030 H   0  0  0  0  0  0
    4.4566    2.1415    1.6093 H   0  0  0  0  0  0
    5.0652   -4.1049   -0.4160 H   0  0  0  0  0  0
    3.4947   -3.6367    0.2788 H   0  0  0  0  0  0
    3.8459   -3.3013   -1.4336 H   0  0  0  0  0  0
   -0.0780    3.4885    0.0019 H   0  0  0  0  0  0
    1.3858    3.0940    0.9345 H   0  0  0  0  0  0
    1.4900    3.3339   -0.8262 H   0  0  0  0  0  0
   -6.9741   -1.4656    0.4874 H   0  0  0  0  0  0
   -6.8273   -1.1405   -1.1544 H   0  0  0  0  0  0
  1  2  1  0  0  0
  1  6  2  0  0  0
  2  3  2  0  0  0
  2 24  1  0  0  0
  3  4  1  0  0  0
  4  5  2  0  0  0
  4 11  1  0  0  0
  5  6  1  0  0  0
  5  8  1  0  0  0
  6  7  1  0  0  0
  7 25  1  0  0  0
  7 26  1  0  0  0
  8  9  2  0  0  0
  9 10  1  0  0  0
  9 12  1  0  0  0
 10 11  2  0  0  0
 10 27  1  0  0  0
 11 28  1  0  0  0
 12 13  1  0  0  0
 12 23  1  0  0  0
 13 14  1  0  0  0
 13 18  2  0  0  0
 14 15  2  0  0  0
 14 29  1  0  0  0
 15 16  1  0  0  0
 15 30  1  0  0  0
 16 17  2  0  0  0
 16 21  1  0  0  0
 17 18  1  0  0  0
 17 19  1  0  0  0
 18 31  1  0  0  0
 19 20  1  0  0  0
 20 32  1  0  0  0
 20 33  1  0  0  0
 20 34  1  0  0  0
 21 22  1  0  0  0
 22 35  1  0  0  0
 22 36  1  0  0  0
 22 37  1  0  0  0
 23 38  1  0  0  0
 23 39  1  0  0  0
 23 40  1  0  0  0
 24 41  1  0  0  0
 24 42  1  0  0  0
M  END
>  <ACTIVITY>
9.39794

>  <set_rl>
2

>  <Min_dist>
0.027027

>  <Avg_dist>
0.538403

>  <PC_uM>
0.0023

>  <TG_uM>
0.00088

>  <RL_uM>
0.0004

$$$$
22-25
  Cerius2 12110214553D 1   1.00000                          
 
 46 48  0  0  0  0  0  0  0  0999 V2000
   -6.0200    0.0016   -1.1831 N   0  0  0  0  0  0
   -6.4468   -0.0003    0.0767 C   0  0  0  0  0  0
   -5.6225   -0.0019    1.1064 N   0  0  0  0  0  0
   -4.2961   -0.0017    0.9138 C   0  0  0  0  0  0
   -3.7945    0.0002   -0.4071 C   0  0  0  0  0  0
   -4.7291    0.0019   -1.4755 C   0  0  0  0  0  0
   -4.3020    0.0034   -2.7877 N   0  0  0  0  0  0
   -2.4796    0.0009   -0.6264 N   0  0  0  0  0  0
   -1.6223   -0.0002    0.3742 C   0  0  0  0  0  0
   -2.0544   -0.0022    1.7077 C   0  0  0  0  0  0
   -3.3888   -0.0029    1.9897 C   0  0  0  0  0  0
   -0.2599    0.0000    0.1015 N   0  0  0  0  0  0
    0.7073   -0.0012    1.2018 C   0  0  0  0  0  0
    2.1061   -0.0006    0.6411 C   0  0  0  0  0  0
    2.7459    1.1978    0.3859 C   0  0  0  0  0  0
    4.0328    1.2027   -0.1305 C   0  0  0  0  0  0
    4.6795    0.0004   -0.3911 C   0  0  0  0  0  0
    4.0329   -1.2023   -0.1327 C   0  0  0  0  0  0
    2.7479   -1.1985    0.3886 C   0  0  0  0  0  0
    4.6613   -2.3814   -0.3864 O   0  0  0  0  0  0
    3.7513   -3.4212   -0.0221 C   0  0  0  0  0  0
    5.9424    0.0010   -0.8983 O   0  0  0  0  0  0
    6.8355    0.0002    0.2172 C   0  0  0  0  0  0
    4.6611    2.3823   -0.3820 O   0  0  0  0  0  0
    3.7508    3.4213   -0.0162 C   0  0  0  0  0  0
   -7.8102    0.0000    0.3167 N   0  0  0  0  0  0
   -4.9507    0.0045   -3.5088 H   0  0  0  0  0  0
   -3.3531    0.0033   -2.9889 H   0  0  0  0  0  0
   -1.3320   -0.0031    2.5105 H   0  0  0  0  0  0
   -3.7397   -0.0047    3.0110 H   0  0  0  0  0  0
    0.0508    0.0010   -0.8174 H   0  0  0  0  0  0
    0.5613    0.8881    1.8150 H   0  0  0  0  0  0
    0.5612   -0.8919    1.8130 H   0  0  0  0  0  0
    2.2427    2.1316    0.5887 H   0  0  0  0  0  0
    2.2449   -2.1328    0.5900 H   0  0  0  0  0  0
    4.2135   -4.3905   -0.2088 H   0  0  0  0  0  0
    3.5048   -3.3340    1.0361 H   0  0  0  0  0  0
    2.8414   -3.3322   -0.6156 H   0  0  0  0  0  0
    7.8648    0.0006   -0.1415 H   0  0  0  0  0  0
    6.6614    0.8897    0.8226 H   0  0  0  0  0  0
    6.6616   -0.8902    0.8213 H   0  0  0  0  0  0
    4.2129    4.3910   -0.2012 H   0  0  0  0  0  0
    2.8411    3.3332   -0.6102 H   0  0  0  0  0  0
    3.5040    3.3323    1.0417 H   0  0  0  0  0  0
   -8.4335    0.0014   -0.4266 H   0  0  0  0  0  0
   -8.1422   -0.0014    1.2281 H   0  0  0  0  0  0
  1  2  1  0  0  0
  1  6  2  0  0  0
  2  3  2  0  0  0
  2 26  1  0  0  0
  3  4  1  0  0  0
  4  5  2  0  0  0
  4 11  1  0  0  0
  5  6  1  0  0  0
  5  8  1  0  0  0
  6  7  1  0  0  0
  7 27  1  0  0  0
  7 28  1  0  0  0
  8  9  2  0  0  0
  9 10  1  0  0  0
  9 12  1  0  0  0
 10 11  2  0  0  0
 10 29  1  0  0  0
 11 30  1  0  0  0
 12 13  1  0  0  0
 12 31  1  0  0  0
 13 14  1  0  0  0
 13 32  1  0  0  0
 13 33  1  0  0  0
 14 15  1  0  0  0
 14 19  2  0  0  0
 15 16  2  0  0  0
 15 34  1  0  0  0
 16 17  1  0  0  0
 16 24  1  0  0  0
 17 18  2  0  0  0
 17 22  1  0  0  0
 18 19  1  0  0  0
 18 20  1  0  0  0
 19 35  1  0  0  0
 20 21  1  0  0  0
 21 36  1  0  0  0
 21 37  1  0  0  0
 21 38  1  0  0  0
 22 23  1  0  0  0
 23 39  1  0  0  0
 23 40  1  0  0  0
 23 41  1  0  0  0
 24 25  1  0  0  0
 25 42  1  0  0  0
 25 43  1  0  0  0
 25 44  1  0  0  0
 26 45  1  0  0  0
 26 46  1  0  0  0
M  END
>  <ACTIVITY>
5.85387

>  <set_rl>
2

>  <Min_dist>
0.144578

>  <Avg_dist>
0.476948

>  <PC_uM>
29.4

>  <TG_uM>
0.49

>  <RL_uM>
1.4

$$$$
21-36
  Cerius2 12110214553D 1   1.00000                          
 
 40 43  0  0  0  0  0  0  0  0999 V2000
   -4.3612    1.7335    0.0009 N   0  0  0  0  0  0
   -5.2730    0.7658    0.0008 C   0  0  0  0  0  0
   -4.9688   -0.5162    0.0001 N   0  0  0  0  0  0
   -3.6924   -0.9214   -0.0006 C   0  0  0  0  0  0
   -2.6650    0.0516   -0.0006 C   0  0  0  0  0  0
   -3.0645    1.4601    0.0002 C   0  0  0  0  0  0
   -2.1235    2.4678   -0.0001 N   0  0  0  0  0  0
   -1.3885   -0.3200   -0.0003 N   0  0  0  0  0  0
   -1.0510   -1.5884   -0.0001 C   0  0  0  0  0  0
   -2.0092   -2.5997   -0.0005 C   0  0  0  0  0  0
   -3.3386   -2.2814   -0.0009 C   0  0  0  0  0  0
    0.4095   -1.9601    0.0002 C   0  0  0  0  0  0
    1.2234   -0.7420    0.0002 N   0  0  0  0  0  0
    2.6136   -0.8331    0.0004 C   0  0  0  0  0  0
    3.2300   -2.0665    0.0007 C   0  0  0  0  0  0
    4.6177   -2.1682    0.0011 C   0  0  0  0  0  0
    5.4042   -1.0565    0.0016 C   0  0  0  0  0  0
    4.8158    0.2195    0.0013 C   0  0  0  0  0  0
    3.4039    0.3363   -0.0054 C   0  0  0  0  0  0
    2.8176    1.6116   -0.0067 C   0  0  0  0  0  0
    3.6110    2.7181   -0.0014 C   0  0  0  0  0  0
    4.9998    2.6045    0.0047 C   0  0  0  0  0  0
    5.6028    1.3843    0.0012 C   0  0  0  0  0  0
   -6.6093    1.1232    0.0020 N   0  0  0  0  0  0
   -2.4065    3.3956    0.0004 H   0  0  0  0  0  0
   -1.1785    2.2490   -0.0009 H   0  0  0  0  0  0
   -1.7017   -3.6350   -0.0007 H   0  0  0  0  0  0
   -4.0948   -3.0525   -0.0011 H   0  0  0  0  0  0
    0.6347   -2.5475    0.8904 H   0  0  0  0  0  0
    0.6350   -2.5478   -0.8896 H   0  0  0  0  0  0
    0.7944    0.1280    0.0000 H   0  0  0  0  0  0
    2.6289   -2.9637    0.0011 H   0  0  0  0  0  0
    5.0786   -3.1449    0.0013 H   0  0  0  0  0  0
    6.4797   -1.1556    0.0026 H   0  0  0  0  0  0
    1.7426    1.7146   -0.0121 H   0  0  0  0  0  0
    3.1572    3.6982   -0.0024 H   0  0  0  0  0  0
    5.6067    3.4978    0.0085 H   0  0  0  0  0  0
    6.6803    1.3114    0.0064 H   0  0  0  0  0  0
   -6.8608    2.0600    0.0028 H   0  0  0  0  0  0
   -7.2949    0.4370    0.0020 H   0  0  0  0  0  0
  1  2  1  0  0  0
  1  6  2  0  0  0
  2  3  2  0  0  0
  2 24  1  0  0  0
  3  4  1  0  0  0
  4  5  2  0  0  0
  4 11  1  0  0  0
  5  6  1  0  0  0
  5  8  1  0  0  0
  6  7  1  0  0  0
  7 25  1  0  0  0
  7 26  1  0  0  0
  8  9  2  0  0  0
  9 10  1  0  0  0
  9 12  1  0  0  0
 10 11  2  0  0  0
 10 27  1  0  0  0
 11 28  1  0  0  0
 12 13  1  0  0  0
 12 29  1  0  0  0
 12 30  1  0  0  0
 13 14  1  0  0  0
 13 31  1  0  0  0
 14 15  1  0  0  0
 14 19  2  0  0  0
 15 16  2  0  0  0
 15 32  1  0  0  0
 16 17  1  0  0  0
 16 33  1  0  0  0
 17 18  2  0  0  0
 17 34  1  0  0  0
 18 19  1  0  0  0
 18 23  1  0  0  0
 19 20  1  0  0  0
 20 21  2  0  0  0
 20 35  1  0  0  0
 21 22  1  0  0  0
 21 36  1  0  0  0
 22 23  2  0  0  0
 22 37  1  0  0  0
 23 38  1  0  0  0
 24 39  1  0  0  0
 24 40  1  0  0  0
M  END
>  <ACTIVITY>
7.39794

>  <set_rl>
2

>  <Min_dist>
0.032787

>  <Avg_dist>
0.465629

>  <PC_uM>
0.23

>  <TG_uM>
0.026

>  <RL_uM>
0.04

$$$$
18-4
  Cerius2 12110214553D 1   1.00000                          
 
 46 50  0  0  0  0  0  0  0  0999 V2000
   -5.0989   -0.0171   -0.4226 C   0  0  0  0  0  0
   -4.5835   -1.1277    0.0649 N   0  0  0  0  0  0
   -3.2577   -1.3068    0.1169 C   0  0  0  0  0  0
   -2.4087   -0.2807   -0.3620 C   0  0  0  0  0  0
   -3.0391    0.9293   -0.8922 C   0  0  0  0  0  0
   -4.3632    0.9870   -0.8891 N   0  0  0  0  0  0
   -2.2811    1.9740   -1.3770 N   0  0  0  0  0  0
   -1.0880   -0.4291   -0.3229 N   0  0  0  0  0  0
   -0.5419   -1.5219    0.1570 C   0  0  0  0  0  0
   -1.3162   -2.5723    0.6452 C   0  0  0  0  0  0
   -2.6799   -2.4799    0.6316 C   0  0  0  0  0  0
    0.9599   -1.6438    0.1799 C   0  0  0  0  0  0
    1.5587   -0.4252   -0.3807 N   0  0  0  0  0  0
    2.9285   -0.6370   -0.4221 C   0  0  0  0  0  0
    3.4647   -1.8935    0.1461 C   0  0  0  0  0  0
    4.7549   -2.1368    0.1226 C   0  0  0  0  0  0
    5.6768   -1.1547   -0.4735 C   0  0  0  0  0  0
    5.2022   -0.0368   -0.9757 C   0  0  0  0  0  0
    3.7510    0.2379   -0.9449 C   0  0  0  0  0  0
    3.2605    1.5042   -1.5023 C   0  0  0  0  0  0
    2.3107    2.2110   -0.9800 C   0  0  0  0  0  0
    1.5872    1.8492    0.2448 C   0  0  0  0  0  0
    1.2307    2.9172    1.2012 C   0  0  0  0  0  0
    0.5867    2.6277    2.3096 C   0  0  0  0  0  0
    0.2197    1.2305    2.5975 C   0  0  0  0  0  0
    0.5353    0.2818    1.7459 C   0  0  0  0  0  0
    1.2576    0.6064    0.4957 C   0  0  0  0  0  0
   -6.4762    0.1079   -0.4557 N   0  0  0  0  0  0
   -2.7161    2.7683   -1.7246 H   0  0  0  0  0  0
   -1.3130    1.9147   -1.3705 H   0  0  0  0  0  0
   -0.8389   -3.4598    1.0337 H   0  0  0  0  0  0
   -3.2953   -3.2844    1.0064 H   0  0  0  0  0  0
    1.2982   -1.7751    1.2078 H   0  0  0  0  0  0
    1.2637   -2.5049   -0.4153 H   0  0  0  0  0  0
    2.7905   -2.6151    0.5833 H   0  0  0  0  0  0
    5.1396   -3.0556    0.5401 H   0  0  0  0  0  0
    6.7383   -1.3523   -0.4974 H   0  0  0  0  0  0
    5.8766    0.6848   -1.4127 H   0  0  0  0  0  0
    3.7224    1.8698   -2.4075 H   0  0  0  0  0  0
    2.0321    3.1279   -1.4781 H   0  0  0  0  0  0
    1.5009    3.9410    0.9886 H   0  0  0  0  0  0
    0.3280    3.4110    3.0067 H   0  0  0  0  0  0
   -0.3079    0.9865    3.5077 H   0  0  0  0  0  0
    0.2656   -0.7420    1.9591 H   0  0  0  0  0  0
   -6.8816    0.9150   -0.8094 H   0  0  0  0  0  0
   -7.0365   -0.6116   -0.1251 H   0  0  0  0  0  0
  1  2  1  0  0  0
  1  6  2  0  0  0
  1 28  1  0  0  0
  2  3  2  0  0  0
  3  4  1  0  0  0
  3 11  1  0  0  0
  4  5  2  0  0  0
  4  8  1  0  0  0
  5  6  1  0  0  0
  5  7  1  0  0  0
  7 29  1  0  0  0
  7 30  1  0  0  0
  8  9  2  0  0  0
  9 10  1  0  0  0
  9 12  1  0  0  0
 10 11  2  0  0  0
 10 31  1  0  0  0
 11 32  1  0  0  0
 12 13  1  0  0  0
 12 33  1  0  0  0
 12 34  1  0  0  0
 13 14  1  0  0  0
 13 27  1  0  0  0
 14 15  1  0  0  0
 14 19  2  0  0  0
 15 16  2  0  0  0
 15 35  1  0  0  0
 16 17  1  0  0  0
 16 36  1  0  0  0
 17 18  2  0  0  0
 17 37  1  0  0  0
 18 19  1  0  0  0
 18 38  1  0  0  0
 19 20  1  0  0  0
 20 21  2  0  0  0
 20 39  1  0  0  0
 21 22  1  0  0  0
 21 40  1  0  0  0
 22 23  1  0  0  0
 22 27  2  0  0  0
 23 24  2  0  0  0
 23 41  1  0  0  0
 24 25  1  0  0  0
 24 42  1  0  0  0
 25 26  2  0  0  0
 25 43  1  0  0  0
 26 27  1  0  0  0
 26 44  1  0  0  0
 28 45  1  0  0  0
 28 46  1  0  0  0
M  END
>  <ACTIVITY>
7.27572

>  <set_rl>
2

>  <Min_dist>
0.131148

>  <Avg_dist>
0.548953

>  <PC_uM>
0.037

>  <TG_uM>
0.034

>  <RL_uM>
0.053

$$$$
8-7
  Cerius2 12110214553D 1   1.00000                          
 
 33 35  0  0  0  0  0  0  0  0999 V2000
   -5.8421    0.2096   -1.1820 N   0  0  0  0  0  0
   -6.2790    0.2432    0.0736 C   0  0  0  0  0  0
   -5.4776    0.1146    1.1143 N   0  0  0  0  0  0
   -4.1596   -0.0595    0.9415 C   0  0  0  0  0  0
   -3.6508   -0.1019   -0.3798 C   0  0  0  0  0  0
   -4.5569    0.0419   -1.4595 C   0  0  0  0  0  0
   -4.1138    0.0076   -2.7634 N   0  0  0  0  0  0
   -2.2771   -0.2826   -0.5797 C   0  0  0  0  0  0
   -1.4770   -0.4117    0.5250 C   0  0  0  0  0  0
   -2.0379   -0.3613    1.7956 C   0  0  0  0  0  0
   -3.3285   -0.1915    1.9760 N   0  0  0  0  0  0
    0.0082   -0.6086    0.3627 C   0  0  0  0  0  0
    0.8323    1.0071    0.3304 S   0  0  0  0  0  0
    2.5066    0.4928    0.1377 C   0  0  0  0  0  0
    3.5214    1.4391    0.0630 C   0  0  0  0  0  0
    4.8336    1.0326   -0.0883 C   0  0  0  0  0  0
    5.1374   -0.3154   -0.1654 C   0  0  0  0  0  0
    4.1289   -1.2603   -0.0913 C   0  0  0  0  0  0
    2.8154   -0.8602    0.0657 C   0  0  0  0  0  0
    4.5148   -2.9500   -0.1891 Cl  0  0  0  0  0  0
    6.1020    2.2141   -0.1822 Cl  0  0  0  0  0  0
   -7.6308    0.4209    0.2984 N   0  0  0  0  0  0
   -4.7452    0.1074   -3.4930 H   0  0  0  0  0  0
   -3.1704   -0.1164   -2.9520 H   0  0  0  0  0  0
   -1.8603   -0.3194   -1.5754 H   0  0  0  0  0  0
   -1.3960   -0.4649    2.6579 H   0  0  0  0  0  0
    0.3905   -1.1948    1.1983 H   0  0  0  0  0  0
    0.2050   -1.1355   -0.5710 H   0  0  0  0  0  0
    3.2849    2.4912    0.1227 H   0  0  0  0  0  0
    6.1636   -0.6306   -0.2839 H   0  0  0  0  0  0
    2.0288   -1.5980    0.1234 H   0  0  0  0  0  0
   -8.2385    0.5179   -0.4514 H   0  0  0  0  0  0
   -7.9720    0.4486    1.2060 H   0  0  0  0  0  0
  1  2  1  0  0  0
  1  6  2  0  0  0
  2  3  2  0  0  0
  2 22  1  0  0  0
  3  4  1  0  0  0
  4  5  2  0  0  0
  4 11  1  0  0  0
  5  6  1  0  0  0
  5  8  1  0  0  0
  6  7  1  0  0  0
  7 23  1  0  0  0
  7 24  1  0  0  0
  8  9  2  0  0  0
  8 25  1  0  0  0
  9 10  1  0  0  0
  9 12  1  0  0  0
 10 11  2  0  0  0
 10 26  1  0  0  0
 12 13  1  0  0  0
 12 27  1  0  0  0
 12 28  1  0  0  0
 13 14  1  0  0  0
 14 15  1  0  0  0
 14 19  2  0  0  0
 15 16  2  0  0  0
 15 29  1  0  0  0
 16 17  1  0  0  0
 16 21  1  0  0  0
 17 18  2  0  0  0
 17 30  1  0  0  0
 18 19  1  0  0  0
 18 20  1  0  0  0
 19 31  1  0  0  0
 22 32  1  0  0  0
 22 33  1  0  0  0
M  END
>  <ACTIVITY>
4.42022

>  <set_rl>
2

>  <Min_dist>
0.106061

>  <Avg_dist>
0.544016

>  <PC_uM>
11

>  <TG_uM>
6.2

>  <RL_uM>
38

$$$$
8-8
  Cerius2 12110214553D 1   1.00000                          
 
 41 43  0  0  0  0  0  0  0  0999 V2000
   -5.8146    0.1199   -1.1985 N   0  0  0  0  0  0
   -6.2537    0.2038    0.0541 C   0  0  0  0  0  0
   -5.4576    0.0922    1.1008 N   0  0  0  0  0  0
   -4.1433   -0.1157    0.9378 C   0  0  0  0  0  0
   -3.6324   -0.2121   -0.3798 C   0  0  0  0  0  0
   -4.5327   -0.0842   -1.4664 C   0  0  0  0  0  0
   -4.0874   -0.1706   -2.7672 N   0  0  0  0  0  0
   -2.2624   -0.4285   -0.5696 C   0  0  0  0  0  0
   -1.4679   -0.5386    0.5411 C   0  0  0  0  0  0
   -2.0306   -0.4348    1.8077 C   0  0  0  0  0  0
   -3.3176   -0.2316    1.9785 N   0  0  0  0  0  0
    0.0131   -0.7724    0.3898 C   0  0  0  0  0  0
    0.8719    0.8233    0.3074 S   0  0  0  0  0  0
    2.5351    0.2673    0.1366 C   0  0  0  0  0  0
    2.8128   -1.0935    0.1041 C   0  0  0  0  0  0
    4.1168   -1.5309   -0.0293 C   0  0  0  0  0  0
    5.1500   -0.6134   -0.1315 C   0  0  0  0  0  0
    4.8754    0.7504   -0.0998 C   0  0  0  0  0  0
    3.5681    1.1894    0.0286 C   0  0  0  0  0  0
    5.8892    1.6512   -0.1996 O   0  0  0  0  0  0
    5.2957    2.9496   -0.1359 C   0  0  0  0  0  0
    6.4336   -1.0461   -0.2624 O   0  0  0  0  0  0
    6.3902   -2.4744   -0.2616 C   0  0  0  0  0  0
   -7.6018    0.4176    0.2689 N   0  0  0  0  0  0
   -4.7149   -0.0812   -3.5015 H   0  0  0  0  0  0
   -3.1465   -0.3208   -2.9488 H   0  0  0  0  0  0
   -1.8442   -0.5067   -1.5623 H   0  0  0  0  0  0
   -1.3930   -0.5239    2.6748 H   0  0  0  0  0  0
    0.3808   -1.3391    1.2452 H   0  0  0  0  0  0
    0.2007   -1.3336   -0.5256 H   0  0  0  0  0  0
    2.0089   -1.8102    0.1836 H   0  0  0  0  0  0
    4.3309   -2.5892   -0.0537 H   0  0  0  0  0  0
    3.3530    2.2475    0.0530 H   0  0  0  0  0  0
    6.0739    3.7090   -0.2123 H   0  0  0  0  0  0
    4.5908    3.0677   -0.9589 H   0  0  0  0  0  0
    4.7697    3.0626    0.8121 H   0  0  0  0  0  0
    7.4011   -2.8688   -0.3649 H   0  0  0  0  0  0
    5.9577   -2.8243    0.6757 H   0  0  0  0  0  0
    5.7786   -2.8198   -1.0952 H   0  0  0  0  0  0
   -8.2056    0.5031   -0.4855 H   0  0  0  0  0  0
   -7.9444    0.4822    1.1740 H   0  0  0  0  0  0
  1  2  1  0  0  0
  1  6  2  0  0  0
  2  3  2  0  0  0
  2 24  1  0  0  0
  3  4  1  0  0  0
  4  5  2  0  0  0
  4 11  1  0  0  0
  5  6  1  0  0  0
  5  8  1  0  0  0
  6  7  1  0  0  0
  7 25  1  0  0  0
  7 26  1  0  0  0
  8  9  2  0  0  0
  8 27  1  0  0  0
  9 10  1  0  0  0
  9 12  1  0  0  0
 10 11  2  0  0  0
 10 28  1  0  0  0
 12 13  1  0  0  0
 12 29  1  0  0  0
 12 30  1  0  0  0
 13 14  1  0  0  0
 14 15  1  0  0  0
 14 19  2  0  0  0
 15 16  2  0  0  0
 15 31  1  0  0  0
 16 17  1  0  0  0
 16 32  1  0  0  0
 17 18  2  0  0  0
 17 22  1  0  0  0
 18 19  1  0  0  0
 18 20  1  0  0  0
 19 33  1  0  0  0
 20 21  1  0  0  0
 21 34  1  0  0  0
 21 35  1  0  0  0
 21 36  1  0  0  0
 22 23  1  0  0  0
 23 37  1  0  0  0
 23 38  1  0  0  0
 23 39  1  0  0  0
 24 40  1  0  0  0
 24 41  1  0  0  0
M  END
>  <ACTIVITY>
5.39794

>  <set_rl>
2

>  <Min_dist>
0.064103

>  <Avg_dist>
0.513744

>  <PC_uM>
2.2

>  <TG_uM>
1.1

>  <RL_uM>
4

$$$$
23-6A
  Cerius2 12110214553D 1   1.00000                          
 
 51 53  0  0  0  0  0  0  0  0999 V2000
   -5.6468   -0.0708   -0.9629 N   0  0  0  0  0  0
   -5.4225   -1.3593   -0.7219 C   0  0  0  0  0  0
   -4.2904   -1.8057   -0.2111 N   0  0  0  0  0  0
   -3.2982   -0.9566    0.0917 C   0  0  0  0  0  0
   -3.4940    0.4255   -0.1493 C   0  0  0  0  0  0
   -4.7295    0.8488   -0.6988 C   0  0  0  0  0  0
   -4.9706    2.1811   -0.9527 N   0  0  0  0  0  0
   -2.4693    1.3272    0.1610 C   0  0  0  0  0  0
   -1.3090    0.8263    0.6901 C   0  0  0  0  0  0
   -1.1788   -0.5410    0.9026 C   0  0  0  0  0  0
   -2.1451   -1.3819    0.6090 N   0  0  0  0  0  0
   -0.1759    1.7560    1.0405 C   0  0  0  0  0  0
    0.9417    0.9805    1.5844 N   0  0  0  0  0  0
    1.9292    0.4787    0.7268 C   0  0  0  0  0  0
    2.7000    1.3512   -0.0291 C   0  0  0  0  0  0
    3.6776    0.8557   -0.8776 C   0  0  0  0  0  0
    3.8858   -0.5152   -0.9715 C   0  0  0  0  0  0
    3.1135   -1.3881   -0.2143 C   0  0  0  0  0  0
    2.1400   -0.8904    0.6376 C   0  0  0  0  0  0
    3.3164   -2.7297   -0.3053 O   0  0  0  0  0  0
    2.3823   -3.3497    0.5806 C   0  0  0  0  0  0
    4.8456   -1.0030   -1.8051 O   0  0  0  0  0  0
    6.0526   -1.0812   -1.0442 C   0  0  0  0  0  0
    4.4323    1.7106   -1.6184 O   0  0  0  0  0  0
    3.9859    3.0318   -1.3067 C   0  0  0  0  0  0
    1.0198    0.7498    2.9100 C   0  0  0  0  0  0
    1.9210    0.0711    3.3554 O   0  0  0  0  0  0
   -2.6371    2.8053   -0.0803 C   0  0  0  0  0  0
   -6.4183   -2.2702   -1.0187 N   0  0  0  0  0  0
   -5.8353    2.5664   -0.7412 H   0  0  0  0  0  0
   -4.2757    2.7340   -1.3430 H   0  0  0  0  0  0
   -0.2588   -0.9227    1.3200 H   0  0  0  0  0  0
    0.1506    2.2846    0.1449 H   0  0  0  0  0  0
   -0.5142    2.4768    1.7848 H   0  0  0  0  0  0
    2.5378    2.4165    0.0437 H   0  0  0  0  0  0
    1.5400   -1.5685    1.2264 H   0  0  0  0  0  0
    2.5078   -4.4318    0.5416 H   0  0  0  0  0  0
    2.5589   -2.9999    1.5977 H   0  0  0  0  0  0
    1.3676   -3.0905    0.2783 H   0  0  0  0  0  0
    6.8541   -1.4686   -1.6732 H   0  0  0  0  0  0
    6.3207   -0.0876   -0.6850 H   0  0  0  0  0  0
    5.9038   -1.7470   -0.1941 H   0  0  0  0  0  0
    4.5652    3.7558   -1.8799 H   0  0  0  0  0  0
    2.9304    3.1281   -1.5608 H   0  0  0  0  0  0
    4.1218    3.2194   -0.2416 H   0  0  0  0  0  0
    0.2800    1.1693    3.5756 H   0  0  0  0  0  0
   -2.4108    3.0313   -1.1223 H   0  0  0  0  0  0
   -3.6647    3.0949    0.1393 H   0  0  0  0  0  0
   -1.9573    3.3587    0.5675 H   0  0  0  0  0  0
   -7.2587   -1.9648   -1.3946 H   0  0  0  0  0  0
   -6.2768   -3.2151   -0.8513 H   0  0  0  0  0  0
  1  2  1  0  0  0
  1  6  2  0  0  0
  2  3  2  0  0  0
  2 29  1  0  0  0
  3  4  1  0  0  0
  4  5  2  0  0  0
  4 11  1  0  0  0
  5  6  1  0  0  0
  5  8  1  0  0  0
  6  7  1  0  0  0
  7 30  1  0  0  0
  7 31  1  0  0  0
  8  9  2  0  0  0
  8 28  1  0  0  0
  9 10  1  0  0  0
  9 12  1  0  0  0
 10 11  2  0  0  0
 10 32  1  0  0  0
 12 13  1  0  0  0
 12 33  1  0  0  0
 12 34  1  0  0  0
 13 14  1  0  0  0
 13 26  1  0  0  0
 14 15  1  0  0  0
 14 19  2  0  0  0
 15 16  2  0  0  0
 15 35  1  0  0  0
 16 17  1  0  0  0
 16 24  1  0  0  0
 17 18  2  0  0  0
 17 22  1  0  0  0
 18 19  1  0  0  0
 18 20  1  0  0  0
 19 36  1  0  0  0
 20 21  1  0  0  0
 21 37  1  0  0  0
 21 38  1  0  0  0
 21 39  1  0  0  0
 22 23  1  0  0  0
 23 40  1  0  0  0
 23 41  1  0  0  0
 23 42  1  0  0  0
 24 25  1  0  0  0
 25 43  1  0  0  0
 25 44  1  0  0  0
 25 45  1  0  0  0
 26 27  2  0  0  0
 26 46  1  0  0  0
 28 47  1  0  0  0
 28 48  1  0  0  0
 28 49  1  0  0  0
 29 50  1  0  0  0
 29 51  1  0  0  0
M  END
>  <ACTIVITY>
6.95861

>  <set_rl>
2

>  <Min_dist>
0.05

>  <Avg_dist>
0.517865

>  <PC_uM>
0.55

>  <TG_uM>
0.013

>  <RL_uM>
0.11

$$$$
25-10
  Cerius2 12110214553D 1   1.00000                          
 
 37 39  0  0  0  0  0  0  0  0999 V2000
   -4.2298    0.2790   -0.7946 N   0  0  0  0  0  0
   -4.2810   -0.9185   -0.2179 C   0  0  0  0  0  0
   -3.2606   -1.4443    0.4319 N   0  0  0  0  0  0
   -2.1023   -0.7752    0.5393 C   0  0  0  0  0  0
   -2.0043    0.5041   -0.0602 C   0  0  0  0  0  0
   -3.1321    1.0197   -0.7458 C   0  0  0  0  0  0
   -3.0883    2.2593   -1.3468 N   0  0  0  0  0  0
   -0.8054    1.2199    0.0400 C   0  0  0  0  0  0
    0.2432    0.6345    0.7307 C   0  0  0  0  0  0
    0.0743   -0.6309    1.2963 C   0  0  0  0  0  0
   -1.0586   -1.2872    1.1917 N   0  0  0  0  0  0
    1.4637    1.3067    0.8603 N   0  0  0  0  0  0
    2.6085    0.6338    1.4791 C   0  0  0  0  0  0
    3.4037   -0.0826    0.4181 C   0  0  0  0  0  0
    4.4339    0.5704   -0.2323 C   0  0  0  0  0  0
    5.1633   -0.0867   -1.2055 C   0  0  0  0  0  0
    4.8627   -1.3969   -1.5279 C   0  0  0  0  0  0
    3.8331   -2.0502   -0.8768 C   0  0  0  0  0  0
    3.1065   -1.3944    0.0994 C   0  0  0  0  0  0
    1.5967    2.6834    0.3772 C   0  0  0  0  0  0
   -5.4553   -1.6437   -0.3030 N   0  0  0  0  0  0
   -3.8677    2.6001   -1.8129 H   0  0  0  0  0  0
   -2.2781    2.7909   -1.3036 H   0  0  0  0  0  0
   -0.7011    2.1974   -0.4073 H   0  0  0  0  0  0
    0.8959   -1.0814    1.8334 H   0  0  0  0  0  0
    3.2416    1.3722    1.9711 H   0  0  0  0  0  0
    2.2520   -0.0871    2.2148 H   0  0  0  0  0  0
    4.6688    1.5940    0.0195 H   0  0  0  0  0  0
    5.9678    0.4236   -1.7142 H   0  0  0  0  0  0
    5.4321   -1.9101   -2.2888 H   0  0  0  0  0  0
    3.5980   -3.0737   -1.1289 H   0  0  0  0  0  0
    2.3020   -1.9048    0.6081 H   0  0  0  0  0  0
    0.6257    3.0452    0.0391 H   0  0  0  0  0  0
    1.9598    3.3185    1.1852 H   0  0  0  0  0  0
    2.3035    2.7108   -0.4521 H   0  0  0  0  0  0
   -6.2188   -1.2767   -0.7756 H   0  0  0  0  0  0
   -5.5156   -2.5193    0.1100 H   0  0  0  0  0  0
  1  2  1  0  0  0
  1  6  2  0  0  0
  2  3  2  0  0  0
  2 21  1  0  0  0
  3  4  1  0  0  0
  4  5  2  0  0  0
  4 11  1  0  0  0
  5  6  1  0  0  0
  5  8  1  0  0  0
  6  7  1  0  0  0
  7 22  1  0  0  0
  7 23  1  0  0  0
  8  9  2  0  0  0
  8 24  1  0  0  0
  9 10  1  0  0  0
  9 12  1  0  0  0
 10 11  2  0  0  0
 10 25  1  0  0  0
 12 13  1  0  0  0
 12 20  1  0  0  0
 13 14  1  0  0  0
 13 26  1  0  0  0
 13 27  1  0  0  0
 14 15  1  0  0  0
 14 19  2  0  0  0
 15 16  2  0  0  0
 15 28  1  0  0  0
 16 17  1  0  0  0
 16 29  1  0  0  0
 17 18  2  0  0  0
 17 30  1  0  0  0
 18 19  1  0  0  0
 18 31  1  0  0  0
 19 32  1  0  0  0
 20 33  1  0  0  0
 20 34  1  0  0  0
 20 35  1  0  0  0
 21 36  1  0  0  0
 21 37  1  0  0  0
M  END
>  <ACTIVITY>
6.85387

>  <set_rl>
2

>  <Min_dist>
0.09375

>  <Avg_dist>
0.475021

>  <PC_uM>
0.068

>  <TG_uM>
0.032

>  <RL_uM>
0.14

$$$$
25-15
  Cerius2 12110214553D 1   1.00000                          
 
 49 51  0  0  0  0  0  0  0  0999 V2000
   -5.7320   -0.6417   -0.2058 N   0  0  0  0  0  0
   -5.5300   -0.8595    1.0907 C   0  0  0  0  0  0
   -4.3866   -0.5929    1.6918 N   0  0  0  0  0  0
   -3.3568   -0.0787    1.0018 C   0  0  0  0  0  0
   -3.5287    0.1691   -0.3819 C   0  0  0  0  0  0
   -4.7786   -0.1366   -0.9752 C   0  0  0  0  0  0
   -4.9970    0.0852   -2.3179 N   0  0  0  0  0  0
   -2.4676    0.7057   -1.1210 C   0  0  0  0  0  0
   -1.2830    0.9726   -0.4541 C   0  0  0  0  0  0
   -1.1858    0.7025    0.9124 C   0  0  0  0  0  0
   -2.1926    0.1988    1.5890 N   0  0  0  0  0  0
   -0.1909    1.5090   -1.1455 N   0  0  0  0  0  0
    1.0175    1.9005   -0.4157 C   0  0  0  0  0  0
    1.9617    0.7284   -0.3419 C   0  0  0  0  0  0
    1.6117   -0.4775   -0.9204 C   0  0  0  0  0  0
    2.4741   -1.5556   -0.8555 C   0  0  0  0  0  0
    3.6948   -1.4315   -0.2090 C   0  0  0  0  0  0
    4.0504   -0.2212    0.3737 C   0  0  0  0  0  0
    3.1828    0.8624    0.3010 C   0  0  0  0  0  0
    3.5264    2.0492    0.8693 O   0  0  0  0  0  0
    3.1590    1.9687    2.2479 C   0  0  0  0  0  0
    5.2473   -0.0954    1.0091 O   0  0  0  0  0  0
    6.2145    0.2275    0.0079 C   0  0  0  0  0  0
    4.5423   -2.4931   -0.1449 O   0  0  0  0  0  0
    3.9019   -3.5746   -0.8249 C   0  0  0  0  0  0
   -0.2561    1.6790   -2.5992 C   0  0  0  0  0  0
   -6.5640   -1.3882    1.8412 N   0  0  0  0  0  0
   -5.8575   -0.1286   -2.7111 H   0  0  0  0  0  0
   -4.2901    0.4552   -2.8696 H   0  0  0  0  0  0
   -2.5693    0.9049   -2.1776 H   0  0  0  0  0  0
   -0.2593    0.9130    1.4260 H   0  0  0  0  0  0
    1.5037    2.7267   -0.9345 H   0  0  0  0  0  0
    0.7474    2.2135    0.5929 H   0  0  0  0  0  0
    0.6615   -0.5776   -1.4240 H   0  0  0  0  0  0
    2.1970   -2.4959   -1.3086 H   0  0  0  0  0  0
    3.3615    2.9230    2.7341 H   0  0  0  0  0  0
    2.0966    1.7385    2.3279 H   0  0  0  0  0  0
    3.7385    1.1834    2.7331 H   0  0  0  0  0  0
    7.2034    0.2841    0.4628 H   0  0  0  0  0  0
    6.2123   -0.5444   -0.7617 H   0  0  0  0  0  0
    5.9655    1.1889   -0.4412 H   0  0  0  0  0  0
    4.5472   -4.4527   -0.7996 H   0  0  0  0  0  0
    2.9566   -3.8040   -0.3333 H   0  0  0  0  0  0
    3.7136   -3.2918   -1.8606 H   0  0  0  0  0  0
   -1.1851    1.2493   -2.9739 H   0  0  0  0  0  0
   -0.2228    2.7409   -2.8426 H   0  0  0  0  0  0
    0.5911    1.1732   -3.0624 H   0  0  0  0  0  0
   -7.4139   -1.5918    1.4204 H   0  0  0  0  0  0
   -6.4395   -1.5554    2.7886 H   0  0  0  0  0  0
  1  2  1  0  0  0
  1  6  2  0  0  0
  2  3  2  0  0  0
  2 27  1  0  0  0
  3  4  1  0  0  0
  4  5  2  0  0  0
  4 11  1  0  0  0
  5  6  1  0  0  0
  5  8  1  0  0  0
  6  7  1  0  0  0
  7 28  1  0  0  0
  7 29  1  0  0  0
  8  9  2  0  0  0
  8 30  1  0  0  0
  9 10  1  0  0  0
  9 12  1  0  0  0
 10 11  2  0  0  0
 10 31  1  0  0  0
 12 13  1  0  0  0
 12 26  1  0  0  0
 13 14  1  0  0  0
 13 32  1  0  0  0
 13 33  1  0  0  0
 14 15  1  0  0  0
 14 19  2  0  0  0
 15 16  2  0  0  0
 15 34  1  0  0  0
 16 17  1  0  0  0
 16 35  1  0  0  0
 17 18  2  0  0  0
 17 24  1  0  0  0
 18 19  1  0  0  0
 18 22  1  0  0  0
 19 20  1  0  0  0
 20 21  1  0  0  0
 21 36  1  0  0  0
 21 37  1  0  0  0
 21 38  1  0  0  0
 22 23  1  0  0  0
 23 39  1  0  0  0
 23 40  1  0  0  0
 23 41  1  0  0  0
 24 25  1  0  0  0
 25 42  1  0  0  0
 25 43  1  0  0  0
 25 44  1  0  0  0
 26 45  1  0  0  0
 26 46  1  0  0  0
 26 47  1  0  0  0
 27 48  1  0  0  0
 27 49  1  0  0  0
M  END
>  <ACTIVITY>
7.52288

>  <set_rl>
2

>  <Min_dist>
0.05618

>  <Avg_dist>
0.482801

>  <PC_uM>
0.079

>  <TG_uM>
0.026

>  <RL_uM>
0.03

$$$$
26-7
  Cerius2 12110214553D 1   1.00000                          
 
 53 56  0  0  0  0  0  0  0  0999 V2000
   -6.3605   -0.7734   -0.9267 N   0  0  0  0  0  0
   -6.8727   -0.2312    0.1743 C   0  0  0  0  0  0
   -6.1489    0.4570    1.0371 N   0  0  0  0  0  0
   -4.8368    0.6402    0.8320 C   0  0  0  0  0  0
   -4.2492    0.0794   -0.3285 C   0  0  0  0  0  0
   -5.0740   -0.6496   -1.2206 C   0  0  0  0  0  0
   -4.5523   -1.2156   -2.3631 N   0  0  0  0  0  0
   -2.8805    0.2607   -0.5597 C   0  0  0  0  0  0
   -2.1623    0.9812    0.3581 C   0  0  0  0  0  0
   -2.7980    1.5058    1.4770 C   0  0  0  0  0  0
   -4.0835    1.3317    1.6878 N   0  0  0  0  0  0
   -0.6858    1.2040    0.1548 C   0  0  0  0  0  0
    0.0397   -0.0348    0.4468 N   0  0  0  0  0  0
    1.4341   -0.0772    0.3170 C   0  0  0  0  0  0
    2.1279    1.0540   -0.0881 C   0  0  0  0  0  0
    3.5066    1.0120   -0.2159 C   0  0  0  0  0  0
    4.1958   -0.1652    0.0622 C   0  0  0  0  0  0
    3.5020   -1.2963    0.4673 C   0  0  0  0  0  0
    2.1244   -1.2530    0.6002 C   0  0  0  0  0  0
    1.4440   -2.3625    0.9979 O   0  0  0  0  0  0
    2.4142   -3.3924    1.1978 C   0  0  0  0  0  0
    5.5942   -0.2079   -0.0679 N   0  0  0  0  0  0
    6.2909   -1.0351   -0.9006 C   0  0  0  0  0  0
    7.6064   -0.7810   -0.7432 C   0  0  0  0  0  0
    7.7273    0.2393    0.2209 C   0  0  0  0  0  0
    6.4809    0.5749    0.6132 C   0  0  0  0  0  0
    4.1869    2.1208   -0.6135 O   0  0  0  0  0  0
    3.2164    3.1492   -0.8193 C   0  0  0  0  0  0
   -2.2165   -0.3199   -1.7816 C   0  0  0  0  0  0
   -8.2216   -0.3951    0.4258 N   0  0  0  0  0  0
   -3.6884   -1.6560   -2.3352 H   0  0  0  0  0  0
   -5.0487   -1.1737   -3.1953 H   0  0  0  0  0  0
   -2.2201    2.0715    2.1928 H   0  0  0  0  0  0
   -0.5016    1.4980   -0.8785 H   0  0  0  0  0  0
   -0.3419    1.9928    0.8238 H   0  0  0  0  0  0
   -0.4453   -0.8256    0.7300 H   0  0  0  0  0  0
    1.5930    1.9671   -0.3041 H   0  0  0  0  0  0
    4.0368   -2.2094    0.6830 H   0  0  0  0  0  0
    1.9136   -4.3058    1.5190 H   0  0  0  0  0  0
    2.9448   -3.5780    0.2640 H   0  0  0  0  0  0
    3.1244   -3.0790    1.9631 H   0  0  0  0  0  0
    5.8629   -1.7670   -1.5695 H   0  0  0  0  0  0
    8.4182   -1.2704   -1.2608 H   0  0  0  0  0  0
    8.6486    0.6754    0.5778 H   0  0  0  0  0  0
    6.2286    1.3285    1.3445 H   0  0  0  0  0  0
    3.7172    4.0624   -1.1407 H   0  0  0  0  0  0
    2.5094    2.8333   -1.5864 H   0  0  0  0  0  0
    2.6822    3.3363    0.1122 H   0  0  0  0  0  0
   -1.9690   -1.3655   -1.5984 H   0  0  0  0  0  0
   -2.8955   -0.2508   -2.6315 H   0  0  0  0  0  0
   -1.3048    0.2367   -1.9987 H   0  0  0  0  0  0
   -8.7731   -0.8969   -0.1947 H   0  0  0  0  0  0
   -8.6169   -0.0084    1.2227 H   0  0  0  0  0  0
  1  2  1  0  0  0
  1  6  2  0  0  0
  2  3  2  0  0  0
  2 30  1  0  0  0
  3  4  1  0  0  0
  4  5  2  0  0  0
  4 11  1  0  0  0
  5  6  1  0  0  0
  5  8  1  0  0  0
  6  7  1  0  0  0
  7 31  1  0  0  0
  7 32  1  0  0  0
  8  9  2  0  0  0
  8 29  1  0  0  0
  9 10  1  0  0  0
  9 12  1  0  0  0
 10 11  2  0  0  0
 10 33  1  0  0  0
 12 13  1  0  0  0
 12 34  1  0  0  0
 12 35  1  0  0  0
 13 14  1  0  0  0
 13 36  1  0  0  0
 14 15  1  0  0  0
 14 19  2  0  0  0
 15 16  2  0  0  0
 15 37  1  0  0  0
 16 17  1  0  0  0
 16 27  1  0  0  0
 17 18  2  0  0  0
 17 22  1  0  0  0
 18 19  1  0  0  0
 18 38  1  0  0  0
 19 20  1  0  0  0
 20 21  1  0  0  0
 21 39  1  0  0  0
 21 40  1  0  0  0
 21 41  1  0  0  0
 22 23  1  0  0  0
 22 26  1  0  0  0
 23 24  2  0  0  0
 23 42  1  0  0  0
 24 25  1  0  0  0
 24 43  1  0  0  0
 25 26  2  0  0  0
 25 44  1  0  0  0
 26 45  1  0  0  0
 27 28  1  0  0  0
 28 46  1  0  0  0
 28 47  1  0  0  0
 28 48  1  0  0  0
 29 49  1  0  0  0
 29 50  1  0  0  0
 29 51  1  0  0  0
 30 52  1  0  0  0
 30 53  1  0  0  0
M  END
>  <ACTIVITY>
6.63827

>  <set_rl>
2

>  <Min_dist>
0.107527

>  <Avg_dist>
0.489916

>  <PC_uM>
0.35

>  <TG_uM>
0.033

>  <RL_uM>
0.23

$$$$
28-11
  Cerius2 12110214553D 1   1.00000                          
 
 39 41  0  0  0  0  0  0  0  0999 V2000
   -5.1776    1.0850    0.1077 N   0  0  0  0  0  0
   -5.5700   -0.1813    0.2132 C   0  0  0  0  0  0
   -4.7338   -1.1991    0.1318 N   0  0  0  0  0  0
   -3.4243   -0.9906   -0.0656 C   0  0  0  0  0  0
   -2.9625    0.3432   -0.1842 C   0  0  0  0  0  0
   -3.9045    1.3972   -0.0884 C   0  0  0  0  0  0
   -3.5078    2.7119   -0.1973 N   0  0  0  0  0  0
   -1.5983    0.5805   -0.3902 C   0  0  0  0  0  0
   -0.7612   -0.5013   -0.4687 C   0  0  0  0  0  0
   -1.2768   -1.7859   -0.3444 C   0  0  0  0  0  0
   -2.5587   -2.0014   -0.1511 N   0  0  0  0  0  0
    0.7156   -0.2987   -0.6901 C   0  0  0  0  0  0
    1.4216   -0.1742    0.6616 C   0  0  0  0  0  0
    2.8984    0.0285    0.4402 C   0  0  0  0  0  0
    3.4085    1.3076    0.3164 C   0  0  0  0  0  0
    4.7619    1.4960    0.1134 C   0  0  0  0  0  0
    5.6094    0.4005    0.0339 C   0  0  0  0  0  0
    5.0950   -0.8819    0.1585 C   0  0  0  0  0  0
    3.7417   -1.0648    0.3670 C   0  0  0  0  0  0
    6.9411    0.5832   -0.1662 O   0  0  0  0  0  0
    7.5356   -0.7158   -0.2011 C   0  0  0  0  0  0
   -6.9114   -0.4427    0.4173 N   0  0  0  0  0  0
   -4.1634    3.4236   -0.1298 H   0  0  0  0  0  0
   -2.5727    2.9260   -0.3415 H   0  0  0  0  0  0
   -1.2170    1.5865   -0.4847 H   0  0  0  0  0  0
   -0.6059   -2.6299   -0.4086 H   0  0  0  0  0  0
    1.1217   -1.1509   -1.2349 H   0  0  0  0  0  0
    0.8748    0.6115   -1.2683 H   0  0  0  0  0  0
    1.0155    0.6781    1.2064 H   0  0  0  0  0  0
    1.2624   -1.0844    1.2398 H   0  0  0  0  0  0
    2.7484    2.1601    0.3780 H   0  0  0  0  0  0
    5.1599    2.4953    0.0164 H   0  0  0  0  0  0
    5.7527   -1.7364    0.0969 H   0  0  0  0  0  0
    3.3408   -2.0629    0.4644 H   0  0  0  0  0  0
    8.6096   -0.6197   -0.3604 H   0  0  0  0  0  0
    7.3528   -1.2245    0.7454 H   0  0  0  0  0  0
    7.0979   -1.2939   -1.0148 H   0  0  0  0  0  0
   -7.5441    0.2897    0.4807 H   0  0  0  0  0  0
   -7.2203   -1.3588    0.4972 H   0  0  0  0  0  0
  1  2  1  0  0  0
  1  6  2  0  0  0
  2  3  2  0  0  0
  2 22  1  0  0  0
  3  4  1  0  0  0
  4  5  2  0  0  0
  4 11  1  0  0  0
  5  6  1  0  0  0
  5  8  1  0  0  0
  6  7  1  0  0  0
  7 23  1  0  0  0
  7 24  1  0  0  0
  8  9  2  0  0  0
  8 25  1  0  0  0
  9 10  1  0  0  0
  9 12  1  0  0  0
 10 11  2  0  0  0
 10 26  1  0  0  0
 12 13  1  0  0  0
 12 27  1  0  0  0
 12 28  1  0  0  0
 13 14  1  0  0  0
 13 29  1  0  0  0
 13 30  1  0  0  0
 14 15  1  0  0  0
 14 19  2  0  0  0
 15 16  2  0  0  0
 15 31  1  0  0  0
 16 17  1  0  0  0
 16 32  1  0  0  0
 17 18  2  0  0  0
 17 20  1  0  0  0
 18 19  1  0  0  0
 18 33  1  0  0  0
 19 34  1  0  0  0
 20 21  1  0  0  0
 21 35  1  0  0  0
 21 36  1  0  0  0
 21 37  1  0  0  0
 22 38  1  0  0  0
 22 39  1  0  0  0
M  END
>  <ACTIVITY>
6.58503

>  <set_rl>
2

>  <Min_dist>
0.107692

>  <Avg_dist>
0.516453

>  <PC_uM>
0.29

>  <TG_uM>
0.25

>  <RL_uM>
0.26

$$$$
28-7
  Cerius2 12110214553D 1   1.00000                          
 
 41 43  0  0  0  0  0  0  0  0999 V2000
   -1.6377   -0.2532    0.6775 C   0  0  0  0  0  0
   -1.7918    1.0413    1.3380 C   0  0  0  0  0  0
   -2.8061    1.8085    0.9589 N   0  0  0  0  0  0
   -3.6510    1.4127    0.0123 C   0  0  0  0  0  0
   -3.5562    0.2564   -0.6135 N   0  0  0  0  0  0
   -2.5764   -0.6103   -0.3238 C   0  0  0  0  0  0
   -2.4715   -1.7835   -0.9509 N   0  0  0  0  0  0
   -1.5126   -2.6315   -0.6666 C   0  0  0  0  0  0
   -0.5466   -2.3484    0.3131 C   0  0  0  0  0  0
   -0.6088   -1.1377    1.0055 C   0  0  0  0  0  0
    0.5184   -3.3219    0.6110 C   0  0  0  0  0  0
    1.7859   -2.9047    0.7646 C   0  0  0  0  0  0
    2.1552   -1.5237    0.4078 C   0  0  0  0  0  0
    3.0702   -0.8177    1.1939 C   0  0  0  0  0  0
    3.4143    0.4746    0.8580 C   0  0  0  0  0  0
    2.8544    1.0771   -0.2592 C   0  0  0  0  0  0
    1.9417    0.3797   -1.0475 C   0  0  0  0  0  0
    1.5959   -0.9181   -0.7209 C   0  0  0  0  0  0
    1.3951    0.9740   -2.1418 O   0  0  0  0  0  0
    0.5116    0.0188   -2.7326 C   0  0  0  0  0  0
    3.1970    2.3517   -0.5853 O   0  0  0  0  0  0
    4.1364    2.7913    0.3977 C   0  0  0  0  0  0
   -4.6860    2.2598   -0.3347 N   0  0  0  0  0  0
   -0.9157    1.4503    2.3192 N   0  0  0  0  0  0
   -1.4645   -3.5703   -1.1983 H   0  0  0  0  0  0
    0.1189   -0.8907    1.7643 H   0  0  0  0  0  0
    0.2800   -4.3710    0.7058 H   0  0  0  0  0  0
    2.5342   -3.5815    1.1497 H   0  0  0  0  0  0
    3.5074   -1.2842    2.0643 H   0  0  0  0  0  0
    4.1212    1.0193    1.4664 H   0  0  0  0  0  0
    0.8887   -1.4599   -1.3314 H   0  0  0  0  0  0
    0.0473    0.4524   -3.6183 H   0  0  0  0  0  0
    1.0748   -0.8704   -3.0159 H   0  0  0  0  0  0
   -0.2612   -0.2543   -2.0141 H   0  0  0  0  0  0
    4.4418    3.8141    0.1767 H   0  0  0  0  0  0
    3.6738    2.7554    1.3840 H   0  0  0  0  0  0
    5.0101    2.1399    0.3823 H   0  0  0  0  0  0
   -4.7807    3.1170    0.1093 H   0  0  0  0  0  0
   -5.3179    1.9972   -1.0222 H   0  0  0  0  0  0
   -1.0343    2.3131    2.7462 H   0  0  0  0  0  0
   -0.1804    0.8754    2.5831 H   0  0  0  0  0  0
  1  2  1  0  0  0
  1  6  2  0  0  0
  1 10  1  0  0  0
  2  3  2  0  0  0
  2 24  1  0  0  0
  3  4  1  0  0  0
  4  5  2  0  0  0
  4 23  1  0  0  0
  5  6  1  0  0  0
  6  7  1  0  0  0
  7  8  2  0  0  0
  8  9  1  0  0  0
  8 25  1  0  0  0
  9 10  2  0  0  0
  9 11  1  0  0  0
 10 26  1  0  0  0
 11 12  2  0  0  0
 11 27  1  0  0  0
 12 13  1  0  0  0
 12 28  1  0  0  0
 13 14  1  0  0  0
 13 18  2  0  0  0
 14 15  2  0  0  0
 14 29  1  0  0  0
 15 16  1  0  0  0
 15 30  1  0  0  0
 16 17  2  0  0  0
 16 21  1  0  0  0
 17 18  1  0  0  0
 17 19  1  0  0  0
 18 31  1  0  0  0
 19 20  1  0  0  0
 20 32  1  0  0  0
 20 33  1  0  0  0
 20 34  1  0  0  0
 21 22  1  0  0  0
 22 35  1  0  0  0
 22 36  1  0  0  0
 22 37  1  0  0  0
 23 38  1  0  0  0
 23 39  1  0  0  0
 24 40  1  0  0  0
 24 41  1  0  0  0
M  END
>  <ACTIVITY>
5.67778

>  <set_rl>
2

>  <Min_dist>
0.103896

>  <Avg_dist>
0.553247

>  <PC_uM>
2.6

>  <TG_uM>
1.4

>  <RL_uM>
2.1

$$$$
23-6B
  Cerius2 12110214553D 1   1.00000                          
 
 39 41  0  0  0  0  0  0  0  0999 V2000
   -5.4087   -0.8103   -0.6921 N   0  0  0  0  0  0
   -5.0455   -1.8245    0.0877 C   0  0  0  0  0  0
   -3.8732   -1.8792    0.6916 N   0  0  0  0  0  0
   -2.9812   -0.8903    0.5381 C   0  0  0  0  0  0
   -3.3265    0.2099   -0.2846 C   0  0  0  0  0  0
   -4.5987    0.2165   -0.9081 C   0  0  0  0  0  0
   -4.9835    1.2621   -1.7182 N   0  0  0  0  0  0
   -2.4079    1.2522   -0.4563 C   0  0  0  0  0  0
   -1.2017    1.1601    0.1870 C   0  0  0  0  0  0
   -0.9233    0.0537    0.9807 C   0  0  0  0  0  0
   -1.7904   -0.9213    1.1375 N   0  0  0  0  0  0
   -0.1787    2.2560    0.0338 C   0  0  0  0  0  0
    1.0150    1.9224    0.8147 N   0  0  0  0  0  0
    2.0540    1.1912    0.2272 C   0  0  0  0  0  0
    2.7311    1.7047   -0.8714 C   0  0  0  0  0  0
    3.7562    0.9821   -1.4494 C   0  0  0  0  0  0
    4.1091   -0.2534   -0.9356 C   0  0  0  0  0  0
    3.4356   -0.7683    0.1593 C   0  0  0  0  0  0
    2.4129   -0.0458    0.7451 C   0  0  0  0  0  0
    3.8806   -2.3188    0.8010 Cl  0  0  0  0  0  0
    5.3978   -1.1593   -1.6651 Cl  0  0  0  0  0  0
    1.1129    2.3195    2.0989 C   0  0  0  0  0  0
    2.0813    2.0061    2.7585 O   0  0  0  0  0  0
   -2.7359    2.4403   -1.3234 C   0  0  0  0  0  0
   -5.9342   -2.8660    0.2741 N   0  0  0  0  0  0
   -5.8861    1.6129   -1.6615 H   0  0  0  0  0  0
   -4.3519    1.6476   -2.3453 H   0  0  0  0  0  0
    0.0315   -0.0065    1.4819 H   0  0  0  0  0  0
    0.0912    2.3566   -1.0175 H   0  0  0  0  0  0
   -0.5969    3.1962    0.3931 H   0  0  0  0  0  0
    2.4559    2.6685   -1.2735 H   0  0  0  0  0  0
    4.2828    1.3814   -2.3036 H   0  0  0  0  0  0
    1.8879   -0.4472    1.5993 H   0  0  0  0  0  0
    0.3289    2.9167    2.5407 H   0  0  0  0  0  0
   -2.5317    2.1965   -2.3660 H   0  0  0  0  0  0
   -3.7898    2.6936   -1.2092 H   0  0  0  0  0  0
   -2.1232    3.2901   -1.0223 H   0  0  0  0  0  0
   -6.8016   -2.8470   -0.1596 H   0  0  0  0  0  0
   -5.6906   -3.6163    0.8387 H   0  0  0  0  0  0
  1  2  1  0  0  0
  1  6  2  0  0  0
  2  3  2  0  0  0
  2 25  1  0  0  0
  3  4  1  0  0  0
  4  5  2  0  0  0
  4 11  1  0  0  0
  5  6  1  0  0  0
  5  8  1  0  0  0
  6  7  1  0  0  0
  7 26  1  0  0  0
  7 27  1  0  0  0
  8  9  2  0  0  0
  8 24  1  0  0  0
  9 10  1  0  0  0
  9 12  1  0  0  0
 10 11  2  0  0  0
 10 28  1  0  0  0
 12 13  1  0  0  0
 12 29  1  0  0  0
 12 30  1  0  0  0
 13 14  1  0  0  0
 13 22  1  0  0  0
 14 15  1  0  0  0
 14 19  2  0  0  0
 15 16  2  0  0  0
 15 31  1  0  0  0
 16 17  1  0  0  0
 16 32  1  0  0  0
 17 18  2  0  0  0
 17 21  1  0  0  0
 18 19  1  0  0  0
 18 20  1  0  0  0
 19 33  1  0  0  0
 22 23  2  0  0  0
 22 34  1  0  0  0
 24 35  1  0  0  0
 24 36  1  0  0  0
 24 37  1  0  0  0
 25 38  1  0  0  0
 25 39  1  0  0  0
M  END
>  <ACTIVITY>
6.85387

>  <set_rl>
2

>  <Min_dist>
0.175824

>  <Avg_dist>
0.543263

>  <PC_uM>
0.51

>  <TG_uM>
0.083

>  <RL_uM>
0.14

$$$$
24-4A
  Cerius2 12110214553D 1   1.00000                          
 
 54 56  0  0  0  0  0  0  0  0999 V2000
    5.6045   -0.7705   -0.3896 N   0  0  0  0  0  0
    5.3355   -0.2515   -1.5841 C   0  0  0  0  0  0
    4.1752    0.3042   -1.8785 N   0  0  0  0  0  0
    3.1987    0.3683   -0.9622 C   0  0  0  0  0  0
    3.4420   -0.1730    0.3240 C   0  0  0  0  0  0
    4.7061   -0.7572    0.5849 C   0  0  0  0  0  0
    4.9937   -1.2981    1.8188 N   0  0  0  0  0  0
    2.4343   -0.1148    1.2939 C   0  0  0  0  0  0
    1.2436    0.4701    0.9512 C   0  0  0  0  0  0
    1.0673    0.9828   -0.3285 C   0  0  0  0  0  0
    2.0178    0.9248   -1.2342 N   0  0  0  0  0  0
    0.1272    0.5569    1.9597 C   0  0  0  0  0  0
   -1.0291    1.2203    1.3523 N   0  0  0  0  0  0
   -2.0014    0.4634    0.6895 C   0  0  0  0  0  0
   -1.8158   -0.9007    0.5103 C   0  0  0  0  0  0
   -2.7787   -1.6512   -0.1462 C   0  0  0  0  0  0
   -3.9300   -1.0379   -0.6251 C   0  0  0  0  0  0
   -4.1152    0.3276   -0.4453 C   0  0  0  0  0  0
   -3.1540    1.0758    0.2165 C   0  0  0  0  0  0
   -5.2416    0.9287   -0.9135 O   0  0  0  0  0  0
   -5.1398    2.3143   -0.5793 C   0  0  0  0  0  0
   -4.8763   -1.7745   -1.2706 O   0  0  0  0  0  0
   -5.7882   -2.2402   -0.2738 C   0  0  0  0  0  0
   -2.5964   -2.9874   -0.3221 O   0  0  0  0  0  0
   -1.3378   -3.3141    0.2705 C   0  0  0  0  0  0
   -1.1674    2.6761    1.4388 C   0  0  0  0  0  0
   -0.6349    3.2933    0.2131 C   0  0  0  0  0  0
   -0.2102    3.7855   -0.7644 C   0  0  0  0  0  0
    2.6524   -0.6793    2.6740 C   0  0  0  0  0  0
    6.3135   -0.2957   -2.5593 N   0  0  0  0  0  0
    5.8673   -1.1602    2.2171 H   0  0  0  0  0  0
    4.3225   -1.8168    2.2893 H   0  0  0  0  0  0
    0.1237    1.4409   -0.5856 H   0  0  0  0  0  0
   -0.1549   -0.4471    2.2767 H   0  0  0  0  0  0
    0.4623    1.1301    2.8242 H   0  0  0  0  0  0
   -0.9207   -1.3772    0.8822 H   0  0  0  0  0  0
   -3.2979    2.1370    0.3566 H   0  0  0  0  0  0
   -6.0252    2.8402   -0.9365 H   0  0  0  0  0  0
   -5.0647    2.4225    0.5027 H   0  0  0  0  0  0
   -4.2518    2.7371   -1.0492 H   0  0  0  0  0  0
   -6.5680   -2.8381   -0.7456 H   0  0  0  0  0  0
   -5.2518   -2.8505    0.4527 H   0  0  0  0  0  0
   -6.2405   -1.3870    0.2318 H   0  0  0  0  0  0
   -1.1472   -4.3809    0.1537 H   0  0  0  0  0  0
   -0.5468   -2.7477   -0.2210 H   0  0  0  0  0  0
   -1.3594   -3.0628    1.3310 H   0  0  0  0  0  0
   -2.2205    2.9353    1.5481 H   0  0  0  0  0  0
   -0.6115    3.0433    2.3015 H   0  0  0  0  0  0
    0.1697    4.2257   -1.6388 H   0  0  0  0  0  0
    2.4828   -1.7559    2.6573 H   0  0  0  0  0  0
    3.6755   -0.4775    2.9916 H   0  0  0  0  0  0
    1.9568   -0.2127    3.3715 H   0  0  0  0  0  0
    7.1740   -0.6991   -2.3653 H   0  0  0  0  0  0
    6.1395    0.0767   -3.4379 H   0  0  0  0  0  0
  1  2  1  0  0  0
  1  6  2  0  0  0
  2  3  2  0  0  0
  2 30  1  0  0  0
  3  4  1  0  0  0
  4  5  2  0  0  0
  4 11  1  0  0  0
  5  6  1  0  0  0
  5  8  1  0  0  0
  6  7  1  0  0  0
  7 31  1  0  0  0
  7 32  1  0  0  0
  8  9  2  0  0  0
  8 29  1  0  0  0
  9 10  1  0  0  0
  9 12  1  0  0  0
 10 11  2  0  0  0
 10 33  1  0  0  0
 12 13  1  0  0  0
 12 34  1  0  0  0
 12 35  1  0  0  0
 13 14  1  0  0  0
 13 26  1  0  0  0
 14 15  1  0  0  0
 14 19  2  0  0  0
 15 16  2  0  0  0
 15 36  1  0  0  0
 16 17  1  0  0  0
 16 24  1  0  0  0
 17 18  2  0  0  0
 17 22  1  0  0  0
 18 19  1  0  0  0
 18 20  1  0  0  0
 19 37  1  0  0  0
 20 21  1  0  0  0
 21 38  1  0  0  0
 21 39  1  0  0  0
 21 40  1  0  0  0
 22 23  1  0  0  0
 23 41  1  0  0  0
 23 42  1  0  0  0
 23 43  1  0  0  0
 24 25  1  0  0  0
 25 44  1  0  0  0
 25 45  1  0  0  0
 25 46  1  0  0  0
 26 27  1  0  0  0
 26 47  1  0  0  0
 26 48  1  0  0  0
 27 28  3  0  0  0
 28 49  1  0  0  0
 29 50  1  0  0  0
 29 51  1  0  0  0
 29 52  1  0  0  0
 30 53  1  0  0  0
 30 54  1  0  0  0
M  END
>  <ACTIVITY>
7.92812

>  <set_rl>
2

>  <Min_dist>
0.082474

>  <Avg_dist>
0.507783

>  <PC_uM>
0.0535

>  <TG_uM>
0.0077

>  <RL_uM>
0.0118

$$$$
9-13S
  Cerius2 12110214553D 1   1.00000                          
 
 44 46  0  0  0  0  0  0  0  0999 V2000
   -5.8988   -0.9905   -0.8659 N   0  0  0  0  0  0
   -6.4182   -0.5757    0.2859 C   0  0  0  0  0  0
   -5.7321    0.1236    1.1702 N   0  0  0  0  0  0
   -4.4532    0.4505    0.9358 C   0  0  0  0  0  0
   -3.8594    0.0287   -0.2790 C   0  0  0  0  0  0
   -4.6431   -0.7193   -1.1921 C   0  0  0  0  0  0
   -4.1136   -1.1540   -2.3873 N   0  0  0  0  0  0
   -2.5251    0.3611   -0.5414 C   0  0  0  0  0  0
   -1.8455    1.0883    0.4002 C   0  0  0  0  0  0
   -2.4853    1.4721    1.5728 C   0  0  0  0  0  0
   -3.7383    1.1565    1.8126 N   0  0  0  0  0  0
   -0.4070    1.4709    0.1650 C   0  0  0  0  0  0
    0.4472    0.2947    0.3470 N   0  0  0  0  0  0
    1.8286    0.4008    0.1709 C   0  0  0  0  0  0
    2.6398   -0.7144    0.3433 C   0  0  0  0  0  0
    4.0058   -0.6093    0.1686 C   0  0  0  0  0  0
    4.5696    0.6043   -0.1775 C   0  0  0  0  0  0
    3.7646    1.7213   -0.3510 C   0  0  0  0  0  0
    2.3926    1.6188   -0.1822 C   0  0  0  0  0  0
    4.3206    2.9138   -0.6908 O   0  0  0  0  0  0
    5.7295    2.6981   -0.7942 C   0  0  0  0  0  0
    4.8833   -1.8200    0.3561 C   0  0  0  0  0  0
    6.2179   -1.4686    0.1271 F   0  0  0  0  0  0
    4.7448   -2.2984    1.6635 F   0  0  0  0  0  0
    4.5018   -2.8170   -0.5482 F   0  0  0  0  0  0
   -1.8558   -0.0686   -1.8214 C   0  0  0  0  0  0
   -7.7337   -0.8902    0.5690 N   0  0  0  0  0  0
   -3.2105   -1.5067   -2.4179 H   0  0  0  0  0  0
   -4.6438   -1.1074   -3.1982 H   0  0  0  0  0  0
   -1.9379    2.0448    2.3068 H   0  0  0  0  0  0
   -0.2930    1.8490   -0.8509 H   0  0  0  0  0  0
   -0.1160    2.2447    0.8755 H   0  0  0  0  0  0
    0.0533   -0.5579    0.5899 H   0  0  0  0  0  0
    2.2018   -1.6637    0.6144 H   0  0  0  0  0  0
    5.6382    0.6834   -0.3127 H   0  0  0  0  0  0
    1.7646    2.4871   -0.3168 H   0  0  0  0  0  0
    6.2210    3.6322   -1.0665 H   0  0  0  0  0  0
    6.1152    2.3506    0.1642 H   0  0  0  0  0  0
    5.9269    1.9472   -1.5592 H   0  0  0  0  0  0
   -1.5001   -1.0938   -1.7189 H   0  0  0  0  0  0
   -2.5711   -0.0125   -2.6420 H   0  0  0  0  0  0
   -1.0122    0.5896   -2.0290 H   0  0  0  0  0  0
   -8.2573   -1.4030   -0.0664 H   0  0  0  0  0  0
   -8.1335   -0.5981    1.4032 H   0  0  0  0  0  0
  1  2  1  0  0  0
  1  6  2  0  0  0
  2  3  2  0  0  0
  2 27  1  0  0  0
  3  4  1  0  0  0
  4  5  2  0  0  0
  4 11  1  0  0  0
  5  6  1  0  0  0
  5  8  1  0  0  0
  6  7  1  0  0  0
  7 28  1  0  0  0
  7 29  1  0  0  0
  8  9  2  0  0  0
  8 26  1  0  0  0
  9 10  1  0  0  0
  9 12  1  0  0  0
 10 11  2  0  0  0
 10 30  1  0  0  0
 12 13  1  0  0  0
 12 31  1  0  0  0
 12 32  1  0  0  0
 13 14  1  0  0  0
 13 33  1  0  0  0
 14 15  1  0  0  0
 14 19  2  0  0  0
 15 16  2  0  0  0
 15 34  1  0  0  0
 16 17  1  0  0  0
 16 22  1  0  0  0
 17 18  2  0  0  0
 17 35  1  0  0  0
 18 19  1  0  0  0
 18 20  1  0  0  0
 19 36  1  0  0  0
 20 21  1  0  0  0
 21 37  1  0  0  0
 21 38  1  0  0  0
 21 39  1  0  0  0
 22 23  1  0  0  0
 22 24  1  0  0  0
 22 25  1  0  0  0
 26 40  1  0  0  0
 26 41  1  0  0  0
 26 42  1  0  0  0
 27 43  1  0  0  0
 27 44  1  0  0  0
M  END
>  <ACTIVITY>
7.76955

>  <set_rl>
2

>  <Min_dist>
0.095238

>  <Avg_dist>
0.465682

>  <PC_uM>
0.02

>  <TG_uM>
0.018

>  <RL_uM>
0.017

$$$$
9-13T
  Cerius2 12110214553D 1   1.00000                          
 
 44 47  0  0  0  0  0  0  0  0999 V2000
   -4.9255    1.2735   -0.1649 N   0  0  0  0  0  0
   -5.5091    0.0834   -0.2731 C   0  0  0  0  0  0
   -4.8433   -1.0520   -0.1760 N   0  0  0  0  0  0
   -3.5203   -1.0494    0.0403 C   0  0  0  0  0  0
   -2.8576    0.1966    0.1615 C   0  0  0  0  0  0
   -3.6221    1.3842    0.0493 C   0  0  0  0  0  0
   -3.0264    2.6214    0.1590 N   0  0  0  0  0  0
   -1.4763    0.2191    0.3881 C   0  0  0  0  0  0
   -0.8198   -0.9797    0.4834 C   0  0  0  0  0  0
   -1.5278   -2.1687    0.3553 C   0  0  0  0  0  0
   -2.8246   -2.1824    0.1428 N   0  0  0  0  0  0
    0.6672   -1.0088    0.7263 C   0  0  0  0  0  0
    1.4032   -1.0045   -0.6151 C   0  0  0  0  0  0
    2.8902   -1.0337   -0.3722 C   0  0  0  0  0  0
    3.5447   -2.2234   -0.2771 C   0  0  0  0  0  0
    4.9192   -2.2702   -0.0533 C   0  0  0  0  0  0
    5.6474   -1.1275    0.0767 C   0  0  0  0  0  0
    5.0066    0.1195   -0.0157 C   0  0  0  0  0  0
    3.6093    0.1671   -0.2487 C   0  0  0  0  0  0
    2.9684    1.4145   -0.3415 C   0  0  0  0  0  0
    3.6957    2.5568   -0.2069 C   0  0  0  0  0  0
    5.0698    2.5100    0.0218 C   0  0  0  0  0  0
    5.7250    1.3207    0.1128 C   0  0  0  0  0  0
   -0.7334    1.5233    0.5225 C   0  0  0  0  0  0
   -6.8718    0.0335   -0.4964 N   0  0  0  0  0  0
   -2.1666    2.7845   -0.2593 H   0  0  0  0  0  0
   -3.4667    3.3295    0.6546 H   0  0  0  0  0  0
   -0.9980   -3.1067    0.4322 H   0  0  0  0  0  0
    0.9584   -0.1311    1.3033 H   0  0  0  0  0  0
    0.9273   -1.9107    1.2805 H   0  0  0  0  0  0
    1.1120   -1.8822   -1.1921 H   0  0  0  0  0  0
    1.1432   -0.1026   -1.1693 H   0  0  0  0  0  0
    2.9903   -3.1450   -0.3762 H   0  0  0  0  0  0
    5.4141   -3.2274    0.0184 H   0  0  0  0  0  0
    6.7121   -1.1791    0.2503 H   0  0  0  0  0  0
    1.9043    1.4662   -0.5191 H   0  0  0  0  0  0
    3.2007    3.5140   -0.2787 H   0  0  0  0  0  0
    5.6236    3.4315    0.1245 H   0  0  0  0  0  0
    6.7900    1.2999    0.2907 H   0  0  0  0  0  0
   -0.4986    1.9116   -0.4685 H   0  0  0  0  0  0
   -1.3549    2.2421    1.0565 H   0  0  0  0  0  0
    0.1907    1.3596    1.0769 H   0  0  0  0  0  0
   -7.3815    0.8554   -0.5709 H   0  0  0  0  0  0
   -7.3187   -0.8235   -0.5786 H   0  0  0  0  0  0
  1  2  1  0  0  0
  1  6  2  0  0  0
  2  3  2  0  0  0
  2 25  1  0  0  0
  3  4  1  0  0  0
  4  5  2  0  0  0
  4 11  1  0  0  0
  5  6  1  0  0  0
  5  8  1  0  0  0
  6  7  1  0  0  0
  7 26  1  0  0  0
  7 27  1  0  0  0
  8  9  2  0  0  0
  8 24  1  0  0  0
  9 10  1  0  0  0
  9 12  1  0  0  0
 10 11  2  0  0  0
 10 28  1  0  0  0
 12 13  1  0  0  0
 12 29  1  0  0  0
 12 30  1  0  0  0
 13 14  1  0  0  0
 13 31  1  0  0  0
 13 32  1  0  0  0
 14 15  1  0  0  0
 14 19  2  0  0  0
 15 16  2  0  0  0
 15 33  1  0  0  0
 16 17  1  0  0  0
 16 34  1  0  0  0
 17 18  2  0  0  0
 17 35  1  0  0  0
 18 19  1  0  0  0
 18 23  1  0  0  0
 19 20  1  0  0  0
 20 21  2  0  0  0
 20 36  1  0  0  0
 21 22  1  0  0  0
 21 37  1  0  0  0
 22 23  2  0  0  0
 22 38  1  0  0  0
 23 39  1  0  0  0
 24 40  1  0  0  0
 24 41  1  0  0  0
 24 42  1  0  0  0
 25 43  1  0  0  0
 25 44  1  0  0  0
M  END
>  <ACTIVITY>
6.86967

>  <set_rl>
2

>  <Min_dist>
0.213333

>  <Avg_dist>
0.531252

>  <PC_uM>
0.064

>  <TG_uM>
0.026

>  <RL_uM>
0.135

$$$$
9-15A
  Cerius2 12110214553D 1   1.00000                          
 
 40 43  0  0  0  0  0  0  0  0999 V2000
   -5.1051    0.6591   -1.0657 N   0  0  0  0  0  0
   -5.4937    0.6608    0.2061 C   0  0  0  0  0  0
   -4.7177    0.2522    1.1924 N   0  0  0  0  0  0
   -3.4773   -0.1917    0.9440 C   0  0  0  0  0  0
   -3.0223   -0.2112   -0.3973 C   0  0  0  0  0  0
   -3.8977    0.2394   -1.4161 C   0  0  0  0  0  0
   -3.5044    0.2405   -2.7364 N   0  0  0  0  0  0
   -1.7298   -0.6710   -0.6758 C   0  0  0  0  0  0
   -0.9538   -1.0864    0.3741 C   0  0  0  0  0  0
   -1.4589   -1.0424    1.6681 C   0  0  0  0  0  0
   -2.6734   -0.6095    1.9225 N   0  0  0  0  0  0
    0.4446   -1.5905    0.1264 C   0  0  0  0  0  0
    1.3865   -0.4703    0.1927 N   0  0  0  0  0  0
    2.7475   -0.6920   -0.0055 C   0  0  0  0  0  0
    3.2150   -1.9630   -0.2645 C   0  0  0  0  0  0
    4.5724   -2.1948   -0.4638 C   0  0  0  0  0  0
    5.4752   -1.1768   -0.4086 C   0  0  0  0  0  0
    5.0402    0.1335   -0.1472 C   0  0  0  0  0  0
    3.6599    0.3834    0.0513 C   0  0  0  0  0  0
    3.2268    1.6930    0.3113 C   0  0  0  0  0  0
    4.1362    2.7046    0.3696 C   0  0  0  0  0  0
    5.4941    2.4600    0.1741 C   0  0  0  0  0  0
    5.9494    1.2038   -0.0849 C   0  0  0  0  0  0
   -6.7649    1.1103    0.5082 N   0  0  0  0  0  0
   -4.1140    0.5518   -3.4237 H   0  0  0  0  0  0
   -2.6180   -0.0700   -2.9787 H   0  0  0  0  0  0
   -1.3555   -0.6978   -1.6885 H   0  0  0  0  0  0
   -0.8368   -1.3731    2.4866 H   0  0  0  0  0  0
    0.7044   -2.3290    0.8848 H   0  0  0  0  0  0
    0.4956   -2.0501   -0.8607 H   0  0  0  0  0  0
    1.0624    0.4256    0.3746 H   0  0  0  0  0  0
    2.5197   -2.7881   -0.3128 H   0  0  0  0  0  0
    4.9158   -3.1988   -0.6653 H   0  0  0  0  0  0
    6.5250   -1.3765   -0.5652 H   0  0  0  0  0  0
    2.1773    1.8972    0.4641 H   0  0  0  0  0  0
    3.8003    3.7113    0.5699 H   0  0  0  0  0  0
    6.1951    3.2800    0.2251 H   0  0  0  0  0  0
    7.0046    1.0290   -0.2339 H   0  0  0  0  0  0
   -7.3525    1.4157   -0.2006 H   0  0  0  0  0  0
   -7.0697    1.1205    1.4290 H   0  0  0  0  0  0
  1  2  1  0  0  0
  1  6  2  0  0  0
  2  3  2  0  0  0
  2 24  1  0  0  0
  3  4  1  0  0  0
  4  5  2  0  0  0
  4 11  1  0  0  0
  5  6  1  0  0  0
  5  8  1  0  0  0
  6  7  1  0  0  0
  7 25  1  0  0  0
  7 26  1  0  0  0
  8  9  2  0  0  0
  8 27  1  0  0  0
  9 10  1  0  0  0
  9 12  1  0  0  0
 10 11  2  0  0  0
 10 28  1  0  0  0
 12 13  1  0  0  0
 12 29  1  0  0  0
 12 30  1  0  0  0
 13 14  1  0  0  0
 13 31  1  0  0  0
 14 15  1  0  0  0
 14 19  2  0  0  0
 15 16  2  0  0  0
 15 32  1  0  0  0
 16 17  1  0  0  0
 16 33  1  0  0  0
 17 18  2  0  0  0
 17 34  1  0  0  0
 18 19  1  0  0  0
 18 23  1  0  0  0
 19 20  1  0  0  0
 20 21  2  0  0  0
 20 35  1  0  0  0
 21 22  1  0  0  0
 21 36  1  0  0  0
 22 23  2  0  0  0
 22 37  1  0  0  0
 23 38  1  0  0  0
 24 39  1  0  0  0
 24 40  1  0  0  0
M  END
>  <ACTIVITY>
6.63827

>  <set_rl>
2

>  <Min_dist>
0.064516

>  <Avg_dist>
0.455019

>  <PC_uM>
0.26

>  <TG_uM>
0.15

>  <RL_uM>
0.23

$$$$
25-26
  Cerius2 12110214553D 1   1.00000                          
 
 45 48  0  0  0  0  0  0  0  0999 V2000
   -6.4914    1.3459   -0.3602 N   0  0  0  0  0  0
   -6.9267    0.3330    0.3839 C   0  0  0  0  0  0
   -6.1281   -0.6074    0.8506 N   0  0  0  0  0  0
   -4.8127   -0.5784    0.5865 C   0  0  0  0  0  0
   -4.3065    0.4832   -0.2027 C   0  0  0  0  0  0
   -5.2103    1.4657   -0.6773 C   0  0  0  0  0  0
   -4.7686    2.5186   -1.4494 N   0  0  0  0  0  0
   -2.9373    0.5333   -0.4901 C   0  0  0  0  0  0
   -2.1310   -0.4721    0.0182 C   0  0  0  0  0  0
   -2.7001   -1.4879    0.7891 C   0  0  0  0  0  0
   -3.9873   -1.5179    1.0481 N   0  0  0  0  0  0
   -0.7555   -0.4699   -0.2395 N   0  0  0  0  0  0
    0.0925   -1.5355    0.3005 C   0  0  0  0  0  0
    1.5210   -1.3017   -0.1188 C   0  0  0  0  0  0
    2.3597   -0.5460    0.6794 C   0  0  0  0  0  0
    3.6696   -0.3302    0.2974 C   0  0  0  0  0  0
    4.1435   -0.8729   -0.8884 C   0  0  0  0  0  0
    3.2999   -1.6313   -1.6874 C   0  0  0  0  0  0
    1.9923   -1.8481   -1.2984 C   0  0  0  0  0  0
    5.4314   -0.6618   -1.2667 O   0  0  0  0  0  0
    5.9676    0.2051   -0.3681 C   0  0  0  0  0  0
    6.6808   -0.2754    0.7209 C   0  0  0  0  0  0
    7.2252    0.6080    1.6326 C   0  0  0  0  0  0
    7.0597    1.9700    1.4611 C   0  0  0  0  0  0
    6.3495    2.4515    0.3768 C   0  0  0  0  0  0
    5.8079    1.5726   -0.5410 C   0  0  0  0  0  0
   -8.2752    0.2631    0.6816 N   0  0  0  0  0  0
   -5.3982    3.1843   -1.7677 H   0  0  0  0  0  0
   -3.8280    2.5939   -1.6744 H   0  0  0  0  0  0
   -2.5227    1.3304   -1.0895 H   0  0  0  0  0  0
   -2.0657   -2.2685    1.1822 H   0  0  0  0  0  0
   -0.3636    0.2371   -0.7756 H   0  0  0  0  0  0
    0.0285   -1.5346    1.3886 H   0  0  0  0  0  0
   -0.2456   -2.4983   -0.0826 H   0  0  0  0  0  0
    1.9903   -0.1237    1.6023 H   0  0  0  0  0  0
    4.3241    0.2608    0.9209 H   0  0  0  0  0  0
    3.6663   -2.0549   -2.6109 H   0  0  0  0  0  0
    1.3353   -2.4387   -1.9197 H   0  0  0  0  0  0
    6.8097   -1.3392    0.8557 H   0  0  0  0  0  0
    7.7804    0.2345    2.4804 H   0  0  0  0  0  0
    7.4856    2.6590    2.1755 H   0  0  0  0  0  0
    6.2214    3.5158    0.2453 H   0  0  0  0  0  0
    5.2532    1.9491   -1.3878 H   0  0  0  0  0  0
   -8.8811    0.9438    0.3495 H   0  0  0  0  0  0
   -8.6152   -0.4667    1.2227 H   0  0  0  0  0  0
  1  2  1  0  0  0
  1  6  2  0  0  0
  2  3  2  0  0  0
  2 27  1  0  0  0
  3  4  1  0  0  0
  4  5  2  0  0  0
  4 11  1  0  0  0
  5  6  1  0  0  0
  5  8  1  0  0  0
  6  7  1  0  0  0
  7 28  1  0  0  0
  7 29  1  0  0  0
  8  9  2  0  0  0
  8 30  1  0  0  0
  9 10  1  0  0  0
  9 12  1  0  0  0
 10 11  2  0  0  0
 10 31  1  0  0  0
 12 13  1  0  0  0
 12 32  1  0  0  0
 13 14  1  0  0  0
 13 33  1  0  0  0
 13 34  1  0  0  0
 14 15  1  0  0  0
 14 19  2  0  0  0
 15 16  2  0  0  0
 15 35  1  0  0  0
 16 17  1  0  0  0
 16 36  1  0  0  0
 17 18  2  0  0  0
 17 20  1  0  0  0
 18 19  1  0  0  0
 18 37  1  0  0  0
 19 38  1  0  0  0
 20 21  1  0  0  0
 21 22  1  0  0  0
 21 26  2  0  0  0
 22 23  2  0  0  0
 22 39  1  0  0  0
 23 24  1  0  0  0
 23 40  1  0  0  0
 24 25  2  0  0  0
 24 41  1  0  0  0
 25 26  1  0  0  0
 25 42  1  0  0  0
 26 43  1  0  0  0
 27 44  1  0  0  0
 27 45  1  0  0  0
M  END
>  <ACTIVITY>
5.5376

>  <set_rl>
2

>  <Min_dist>
0.042253

>  <Avg_dist>
0.462547

>  <PC_uM>
24.3

>  <TG_uM>
3.7

>  <RL_uM>
2.9

$$$$
26-9
  Cerius2 12110214553D 1   1.00000                          
 
 57 60  0  0  0  0  0  0  0  0999 V2000
   -6.5871    0.8196   -0.6048 N   0  0  0  0  0  0
   -6.8915   -0.2406    0.1381 C   0  0  0  0  0  0
   -5.9761   -1.0150    0.6896 N   0  0  0  0  0  0
   -4.6719   -0.7566    0.5177 C   0  0  0  0  0  0
   -4.3024    0.3632   -0.2671 C   0  0  0  0  0  0
   -5.3270    1.1602   -0.8348 C   0  0  0  0  0  0
   -5.0216    2.2598   -1.6064 N   0  0  0  0  0  0
   -2.9453    0.6490   -0.4573 C   0  0  0  0  0  0
   -2.0245   -0.1773    0.1313 C   0  0  0  0  0  0
   -2.4517   -1.2606    0.8899 C   0  0  0  0  0  0
   -3.7275   -1.5231    1.0644 N   0  0  0  0  0  0
   -0.5513    0.0876   -0.0439 C   0  0  0  0  0  0
    0.2191   -0.9324    0.6799 N   0  0  0  0  0  0
    1.5703   -0.6408    0.4682 C   0  0  0  0  0  0
    2.2243    0.2619    1.2968 C   0  0  0  0  0  0
    3.5582    0.5495    1.0874 C   0  0  0  0  0  0
    4.2458   -0.0633    0.0488 C   0  0  0  0  0  0
    3.5924   -0.9653   -0.7799 C   0  0  0  0  0  0
    2.2601   -1.2581   -0.5673 C   0  0  0  0  0  0
    1.5509   -2.2372   -1.4670 C   0  0  0  0  0  0
    4.3393   -1.6299   -1.9075 C   0  0  0  0  0  0
    5.6021    0.2294   -0.1638 N   0  0  0  0  0  0
    6.6263   -0.6726   -0.1273 C   0  0  0  0  0  0
    7.7765   -0.0147   -0.3795 C   0  0  0  0  0  0
    7.4524    1.3421   -0.5790 C   0  0  0  0  0  0
    6.1154    1.4624   -0.4473 C   0  0  0  0  0  0
    4.2678    1.5293    1.9860 C   0  0  0  0  0  0
    1.4778    0.9277    2.4240 C   0  0  0  0  0  0
   -2.5099    1.8304   -1.2855 C   0  0  0  0  0  0
   -8.2240   -0.5444    0.3417 N   0  0  0  0  0  0
   -5.5392    3.0751   -1.5154 H   0  0  0  0  0  0
   -4.2889    2.2188   -2.2408 H   0  0  0  0  0  0
   -1.7153   -1.9042    1.3481 H   0  0  0  0  0  0
   -0.2988    0.0497   -1.1036 H   0  0  0  0  0  0
   -0.3100    1.0741    0.3520 H   0  0  0  0  0  0
    0.0416   -0.7868    1.6625 H   0  0  0  0  0  0
    1.7364   -3.2526   -1.1168 H   0  0  0  0  0  0
    0.4796   -2.0368   -1.4492 H   0  0  0  0  0  0
    1.9236   -2.1304   -2.4857 H   0  0  0  0  0  0
    4.7838   -2.5591   -1.5510 H   0  0  0  0  0  0
    3.6488   -1.8468   -2.7226 H   0  0  0  0  0  0
    5.1254   -0.9646   -2.2646 H   0  0  0  0  0  0
    6.5320   -1.7303    0.0698 H   0  0  0  0  0  0
    8.7647   -0.4483   -0.4209 H   0  0  0  0  0  0
    8.1467    2.1388   -0.8014 H   0  0  0  0  0  0
    5.5494    2.3773   -0.5425 H   0  0  0  0  0  0
    4.7033    0.9971    2.8317 H   0  0  0  0  0  0
    5.0576    2.0298    1.4259 H   0  0  0  0  0  0
    3.5556    2.2697    2.3504 H   0  0  0  0  0  0
    1.5571    0.3167    3.3231 H   0  0  0  0  0  0
    1.9079    1.9111    2.6138 H   0  0  0  0  0  0
    0.4284    1.0368    2.1503 H   0  0  0  0  0  0
   -2.5154    1.5564   -2.3405 H   0  0  0  0  0  0
   -3.1964    2.6612   -1.1223 H   0  0  0  0  0  0
   -1.5031    2.1281   -0.9927 H   0  0  0  0  0  0
   -8.9140    0.0110   -0.0537 H   0  0  0  0  0  0
   -8.4694   -1.3131    0.8801 H   0  0  0  0  0  0
  1  2  1  0  0  0
  1  6  2  0  0  0
  2  3  2  0  0  0
  2 30  1  0  0  0
  3  4  1  0  0  0
  4  5  2  0  0  0
  4 11  1  0  0  0
  5  6  1  0  0  0
  5  8  1  0  0  0
  6  7  1  0  0  0
  7 31  1  0  0  0
  7 32  1  0  0  0
  8  9  2  0  0  0
  8 29  1  0  0  0
  9 10  1  0  0  0
  9 12  1  0  0  0
 10 11  2  0  0  0
 10 33  1  0  0  0
 12 13  1  0  0  0
 12 34  1  0  0  0
 12 35  1  0  0  0
 13 14  1  0  0  0
 13 36  1  0  0  0
 14 15  1  0  0  0
 14 19  2  0  0  0
 15 16  2  0  0  0
 15 28  1  0  0  0
 16 17  1  0  0  0
 16 27  1  0  0  0
 17 18  2  0  0  0
 17 22  1  0  0  0
 18 19  1  0  0  0
 18 21  1  0  0  0
 19 20  1  0  0  0
 20 37  1  0  0  0
 20 38  1  0  0  0
 20 39  1  0  0  0
 21 40  1  0  0  0
 21 41  1  0  0  0
 21 42  1  0  0  0
 22 23  1  0  0  0
 22 26  1  0  0  0
 23 24  2  0  0  0
 23 43  1  0  0  0
 24 25  1  0  0  0
 24 44  1  0  0  0
 25 26  2  0  0  0
 25 45  1  0  0  0
 26 46  1  0  0  0
 27 47  1  0  0  0
 27 48  1  0  0  0
 27 49  1  0  0  0
 28 50  1  0  0  0
 28 51  1  0  0  0
 28 52  1  0  0  0
 29 53  1  0  0  0
 29 54  1  0  0  0
 29 55  1  0  0  0
 30 56  1  0  0  0
 30 57  1  0  0  0
M  END
>  <ACTIVITY>
6.76955

>  <set_rl>
2

>  <Min_dist>
0.123457

>  <Avg_dist>
0.508519

>  <PC_uM>
0.62

>  <TG_uM>
0.075

>  <RL_uM>
0.17

$$$$
27-15
  Cerius2 12110214553D 1   1.00000                          
 
 40 42  0  0  0  0  0  0  0  0999 V2000
   -5.0239    0.5490   -0.4536 N   0  0  0  0  0  0
   -5.1311   -0.7147   -0.0534 C   0  0  0  0  0  0
   -4.0936   -1.4351    0.3293 N   0  0  0  0  0  0
   -2.8610   -0.9079    0.3289 C   0  0  0  0  0  0
   -2.7006    0.4355   -0.0905 C   0  0  0  0  0  0
   -3.8493    1.1621   -0.4903 C   0  0  0  0  0  0
   -3.7481    2.4712   -0.9072 N   0  0  0  0  0  0
   -1.4210    1.0033   -0.0971 C   0  0  0  0  0  0
   -0.3688    0.2245    0.3073 C   0  0  0  0  0  0
   -0.5925   -1.0876    0.7074 C   0  0  0  0  0  0
   -1.7965   -1.6142    0.7112 N   0  0  0  0  0  0
    1.0283    0.7892    0.3177 C   0  0  0  0  0  0
    1.9728   -0.2486    0.7523 N   0  0  0  0  0  0
    3.2444    0.1741    0.3557 C   0  0  0  0  0  0
    3.7591    1.3731    0.8311 C   0  0  0  0  0  0
    5.0162    1.7881    0.4372 C   0  0  0  0  0  0
    5.7626    1.0116   -0.4302 C   0  0  0  0  0  0
    5.2539   -0.1829   -0.9060 C   0  0  0  0  0  0
    3.9993   -0.6074   -0.5111 C   0  0  0  0  0  0
    3.3612   -2.1074   -1.1083 Cl  0  0  0  0  0  0
    1.9639   -0.2391    2.2213 C   0  0  0  0  0  0
   -1.2071    2.4288   -0.5365 C   0  0  0  0  0  0
   -6.3834   -1.2988   -0.0371 N   0  0  0  0  0  0
   -4.2446    2.7726   -1.6841 H   0  0  0  0  0  0
   -3.1802    3.0916   -0.4239 H   0  0  0  0  0  0
    0.2458   -1.6907    1.0235 H   0  0  0  0  0  0
    1.2925    1.1238   -0.6855 H   0  0  0  0  0  0
    1.0739    1.6332    1.0060 H   0  0  0  0  0  0
    3.1768    1.9807    1.5080 H   0  0  0  0  0  0
    5.4167    2.7205    0.8068 H   0  0  0  0  0  0
    6.7449    1.3391   -0.7370 H   0  0  0  0  0  0
    5.8393   -0.7868   -1.5836 H   0  0  0  0  0  0
    2.7262   -0.9234    2.5937 H   0  0  0  0  0  0
    2.1741    0.7688    2.5793 H   0  0  0  0  0  0
    0.9847   -0.5554    2.5808 H   0  0  0  0  0  0
   -1.4096    3.1005    0.2977 H   0  0  0  0  0  0
   -0.1754    2.5571   -0.8640 H   0  0  0  0  0  0
   -1.8815    2.6600   -1.3611 H   0  0  0  0  0  0
   -7.1603   -0.7882   -0.3138 H   0  0  0  0  0  0
   -6.4854   -2.2193    0.2511 H   0  0  0  0  0  0
  1  2  1  0  0  0
  1  6  2  0  0  0
  2  3  2  0  0  0
  2 23  1  0  0  0
  3  4  1  0  0  0
  4  5  2  0  0  0
  4 11  1  0  0  0
  5  6  1  0  0  0
  5  8  1  0  0  0
  6  7  1  0  0  0
  7 24  1  0  0  0
  7 25  1  0  0  0
  8  9  2  0  0  0
  8 22  1  0  0  0
  9 10  1  0  0  0
  9 12  1  0  0  0
 10 11  2  0  0  0
 10 26  1  0  0  0
 12 13  1  0  0  0
 12 27  1  0  0  0
 12 28  1  0  0  0
 13 14  1  0  0  0
 13 21  1  0  0  0
 14 15  1  0  0  0
 14 19  2  0  0  0
 15 16  2  0  0  0
 15 29  1  0  0  0
 16 17  1  0  0  0
 16 30  1  0  0  0
 17 18  2  0  0  0
 17 31  1  0  0  0
 18 19  1  0  0  0
 18 32  1  0  0  0
 19 20  1  0  0  0
 21 33  1  0  0  0
 21 34  1  0  0  0
 21 35  1  0  0  0
 22 36  1  0  0  0
 22 37  1  0  0  0
 22 38  1  0  0  0
 23 39  1  0  0  0
 23 40  1  0  0  0
M  END
>  <ACTIVITY>
7

>  <set_rl>
2

>  <Min_dist>
0.054054

>  <Avg_dist>
0.476141

>  <PC_uM>
0.084

>  <TG_uM>
0.018

>  <RL_uM>
0.1

$$$$
10-2C
  Cerius2 12110214553D 1   1.00000                          
 
 38 40  0  0  0  0  0  0  0  0999 V2000
   -5.2040    0.0234    0.0000 N   0  0  0  0  0  0
   -5.0232   -1.2942   -0.0010 C   0  0  0  0  0  0
   -3.8275   -1.8528   -0.0015 N   0  0  0  0  0  0
   -2.7216   -1.0949   -0.0013 C   0  0  0  0  0  0
   -2.8678    0.3141   -0.0007 C   0  0  0  0  0  0
   -4.1755    0.8594    0.0003 C   0  0  0  0  0  0
   -4.3728    2.2228    0.0005 N   0  0  0  0  0  0
   -1.7244    1.1217    0.0000 C   0  0  0  0  0  0
   -0.5007    0.5055   -0.0001 C   0  0  0  0  0  0
   -0.4245   -0.8822   -0.0008 C   0  0  0  0  0  0
   -1.5022   -1.6344   -0.0014 N   0  0  0  0  0  0
    0.7602    1.3308    0.0001 C   0  0  0  0  0  0
    1.9149    0.4505    0.0000 O   0  0  0  0  0  0
    3.1579    0.9698    0.0001 C   0  0  0  0  0  0
    3.3127    2.1746    0.0004 O   0  0  0  0  0  0
    4.3327    0.0742    0.0000 C   0  0  0  0  0  0
    5.6224    0.6091    0.0002 C   0  0  0  0  0  0
    6.7149   -0.2330    0.0006 C   0  0  0  0  0  0
    6.5350   -1.6049    0.0003 C   0  0  0  0  0  0
    5.2597   -2.1417   -0.0003 C   0  0  0  0  0  0
    4.1583   -1.3112    0.0056 C   0  0  0  0  0  0
   -1.8362    2.6246    0.0002 C   0  0  0  0  0  0
   -6.1356   -2.1139   -0.0012 N   0  0  0  0  0  0
   -3.8160    2.7935   -0.5520 H   0  0  0  0  0  0
   -5.0685    2.6121    0.5531 H   0  0  0  0  0  0
    0.5464   -1.3552   -0.0012 H   0  0  0  0  0  0
    0.7829    1.9599   -0.8898 H   0  0  0  0  0  0
    0.7828    1.9596    0.8902 H   0  0  0  0  0  0
    5.7642    1.6798   -0.0004 H   0  0  0  0  0  0
    7.7131    0.1795    0.0007 H   0  0  0  0  0  0
    7.3938   -2.2597    0.0003 H   0  0  0  0  0  0
    5.1263   -3.2135   -0.0011 H   0  0  0  0  0  0
    3.1634   -1.7315    0.0051 H   0  0  0  0  0  0
   -1.9921    2.9775   -1.0192 H   0  0  0  0  0  0
   -2.6791    2.9261    0.6220 H   0  0  0  0  0  0
   -0.9181    3.0571    0.3980 H   0  0  0  0  0  0
   -7.0244   -1.7254   -0.0005 H   0  0  0  0  0  0
   -6.0277   -3.0779   -0.0020 H   0  0  0  0  0  0
  1  2  1  0  0  0
  1  6  2  0  0  0
  2  3  2  0  0  0
  2 23  1  0  0  0
  3  4  1  0  0  0
  4  5  2  0  0  0
  4 11  1  0  0  0
  5  6  1  0  0  0
  5  8  1  0  0  0
  6  7  1  0  0  0
  7 24  1  0  0  0
  7 25  1  0  0  0
  8  9  2  0  0  0
  8 22  1  0  0  0
  9 10  1  0  0  0
  9 12  1  0  0  0
 10 11  2  0  0  0
 10 26  1  0  0  0
 12 13  1  0  0  0
 12 27  1  0  0  0
 12 28  1  0  0  0
 13 14  1  0  0  0
 14 15  2  0  0  0
 14 16  1  0  0  0
 16 17  1  0  0  0
 16 21  2  0  0  0
 17 18  2  0  0  0
 17 29  1  0  0  0
 18 19  1  0  0  0
 18 30  1  0  0  0
 19 20  2  0  0  0
 19 31  1  0  0  0
 20 21  1  0  0  0
 20 32  1  0  0  0
 21 33  1  0  0  0
 22 34  1  0  0  0
 22 35  1  0  0  0
 22 36  1  0  0  0
 23 37  1  0  0  0
 23 38  1  0  0  0
M  END
>  <ACTIVITY>
6.63827

>  <set_rl>
2

>  <Min_dist>
0.103896

>  <Avg_dist>
0.581755

>  <PC_uM>
0.25

>  <TG_uM>
0.056

>  <RL_uM>
0.23

$$$$
29-2-PIRITREXIM
  Cerius2 12110214553D 1   1.00000                          
 
 43 45  0  0  0  0  0  0  0  0999 V2000
   -3.8472    1.1075    0.6913 N   0  0  0  0  0  0
   -4.6511    0.0894    0.9362 C   0  0  0  0  0  0
   -4.3569   -1.1608    0.5924 N   0  0  0  0  0  0
   -3.2216   -1.4562   -0.0249 C   0  0  0  0  0  0
   -2.3207   -0.4017   -0.3129 C   0  0  0  0  0  0
   -1.1000   -0.6216   -0.9619 C   0  0  0  0  0  0
   -0.2927    0.4597   -1.1990 C   0  0  0  0  0  0
   -0.6974    1.7271   -0.7970 C   0  0  0  0  0  0
   -1.8446    1.9264   -0.1877 N   0  0  0  0  0  0
   -2.6745    0.9153    0.0714 C   0  0  0  0  0  0
    1.0316    0.2752   -1.8941 C   0  0  0  0  0  0
    2.1286    0.1730   -0.8659 C   0  0  0  0  0  0
    2.5192    1.2979   -0.1543 C   0  0  0  0  0  0
    3.5283    1.2039    0.7923 C   0  0  0  0  0  0
    4.1444   -0.0103    1.0268 C   0  0  0  0  0  0
    3.7536   -1.1349    0.3158 C   0  0  0  0  0  0
    2.7412   -1.0417   -0.6280 C   0  0  0  0  0  0
    4.3600   -2.3300    0.5466 O   0  0  0  0  0  0
    5.3415   -2.1060    1.5608 C   0  0  0  0  0  0
    1.9128    2.4930   -0.3851 O   0  0  0  0  0  0
    2.5256    3.4428    0.4892 C   0  0  0  0  0  0
   -0.6857   -2.0069   -1.3866 C   0  0  0  0  0  0
   -2.9254   -2.7548   -0.3768 N   0  0  0  0  0  0
   -5.8501    0.3337    1.5781 N   0  0  0  0  0  0
   -0.0514    2.5708   -0.9902 H   0  0  0  0  0  0
    1.0055   -0.6376   -2.4893 H   0  0  0  0  0  0
    1.2222    1.1283   -2.5452 H   0  0  0  0  0  0
    3.8329    2.0798    1.3458 H   0  0  0  0  0  0
    4.9305   -0.0835    1.7637 H   0  0  0  0  0  0
    2.4366   -1.9176   -1.1815 H   0  0  0  0  0  0
    5.8566   -3.0411    1.7808 H   0  0  0  0  0  0
    6.0628   -1.3672    1.2115 H   0  0  0  0  0  0
    4.8536   -1.7388    2.4638 H   0  0  0  0  0  0
    2.0697    4.4215    0.3394 H   0  0  0  0  0  0
    2.3825    3.1298    1.5234 H   0  0  0  0  0  0
    3.5920    3.5017    0.2716 H   0  0  0  0  0  0
   -1.1517   -2.2486   -2.3419 H   0  0  0  0  0  0
    0.3986   -2.0459   -1.4911 H   0  0  0  0  0  0
   -1.0044   -2.7282   -0.6341 H   0  0  0  0  0  0
   -3.1731   -3.4852    0.2115 H   0  0  0  0  0  0
   -2.4691   -2.9387   -1.2128 H   0  0  0  0  0  0
   -6.4565   -0.3991    1.7683 H   0  0  0  0  0  0
   -6.0854    1.2380    1.8385 H   0  0  0  0  0  0
  1  2  1  0  0  0
  1 10  2  0  0  0
  2  3  2  0  0  0
  2 24  1  0  0  0
  3  4  1  0  0  0
  4  5  2  0  0  0
  4 23  1  0  0  0
  5  6  1  0  0  0
  5 10  1  0  0  0
  6  7  2  0  0  0
  6 22  1  0  0  0
  7  8  1  0  0  0
  7 11  1  0  0  0
  8  9  2  0  0  0
  8 25  1  0  0  0
  9 10  1  0  0  0
 11 12  1  0  0  0
 11 26  1  0  0  0
 11 27  1  0  0  0
 12 13  1  0  0  0
 12 17  2  0  0  0
 13 14  2  0  0  0
 13 20  1  0  0  0
 14 15  1  0  0  0
 14 28  1  0  0  0
 15 16  2  0  0  0
 15 29  1  0  0  0
 16 17  1  0  0  0
 16 18  1  0  0  0
 17 30  1  0  0  0
 18 19  1  0  0  0
 19 31  1  0  0  0
 19 32  1  0  0  0
 19 33  1  0  0  0
 20 21  1  0  0  0
 21 34  1  0  0  0
 21 35  1  0  0  0
 21 36  1  0  0  0
 22 37  1  0  0  0
 22 38  1  0  0  0
 22 39  1  0  0  0
 23 40  1  0  0  0
 23 41  1  0  0  0
 24 42  1  0  0  0
 24 43  1  0  0  0
M  END
>  <ACTIVITY>
8.82391

>  <set_rl>
2

>  <Min_dist>
0.148148

>  <Avg_dist>
0.558497

>  <PC_uM>
0.031

>  <TG_uM>
0.017

>  <RL_uM>
0.0015

$$$$
24-3C
  Cerius2 12110214553D 1   1.00000                          
 
 48 50  0  0  0  0  0  0  0  0999 V2000
   -5.5914    0.7619   -0.5431 N   0  0  0  0  0  0
   -5.8034   -0.4873   -0.1394 C   0  0  0  0  0  0
   -4.8328   -1.2810    0.2730 N   0  0  0  0  0  0
   -3.5644   -0.8478    0.3011 C   0  0  0  0  0  0
   -3.2930    0.4769   -0.1209 C   0  0  0  0  0  0
   -4.3735    1.2849   -0.5533 C   0  0  0  0  0  0
   -4.1637    2.5797   -0.9741 N   0  0  0  0  0  0
   -1.9745    0.9468   -0.0980 C   0  0  0  0  0  0
   -0.9943    0.0940    0.3368 C   0  0  0  0  0  0
   -1.3259   -1.1947    0.7377 C   0  0  0  0  0  0
   -2.5659   -1.6294    0.7137 N   0  0  0  0  0  0
    0.4407    0.5523    0.3796 C   0  0  0  0  0  0
    1.2933   -0.5505    0.8431 N   0  0  0  0  0  0
    2.6071   -0.2261    0.4754 C   0  0  0  0  0  0
    3.1968    0.9327    0.9577 C   0  0  0  0  0  0
    4.4916    1.2527    0.5948 C   0  0  0  0  0  0
    5.2036    0.4163   -0.2518 C   0  0  0  0  0  0
    4.6182   -0.7439   -0.7362 C   0  0  0  0  0  0
    3.3230   -1.0703   -0.3699 C   0  0  0  0  0  0
    2.7474   -2.2078   -0.8436 O   0  0  0  0  0  0
    3.7155   -2.8429   -1.6811 C   0  0  0  0  0  0
    6.4771    0.7343   -0.6077 O   0  0  0  0  0  0
    6.7917    1.9677    0.0417 C   0  0  0  0  0  0
    1.2486   -0.5302    2.3113 C   0  0  0  0  0  0
   -1.6431    2.3492   -0.5391 C   0  0  0  0  0  0
   -7.0960   -0.9756   -0.1518 N   0  0  0  0  0  0
   -4.6168    2.9122   -1.7647 H   0  0  0  0  0  0
   -3.5630    3.1590   -0.4797 H   0  0  0  0  0  0
   -0.5435   -1.8568    1.0779 H   0  0  0  0  0  0
    0.7540    0.8592   -0.6183 H   0  0  0  0  0  0
    0.5326    1.3953    1.0646 H   0  0  0  0  0  0
    2.6440    1.5857    1.6168 H   0  0  0  0  0  0
    4.9494    2.1557    0.9708 H   0  0  0  0  0  0
    5.1734   -1.3945   -1.3957 H   0  0  0  0  0  0
    3.2971   -3.7643   -2.0860 H   0  0  0  0  0  0
    3.9822   -2.1744   -2.4997 H   0  0  0  0  0  0
    4.6058   -3.0743   -1.0963 H   0  0  0  0  0  0
    7.8086    2.2645   -0.2151 H   0  0  0  0  0  0
    6.0944    2.7389   -0.2857 H   0  0  0  0  0  0
    6.7120    1.8405    1.1213 H   0  0  0  0  0  0
    1.9477   -1.2674    2.7063 H   0  0  0  0  0  0
    1.5253    0.4614    2.6696 H   0  0  0  0  0  0
    0.2397   -0.7695    2.6475 H   0  0  0  0  0  0
   -1.8150    3.0399    0.2865 H   0  0  0  0  0  0
   -0.5970    2.3974   -0.8413 H   0  0  0  0  0  0
   -2.2777    2.6247   -1.3814 H   0  0  0  0  0  0
   -7.8252   -0.4100   -0.4506 H   0  0  0  0  0  0
   -7.2742   -1.8838    0.1384 H   0  0  0  0  0  0
  1  2  1  0  0  0
  1  6  2  0  0  0
  2  3  2  0  0  0
  2 26  1  0  0  0
  3  4  1  0  0  0
  4  5  2  0  0  0
  4 11  1  0  0  0
  5  6  1  0  0  0
  5  8  1  0  0  0
  6  7  1  0  0  0
  7 27  1  0  0  0
  7 28  1  0  0  0
  8  9  2  0  0  0
  8 25  1  0  0  0
  9 10  1  0  0  0
  9 12  1  0  0  0
 10 11  2  0  0  0
 10 29  1  0  0  0
 12 13  1  0  0  0
 12 30  1  0  0  0
 12 31  1  0  0  0
 13 14  1  0  0  0
 13 24  1  0  0  0
 14 15  1  0  0  0
 14 19  2  0  0  0
 15 16  2  0  0  0
 15 32  1  0  0  0
 16 17  1  0  0  0
 16 33  1  0  0  0
 17 18  2  0  0  0
 17 22  1  0  0  0
 18 19  1  0  0  0
 18 34  1  0  0  0
 19 20  1  0  0  0
 20 21  1  0  0  0
 21 35  1  0  0  0
 21 36  1  0  0  0
 21 37  1  0  0  0
 22 23  1  0  0  0
 23 38  1  0  0  0
 23 39  1  0  0  0
 23 40  1  0  0  0
 24 41  1  0  0  0
 24 42  1  0  0  0
 24 43  1  0  0  0
 25 44  1  0  0  0
 25 45  1  0  0  0
 25 46  1  0  0  0
 26 47  1  0  0  0
 26 48  1  0  0  0
M  END
>  <ACTIVITY>
7.35655

>  <set_rl>
2

>  <Min_dist>
0.068965

>  <Avg_dist>
0.460619

>  <PC_uM>
0.32

>  <TG_uM>
0.029

>  <RL_uM>
0.044

$$$$
24-3E
  Cerius2 12110214553D 1   1.00000                          
 
 54 56  0  0  0  0  0  0  0  0999 V2000
   -5.8563    0.9468   -0.6398 N   0  0  0  0  0  0
   -6.1347   -0.1490    0.0604 C   0  0  0  0  0  0
   -5.2041   -0.8846    0.6390 N   0  0  0  0  0  0
   -3.9103   -0.5475    0.5403 C   0  0  0  0  0  0
   -3.5684    0.6127   -0.1970 C   0  0  0  0  0  0
   -4.6084    1.3650   -0.7967 C   0  0  0  0  0  0
   -4.3299    2.5010   -1.5246 N   0  0  0  0  0  0
   -2.2225    0.9807   -0.3105 C   0  0  0  0  0  0
   -1.2853    0.1925    0.3041 C   0  0  0  0  0  0
   -1.6856   -0.9337    1.0132 C   0  0  0  0  0  0
   -2.9510   -1.2733    1.1157 N   0  0  0  0  0  0
    0.1767    0.5459    0.2110 C   0  0  0  0  0  0
    0.9715   -0.4681    0.9166 N   0  0  0  0  0  0
    2.2881   -0.3358    0.4610 C   0  0  0  0  0  0
    2.9667    0.8612    0.6356 C   0  0  0  0  0  0
    4.2711    0.9891    0.1836 C   0  0  0  0  0  0
    4.8970   -0.0785   -0.4430 C   0  0  0  0  0  0
    4.2222   -1.2726   -0.6185 C   0  0  0  0  0  0
    2.9214   -1.4079   -0.1635 C   0  0  0  0  0  0
    2.2583   -2.5837   -0.3364 O   0  0  0  0  0  0
    3.1562   -3.4692   -1.0086 C   0  0  0  0  0  0
    2.4688   -4.8172   -1.2350 C   0  0  0  0  0  0
    4.9373    2.1621    0.3542 O   0  0  0  0  0  0
    6.2390    1.9835   -0.2078 C   0  0  0  0  0  0
    7.0450    3.2740   -0.0480 C   0  0  0  0  0  0
    0.9757   -0.0888    2.3358 C   0  0  0  0  0  0
   -1.8164    2.2072   -1.0863 C   0  0  0  0  0  0
   -7.4556   -0.5339    0.1882 N   0  0  0  0  0  0
   -4.7861    2.6623   -2.3653 H   0  0  0  0  0  0
   -3.6776    3.1395   -1.1965 H   0  0  0  0  0  0
   -0.9366   -1.5465    1.4926 H   0  0  0  0  0  0
    0.4766    0.5785   -0.8365 H   0  0  0  0  0  0
    0.3445    1.5214    0.6674 H   0  0  0  0  0  0
    2.4794    1.6928    1.1228 H   0  0  0  0  0  0
    5.9130    0.0233   -0.7947 H   0  0  0  0  0  0
    4.7118   -2.1020   -1.1070 H   0  0  0  0  0  0
    3.4388   -3.0395   -1.9696 H   0  0  0  0  0  0
    4.0480   -3.6140   -0.3989 H   0  0  0  0  0  0
    3.1536   -5.4927   -1.7477 H   0  0  0  0  0  0
    2.1861   -5.2469   -0.2740 H   0  0  0  0  0  0
    1.5769   -4.6724   -1.8447 H   0  0  0  0  0  0
    6.7491    1.1702    0.3083 H   0  0  0  0  0  0
    6.1474    1.7410   -1.2666 H   0  0  0  0  0  0
    8.0379    3.1377   -0.4768 H   0  0  0  0  0  0
    6.5349    4.0873   -0.5642 H   0  0  0  0  0  0
    7.1366    3.5165    1.0107 H   0  0  0  0  0  0
    1.6386   -0.7549    2.8879 H   0  0  0  0  0  0
    1.3267    0.9383    2.4362 H   0  0  0  0  0  0
   -0.0350   -0.1681    2.7361 H   0  0  0  0  0  0
   -1.9169    3.0880   -0.4521 H   0  0  0  0  0  0
   -0.7797    2.1072   -1.4075 H   0  0  0  0  0  0
   -2.4590    2.3136   -1.9603 H   0  0  0  0  0  0
   -8.1564   -0.0082   -0.2283 H   0  0  0  0  0  0
   -7.6821   -1.3297    0.6944 H   0  0  0  0  0  0
  1  2  1  0  0  0
  1  6  2  0  0  0
  2  3  2  0  0  0
  2 28  1  0  0  0
  3  4  1  0  0  0
  4  5  2  0  0  0
  4 11  1  0  0  0
  5  6  1  0  0  0
  5  8  1  0  0  0
  6  7  1  0  0  0
  7 29  1  0  0  0
  7 30  1  0  0  0
  8  9  2  0  0  0
  8 27  1  0  0  0
  9 10  1  0  0  0
  9 12  1  0  0  0
 10 11  2  0  0  0
 10 31  1  0  0  0
 12 13  1  0  0  0
 12 32  1  0  0  0
 12 33  1  0  0  0
 13 14  1  0  0  0
 13 26  1  0  0  0
 14 15  1  0  0  0
 14 19  2  0  0  0
 15 16  2  0  0  0
 15 34  1  0  0  0
 16 17  1  0  0  0
 16 23  1  0  0  0
 17 18  2  0  0  0
 17 35  1  0  0  0
 18 19  1  0  0  0
 18 36  1  0  0  0
 19 20  1  0  0  0
 20 21  1  0  0  0
 21 22  1  0  0  0
 21 37  1  0  0  0
 21 38  1  0  0  0
 22 39  1  0  0  0
 22 40  1  0  0  0
 22 41  1  0  0  0
 23 24  1  0  0  0
 24 25  1  0  0  0
 24 42  1  0  0  0
 24 43  1  0  0  0
 25 44  1  0  0  0
 25 45  1  0  0  0
 25 46  1  0  0  0
 26 47  1  0  0  0
 26 48  1  0  0  0
 26 49  1  0  0  0
 27 50  1  0  0  0
 27 51  1  0  0  0
 27 52  1  0  0  0
 28 53  1  0  0  0
 28 54  1  0  0  0
M  END
>  <ACTIVITY>
5.52

>  <set_rl>
2

>  <Min_dist>
0.034091

>  <Avg_dist>
0.475467

>  <PC_uM>
3.1

>  <TG_uM>
0.1

>  <RL_uM>
3000

$$$$
9-13E
  Cerius2 12110214553D 1   1.00000                          
 
 39 41  0  0  0  0  0  0  0  0999 V2000
   -4.9082    1.0427    0.1579 N   0  0  0  0  0  0
   -5.3285   -0.2188    0.1355 C   0  0  0  0  0  0
   -4.5115   -1.2430   -0.0239 N   0  0  0  0  0  0
   -3.1938   -1.0462   -0.1736 C   0  0  0  0  0  0
   -2.7025    0.2822   -0.1564 C   0  0  0  0  0  0
   -3.6249    1.3434    0.0185 C   0  0  0  0  0  0
   -3.1992    2.6533    0.0421 N   0  0  0  0  0  0
   -1.3295    0.5071   -0.3107 C   0  0  0  0  0  0
   -0.5129   -0.5810   -0.4734 C   0  0  0  0  0  0
   -1.0571   -1.8597   -0.4812 C   0  0  0  0  0  0
   -2.3472   -2.0636   -0.3358 N   0  0  0  0  0  0
    0.9724   -0.3915   -0.6439 C   0  0  0  0  0  0
    1.7754   -0.4134    0.9825 S   0  0  0  0  0  0
    3.4533   -0.1783    0.4985 C   0  0  0  0  0  0
    4.4552   -0.1284    1.4602 C   0  0  0  0  0  0
    5.7690    0.0560    1.0772 C   0  0  0  0  0  0
    6.0882    0.1914   -0.2616 C   0  0  0  0  0  0
    5.0937    0.1427   -1.2215 C   0  0  0  0  0  0
    3.7785   -0.0480   -0.8464 C   0  0  0  0  0  0
    7.5231    0.3930   -0.6756 C   0  0  0  0  0  0
   -0.7662    1.9049   -0.2988 C   0  0  0  0  0  0
   -6.6792   -0.4682    0.2862 N   0  0  0  0  0  0
   -3.5790    3.2752    0.6823 H   0  0  0  0  0  0
   -2.5196    2.9537   -0.5814 H   0  0  0  0  0  0
   -0.4023   -2.7087   -0.6107 H   0  0  0  0  0  0
    1.3734   -1.1979   -1.2580 H   0  0  0  0  0  0
    1.1631    0.5650   -1.1305 H   0  0  0  0  0  0
    4.2066   -0.2334    2.5060 H   0  0  0  0  0  0
    6.5481    0.0949    1.8241 H   0  0  0  0  0  0
    5.3466    0.2492   -2.2661 H   0  0  0  0  0  0
    3.0024   -0.0859   -1.5965 H   0  0  0  0  0  0
    7.9908   -0.5761   -0.8493 H   0  0  0  0  0  0
    7.5576    0.9825   -1.5918 H   0  0  0  0  0  0
    8.0589    0.9185    0.1150 H   0  0  0  0  0  0
   -0.8720    2.3477   -1.2892 H   0  0  0  0  0  0
   -1.3081    2.5088    0.4290 H   0  0  0  0  0  0
    0.2890    1.8691   -0.0277 H   0  0  0  0  0  0
   -7.2983    0.2691    0.4050 H   0  0  0  0  0  0
   -7.0084   -1.3806    0.2731 H   0  0  0  0  0  0
  1  2  1  0  0  0
  1  6  2  0  0  0
  2  3  2  0  0  0
  2 22  1  0  0  0
  3  4  1  0  0  0
  4  5  2  0  0  0
  4 11  1  0  0  0
  5  6  1  0  0  0
  5  8  1  0  0  0
  6  7  1  0  0  0
  7 23  1  0  0  0
  7 24  1  0  0  0
  8  9  2  0  0  0
  8 21  1  0  0  0
  9 10  1  0  0  0
  9 12  1  0  0  0
 10 11  2  0  0  0
 10 25  1  0  0  0
 12 13  1  0  0  0
 12 26  1  0  0  0
 12 27  1  0  0  0
 13 14  1  0  0  0
 14 15  1  0  0  0
 14 19  2  0  0  0
 15 16  2  0  0  0
 15 28  1  0  0  0
 16 17  1  0  0  0
 16 29  1  0  0  0
 17 18  2  0  0  0
 17 20  1  0  0  0
 18 19  1  0  0  0
 18 30  1  0  0  0
 19 31  1  0  0  0
 20 32  1  0  0  0
 20 33  1  0  0  0
 20 34  1  0  0  0
 21 35  1  0  0  0
 21 36  1  0  0  0
 21 37  1  0  0  0
 22 38  1  0  0  0
 22 39  1  0  0  0
M  END
>  <ACTIVITY>
6.30103

>  <set_rl>
2

>  <Min_dist>
0.028986

>  <Avg_dist>
0.530689

>  <PC_uM>
0.53

>  <TG_uM>
0.057

>  <RL_uM>
0.5

$$$$
30-2
  Cerius2 12110214553D 1   1.00000                          
 
 45 48  0  0  0  0  0  0  0  0999 V2000
   -5.5085   -0.5629    0.2626 C   0  0  0  0  0  0
   -4.6404   -1.3615   -0.3299 N   0  0  0  0  0  0
   -3.3724   -0.9696   -0.5174 C   0  0  0  0  0  0
   -2.9888    0.3174   -0.0659 C   0  0  0  0  0  0
   -3.9618    1.1322    0.5632 C   0  0  0  0  0  0
   -5.1894    0.6513    0.7007 N   0  0  0  0  0  0
   -3.6408    2.3917    1.0198 N   0  0  0  0  0  0
   -1.6684    0.7436   -0.2522 C   0  0  0  0  0  0
   -0.7962   -0.1134   -0.8702 C   0  0  0  0  0  0
   -1.2347   -1.3635   -1.2902 C   0  0  0  0  0  0
   -2.4759   -1.7572   -1.1126 N   0  0  0  0  0  0
    0.6358    0.2989   -1.0945 C   0  0  0  0  0  0
    1.3730    0.2183    0.1737 N   0  0  0  0  0  0
    2.7085    0.5236   -0.1170 C   0  0  0  0  0  0
    3.5673   -0.3985    0.4674 C   0  0  0  0  0  0
    4.9369   -0.2770    0.3130 C   0  0  0  0  0  0
    5.4605    0.7690   -0.4352 C   0  0  0  0  0  0
    4.6104    1.6857   -1.0235 C   0  0  0  0  0  0
    3.2443    1.5684   -0.8686 C   0  0  0  0  0  0
    5.7693   -1.1808    0.8936 O   0  0  0  0  0  0
    7.1021   -0.7912    0.5560 C   0  0  0  0  0  0
    2.7249   -1.4232    1.2005 C   0  0  0  0  0  0
    1.3145   -1.1937    0.6102 C   0  0  0  0  0  0
   -1.2198    2.1051    0.2128 C   0  0  0  0  0  0
   -6.8067   -1.0057    0.4298 N   0  0  0  0  0  0
   -3.0490    2.9593    0.5015 H   0  0  0  0  0  0
   -4.0064    2.7109    1.8596 H   0  0  0  0  0  0
   -0.5368   -2.0291   -1.7763 H   0  0  0  0  0  0
    1.0955   -0.3669   -1.8249 H   0  0  0  0  0  0
    0.6650    1.3228   -1.4672 H   0  0  0  0  0  0
    6.5292    0.8660   -0.5566 H   0  0  0  0  0  0
    5.0172    2.4984   -1.6071 H   0  0  0  0  0  0
    2.5870    2.2892   -1.3322 H   0  0  0  0  0  0
    7.8091   -1.4906    1.0022 H   0  0  0  0  0  0
    7.2191   -0.7978   -0.5276 H   0  0  0  0  0  0
    7.2946    0.2121    0.9361 H   0  0  0  0  0  0
    3.0732   -2.4337    0.9864 H   0  0  0  0  0  0
    2.7303   -1.2311    2.2734 H   0  0  0  0  0  0
    0.5488   -1.3310    1.3737 H   0  0  0  0  0  0
    1.1385   -1.8540   -0.2389 H   0  0  0  0  0  0
   -1.5100    2.8544   -0.5237 H   0  0  0  0  0  0
   -1.6890    2.3351    1.1694 H   0  0  0  0  0  0
   -0.1361    2.1105    0.3290 H   0  0  0  0  0  0
   -7.4616   -0.4358    0.8625 H   0  0  0  0  0  0
   -7.0631   -1.8865    0.1146 H   0  0  0  0  0  0
  1  2  1  0  0  0
  1  6  2  0  0  0
  1 25  1  0  0  0
  2  3  2  0  0  0
  3  4  1  0  0  0
  3 11  1  0  0  0
  4  5  2  0  0  0
  4  8  1  0  0  0
  5  6  1  0  0  0
  5  7  1  0  0  0
  7 26  1  0  0  0
  7 27  1  0  0  0
  8  9  2  0  0  0
  8 24  1  0  0  0
  9 10  1  0  0  0
  9 12  1  0  0  0
 10 11  2  0  0  0
 10 28  1  0  0  0
 12 13  1  0  0  0
 12 29  1  0  0  0
 12 30  1  0  0  0
 13 14  1  0  0  0
 13 23  1  0  0  0
 14 15  1  0  0  0
 14 19  2  0  0  0
 15 16  2  0  0  0
 15 22  1  0  0  0
 16 17  1  0  0  0
 16 20  1  0  0  0
 17 18  2  0  0  0
 17 31  1  0  0  0
 18 19  1  0  0  0
 18 32  1  0  0  0
 19 33  1  0  0  0
 20 21  1  0  0  0
 21 34  1  0  0  0
 21 35  1  0  0  0
 21 36  1  0  0  0
 22 23  1  0  0  0
 22 37  1  0  0  0
 22 38  1  0  0  0
 23 39  1  0  0  0
 23 40  1  0  0  0
 24 41  1  0  0  0
 24 42  1  0  0  0
 24 43  1  0  0  0
 25 44  1  0  0  0
 25 45  1  0  0  0
M  END
>  <ACTIVITY>
6.82391

>  <set_rl>
2

>  <Min_dist>
0.064516

>  <Avg_dist>
0.579868

>  <PC_uM>
0.29

>  <TG_uM>
0.048

>  <RL_uM>
0.15

$$$$
26-5
  Cerius2 12110214553D 1   1.00000                          
 
 43 46  0  0  0  0  0  0  0  0999 V2000
    4.7628   -1.4969    0.6202 C   0  0  0  0  0  0
    3.6964   -2.0138    0.0389 N   0  0  0  0  0  0
    2.6947   -1.2237   -0.3722 C   0  0  0  0  0  0
    2.8085    0.1737   -0.1682 C   0  0  0  0  0  0
    3.9751    0.6734    0.4608 C   0  0  0  0  0  0
    4.9088   -0.1921    0.8303 N   0  0  0  0  0  0
    4.1351    2.0235    0.6832 N   0  0  0  0  0  0
    1.7727    1.0147   -0.5919 C   0  0  0  0  0  0
    0.6825    0.4417   -1.1920 C   0  0  0  0  0  0
    0.6312   -0.9366   -1.3631 C   0  0  0  0  0  0
    1.6070   -1.7205   -0.9625 N   0  0  0  0  0  0
   -0.4591    1.3041   -1.6653 C   0  0  0  0  0  0
   -1.4387    1.4528   -0.5862 N   0  0  0  0  0  0
   -2.5114    0.6140   -0.3685 C   0  0  0  0  0  0
   -3.1969    1.1024    0.7579 C   0  0  0  0  0  0
   -4.3400    0.4452    1.2187 C   0  0  0  0  0  0
   -4.7894   -0.6828    0.5622 C   0  0  0  0  0  0
   -4.1082   -1.1640   -0.5531 C   0  0  0  0  0  0
   -2.9806   -0.5240   -1.0163 C   0  0  0  0  0  0
   -5.9015   -1.3271    1.0066 O   0  0  0  0  0  0
   -6.1104   -2.4397    0.1345 C   0  0  0  0  0  0
   -2.4602    2.2899    1.1976 C   0  0  0  0  0  0
   -1.4225    2.4412    0.3595 C   0  0  0  0  0  0
    1.8542    2.5064   -0.3933 C   0  0  0  0  0  0
    5.7687   -2.3494    1.0335 N   0  0  0  0  0  0
    4.9980    2.4407    0.5342 H   0  0  0  0  0  0
    3.3848    2.5570    0.9887 H   0  0  0  0  0  0
   -0.2342   -1.3754   -1.8373 H   0  0  0  0  0  0
   -0.0795    2.2856   -1.9492 H   0  0  0  0  0  0
   -0.9355    0.8357   -2.5265 H   0  0  0  0  0  0
   -4.8689    0.8172    2.0838 H   0  0  0  0  0  0
   -4.4679   -2.0476   -1.0595 H   0  0  0  0  0  0
   -2.4601   -0.9059   -1.8821 H   0  0  0  0  0  0
   -6.9961   -2.9896    0.4529 H   0  0  0  0  0  0
   -6.2526   -2.0807   -0.8848 H   0  0  0  0  0  0
   -5.2420   -3.0975    0.1703 H   0  0  0  0  0  0
   -2.7038    2.9217    2.0389 H   0  0  0  0  0  0
   -0.6875    3.2303    0.4191 H   0  0  0  0  0  0
    1.5380    2.7559    0.6195 H   0  0  0  0  0  0
    2.8815    2.8375   -0.5452 H   0  0  0  0  0  0
    1.2021    3.0046   -1.1107 H   0  0  0  0  0  0
    6.5616   -1.9918    1.4630 H   0  0  0  0  0  0
    5.6820   -3.3054    0.8941 H   0  0  0  0  0  0
  1  2  1  0  0  0
  1  6  2  0  0  0
  1 25  1  0  0  0
  2  3  2  0  0  0
  3  4  1  0  0  0
  3 11  1  0  0  0
  4  5  2  0  0  0
  4  8  1  0  0  0
  5  6  1  0  0  0
  5  7  1  0  0  0
  7 26  1  0  0  0
  7 27  1  0  0  0
  8  9  2  0  0  0
  8 24  1  0  0  0
  9 10  1  0  0  0
  9 12  1  0  0  0
 10 11  2  0  0  0
 10 28  1  0  0  0
 12 13  1  0  0  0
 12 29  1  0  0  0
 12 30  1  0  0  0
 13 14  1  0  0  0
 13 23  1  0  0  0
 14 15  2  0  0  0
 14 19  1  0  0  0
 15 16  1  0  0  0
 15 22  1  0  0  0
 16 17  2  0  0  0
 16 31  1  0  0  0
 17 18  1  0  0  0
 17 20  1  0  0  0
 18 19  2  0  0  0
 18 32  1  0  0  0
 19 33  1  0  0  0
 20 21  1  0  0  0
 21 34  1  0  0  0
 21 35  1  0  0  0
 21 36  1  0  0  0
 22 23  2  0  0  0
 22 37  1  0  0  0
 23 38  1  0  0  0
 24 39  1  0  0  0
 24 40  1  0  0  0
 24 41  1  0  0  0
 25 42  1  0  0  0
 25 43  1  0  0  0
M  END
>  <ACTIVITY>
6.3279

>  <set_rl>
2

>  <Min_dist>
0.343137

>  <Avg_dist>
0.589195

>  <PC_uM>
0.57

>  <TG_uM>
0.077

>  <RL_uM>
0.47

$$$$
18-3
  Cerius2 12110214553D 1   1.00000                          
 
 46 50  0  0  0  0  0  0  0  0999 V2000
   -5.3478    0.1036    0.5750 C   0  0  0  0  0  0
   -4.3510    0.2504    1.4278 N   0  0  0  0  0  0
   -3.1077   -0.1216    1.0927 C   0  0  0  0  0  0
   -2.8910   -0.6738   -0.1939 C   0  0  0  0  0  0
   -3.9972   -0.8082   -1.0684 C   0  0  0  0  0  0
   -5.1872   -0.4098   -0.6410 N   0  0  0  0  0  0
   -3.8406   -1.3394   -2.3298 N   0  0  0  0  0  0
   -1.5989   -1.0672   -0.5621 C   0  0  0  0  0  0
   -0.5901   -0.8983    0.3494 C   0  0  0  0  0  0
   -0.8680   -0.3503    1.5960 C   0  0  0  0  0  0
   -2.0835    0.0164    1.9354 N   0  0  0  0  0  0
    0.8182   -1.3065    0.0011 C   0  0  0  0  0  0
    1.7606   -0.3069    0.5214 N   0  0  0  0  0  0
    1.5500    0.8553   -0.2049 C   0  0  0  0  0  0
    0.5766    0.8234   -1.3188 C   0  0  0  0  0  0
    0.3427    1.9029   -2.0289 C   0  0  0  0  0  0
    1.0519    3.1557   -1.7162 C   0  0  0  0  0  0
    1.9191    3.1846   -0.7292 C   0  0  0  0  0  0
    2.1846    1.9684    0.0663 C   0  0  0  0  0  0
    3.1711    2.0362    1.1512 C   0  0  0  0  0  0
    4.0155    1.0956    1.4283 C   0  0  0  0  0  0
    4.1092   -0.1742    0.6980 C   0  0  0  0  0  0
    5.4460   -0.7454    0.4347 C   0  0  0  0  0  0
    5.5663   -1.8784   -0.2200 C   0  0  0  0  0  0
    4.3607   -2.5806   -0.6927 C   0  0  0  0  0  0
    3.1727   -2.0731   -0.4566 C   0  0  0  0  0  0
    3.0350   -0.7989    0.2833 C   0  0  0  0  0  0
   -6.6143    0.4952    0.9649 N   0  0  0  0  0  0
   -4.6069   -1.4256   -2.9183 H   0  0  0  0  0  0
   -2.9641   -1.6271   -2.6295 H   0  0  0  0  0  0
   -1.4032   -1.4915   -1.5358 H   0  0  0  0  0  0
   -0.0635   -0.2231    2.3052 H   0  0  0  0  0  0
    1.0357   -2.2773    0.4464 H   0  0  0  0  0  0
    0.9200   -1.3726   -1.0821 H   0  0  0  0  0  0
    0.0553   -0.0939   -1.5496 H   0  0  0  0  0  0
   -0.3683    1.8723   -2.8412 H   0  0  0  0  0  0
    0.8603    4.0465   -2.2959 H   0  0  0  0  0  0
    2.4405    4.1019   -0.4988 H   0  0  0  0  0  0
    3.1935    2.9294    1.7579 H   0  0  0  0  0  0
    4.6964    1.2556    2.2512 H   0  0  0  0  0  0
    6.3287   -0.2290    0.7818 H   0  0  0  0  0  0
    6.5452   -2.2929   -0.4110 H   0  0  0  0  0  0
    4.4537   -3.5111   -1.2329 H   0  0  0  0  0  0
    2.2901   -2.5893   -0.8045 H   0  0  0  0  0  0
   -7.3618    0.3966    0.3547 H   0  0  0  0  0  0
   -6.7558    0.8687    1.8488 H   0  0  0  0  0  0
  1  2  1  0  0  0
  1  6  2  0  0  0
  1 28  1  0  0  0
  2  3  2  0  0  0
  3  4  1  0  0  0
  3 11  1  0  0  0
  4  5  2  0  0  0
  4  8  1  0  0  0
  5  6  1  0  0  0
  5  7  1  0  0  0
  7 29  1  0  0  0
  7 30  1  0  0  0
  8  9  2  0  0  0
  8 31  1  0  0  0
  9 10  1  0  0  0
  9 12  1  0  0  0
 10 11  2  0  0  0
 10 32  1  0  0  0
 12 13  1  0  0  0
 12 33  1  0  0  0
 12 34  1  0  0  0
 13 14  1  0  0  0
 13 27  1  0  0  0
 14 15  1  0  0  0
 14 19  2  0  0  0
 15 16  2  0  0  0
 15 35  1  0  0  0
 16 17  1  0  0  0
 16 36  1  0  0  0
 17 18  2  0  0  0
 17 37  1  0  0  0
 18 19  1  0  0  0
 18 38  1  0  0  0
 19 20  1  0  0  0
 20 21  2  0  0  0
 20 39  1  0  0  0
 21 22  1  0  0  0
 21 40  1  0  0  0
 22 23  1  0  0  0
 22 27  2  0  0  0
 23 24  2  0  0  0
 23 41  1  0  0  0
 24 25  1  0  0  0
 24 42  1  0  0  0
 25 26  2  0  0  0
 25 43  1  0  0  0
 26 27  1  0  0  0
 26 44  1  0  0  0
 28 45  1  0  0  0
 28 46  1  0  0  0
M  END
>  <ACTIVITY>
6.72125

>  <set_rl>
2

>  <Min_dist>
0.177419

>  <Avg_dist>
0.533682

>  <PC_uM>
0.043

>  <TG_uM>
0.04

>  <RL_uM>
0.19

$$$$
10-18C
  Cerius2 12110214553D 1   1.00000                          
 
 26 27  0  0  0  0  0  0  0  0999 V2000
   -2.6250    0.7158    0.0022 N   0  0  0  0  0  0
   -2.8225   -0.5993    0.0014 C   0  0  0  0  0  0
   -1.8325   -1.4721    0.0003 N   0  0  0  0  0  0
   -0.5580   -1.0562   -0.0004 C   0  0  0  0  0  0
   -0.3015    0.3369    0.0000 C   0  0  0  0  0  0
   -1.4027    1.2283    0.0016 C   0  0  0  0  0  0
   -1.2081    2.5921    0.0015 N   0  0  0  0  0  0
    1.0231    0.7898   -0.0004 C   0  0  0  0  0  0
    2.0237   -0.1460   -0.0010 C   0  0  0  0  0  0
    1.7060   -1.4990   -0.0014 C   0  0  0  0  0  0
    0.4602   -1.9173   -0.0011 N   0  0  0  0  0  0
    3.4660    0.2908   -0.0019 C   0  0  0  0  0  0
    4.3125   -0.8605   -0.0024 O   0  0  0  0  0  0
    1.3390    2.2633   -0.0005 C   0  0  0  0  0  0
   -4.1207   -1.0727    0.0022 N   0  0  0  0  0  0
   -0.5128    2.9829    0.5537 H   0  0  0  0  0  0
   -1.7663    3.1617   -0.5507 H   0  0  0  0  0  0
    2.5045   -2.2263   -0.0023 H   0  0  0  0  0  0
    3.6643    0.8879   -0.8919 H   0  0  0  0  0  0
    3.6654    0.8878    0.8880 H   0  0  0  0  0  0
    5.2239   -0.5374   -0.0030 H   0  0  0  0  0  0
    1.2883    2.6459    1.0189 H   0  0  0  0  0  0
    2.3419    2.4199   -0.3978 H   0  0  0  0  0  0
    0.6154    2.7900   -0.6226 H   0  0  0  0  0  0
   -4.8642   -0.4496    0.0033 H   0  0  0  0  0  0
   -4.2887   -2.0280    0.0016 H   0  0  0  0  0  0
  1  2  1  0  0  0
  1  6  2  0  0  0
  2  3  2  0  0  0
  2 15  1  0  0  0
  3  4  1  0  0  0
  4  5  2  0  0  0
  4 11  1  0  0  0
  5  6  1  0  0  0
  5  8  1  0  0  0
  6  7  1  0  0  0
  7 16  1  0  0  0
  7 17  1  0  0  0
  8  9  2  0  0  0
  8 14  1  0  0  0
  9 10  1  0  0  0
  9 12  1  0  0  0
 10 11  2  0  0  0
 10 18  1  0  0  0
 12 13  1  0  0  0
 12 19  1  0  0  0
 12 20  1  0  0  0
 13 21  1  0  0  0
 14 22  1  0  0  0
 14 23  1  0  0  0
 14 24  1  0  0  0
 15 25  1  0  0  0
 15 26  1  0  0  0
M  END
>  <ACTIVITY>
5.07058

>  <set_rl>
2

>  <Min_dist>
0.275362

>  <Avg_dist>
0.568372

>  <PC_uM>
10.5

>  <TG_uM>
3.2

>  <RL_uM>
8.5

$$$$
28-12
  Cerius2 12110214553D 1   1.00000                          
 
 51 53  0  0  0  0  0  0  0  0999 V2000
   -5.5802   -0.7966   -0.9252 N   0  0  0  0  0  0
   -6.5411   -0.1983   -0.2368 C   0  0  0  0  0  0
   -6.2706    0.6279    0.7621 N   0  0  0  0  0  0
   -5.0125    0.8860    1.1126 C   0  0  0  0  0  0
   -3.9764    0.2731    0.4121 C   0  0  0  0  0  0
   -4.2993   -0.5833   -0.6299 C   0  0  0  0  0  0
   -3.3076   -1.2133   -1.3670 N   0  0  0  0  0  0
   -1.9319   -1.2165   -0.8503 C   0  0  0  0  0  0
   -1.6096    0.1998   -0.3563 C   0  0  0  0  0  0
   -2.5497    0.5464    0.7992 C   0  0  0  0  0  0
   -0.1594    0.2560    0.1283 C   0  0  0  0  0  0
    0.7782   -0.1061   -1.0253 C   0  0  0  0  0  0
    2.2065   -0.0507   -0.5480 C   0  0  0  0  0  0
    2.7997   -1.1803   -0.0160 C   0  0  0  0  0  0
    4.1136   -1.1334    0.4248 C   0  0  0  0  0  0
    4.8343    0.0512    0.3306 C   0  0  0  0  0  0
    4.2344    1.1845   -0.2053 C   0  0  0  0  0  0
    2.9217    1.1279   -0.6486 C   0  0  0  0  0  0
    4.9353    2.3462   -0.2992 O   0  0  0  0  0  0
    4.0581    3.3118   -0.8825 C   0  0  0  0  0  0
    6.1240    0.1014    0.7625 O   0  0  0  0  0  0
    6.9469   -0.2450   -0.3532 C   0  0  0  0  0  0
    4.6961   -2.2449    0.9489 O   0  0  0  0  0  0
    3.7145   -3.2827    0.9106 C   0  0  0  0  0  0
   -4.7377    1.7525    2.1592 N   0  0  0  0  0  0
   -7.8616   -0.4427   -0.5706 N   0  0  0  0  0  0
   -3.5187   -1.6450   -2.2096 H   0  0  0  0  0  0
   -1.8501   -1.9227   -0.0240 H   0  0  0  0  0  0
   -1.2402   -1.4961   -1.6450 H   0  0  0  0  0  0
   -1.7526    0.9115   -1.1694 H   0  0  0  0  0  0
   -2.4397    1.6015    1.0498 H   0  0  0  0  0  0
   -2.2900   -0.0571    1.6690 H   0  0  0  0  0  0
    0.0678    1.2628    0.4788 H   0  0  0  0  0  0
   -0.0215   -0.4527    0.9448 H   0  0  0  0  0  0
    0.5510   -1.1129   -1.3758 H   0  0  0  0  0  0
    0.6402    0.6027   -1.8418 H   0  0  0  0  0  0
    2.2390   -2.1004    0.0568 H   0  0  0  0  0  0
    2.4548    2.0080   -1.0655 H   0  0  0  0  0  0
    4.5788    4.2646   -0.9783 H   0  0  0  0  0  0
    3.7440    2.9687   -1.8683 H   0  0  0  0  0  0
    3.1825    3.4386   -0.2459 H   0  0  0  0  0  0
    7.9947   -0.2182   -0.0540 H   0  0  0  0  0  0
    6.6922   -1.2482   -0.6950 H   0  0  0  0  0  0
    6.7816    0.4672   -1.1617 H   0  0  0  0  0  0
    4.1378   -4.1986    1.3229 H   0  0  0  0  0  0
    2.8479   -2.9850    1.5011 H   0  0  0  0  0  0
    3.4089   -3.4560   -0.1212 H   0  0  0  0  0  0
   -5.4647    2.1758    2.6420 H   0  0  0  0  0  0
   -3.8184    1.9356    2.4086 H   0  0  0  0  0  0
   -8.5750   -0.0112   -0.0749 H   0  0  0  0  0  0
   -8.0739   -1.0455   -1.3004 H   0  0  0  0  0  0
  1  2  1  0  0  0
  1  6  2  0  0  0
  2  3  2  0  0  0
  2 26  1  0  0  0
  3  4  1  0  0  0
  4  5  2  0  0  0
  4 25  1  0  0  0
  5  6  1  0  0  0
  5 10  1  0  0  0
  6  7  1  0  0  0
  7  8  1  0  0  0
  7 27  1  0  0  0
  8  9  1  0  0  0
  8 28  1  0  0  0
  8 29  1  0  0  0
  9 10  1  0  0  0
  9 11  1  0  0  0
  9 30  1  0  0  0
 10 31  1  0  0  0
 10 32  1  0  0  0
 11 12  1  0  0  0
 11 33  1  0  0  0
 11 34  1  0  0  0
 12 13  1  0  0  0
 12 35  1  0  0  0
 12 36  1  0  0  0
 13 14  1  0  0  0
 13 18  2  0  0  0
 14 15  2  0  0  0
 14 37  1  0  0  0
 15 16  1  0  0  0
 15 23  1  0  0  0
 16 17  2  0  0  0
 16 21  1  0  0  0
 17 18  1  0  0  0
 17 19  1  0  0  0
 18 38  1  0  0  0
 19 20  1  0  0  0
 20 39  1  0  0  0
 20 40  1  0  0  0
 20 41  1  0  0  0
 21 22  1  0  0  0
 22 42  1  0  0  0
 22 43  1  0  0  0
 22 44  1  0  0  0
 23 24  1  0  0  0
 24 45  1  0  0  0
 24 46  1  0  0  0
 24 47  1  0  0  0
 25 48  1  0  0  0
 25 49  1  0  0  0
 26 50  1  0  0  0
 26 51  1  0  0  0
M  END
>  <ACTIVITY>
5.21467

>  <set_rl>
2

>  <Min_dist>
0.234694

>  <Avg_dist>
0.574418

>  <PC_uM>
61.7

>  <TG_uM>
0.47

>  <RL_uM>
6.1

$$$$
32-8
  Cerius2 12110214553D 1   1.00000                          
 
 44 46  0  0  0  0  0  0  0  0999 V2000
    2.1458    0.1754   -0.3156 C   0  0  0  0  0  0
    2.6466   -0.9132   -1.0366 C   0  0  0  0  0  0
    3.9325   -1.2268   -0.9193 N   0  0  0  0  0  0
    4.7298   -0.5201   -0.1320 C   0  0  0  0  0  0
    4.2810    0.5151    0.5616 N   0  0  0  0  0  0
    3.0079    0.8821    0.4908 C   0  0  0  0  0  0
    2.5267    2.0629    1.2929 C   0  0  0  0  0  0
    1.1646    2.5154    0.7618 C   0  0  0  0  0  0
    0.2670    1.3530    0.7065 N   0  0  0  0  0  0
    0.6954    0.5472   -0.4423 C   0  0  0  0  0  0
   -1.0707    1.8675    0.3841 C   0  0  0  0  0  0
   -2.0374    0.7170    0.2705 C   0  0  0  0  0  0
   -3.2921    0.9178   -0.2860 C   0  0  0  0  0  0
   -4.1815   -0.1410   -0.3911 C   0  0  0  0  0  0
   -3.8179   -1.3958    0.0582 C   0  0  0  0  0  0
   -2.5634   -1.5966    0.6141 C   0  0  0  0  0  0
   -1.6721   -0.5384    0.7152 C   0  0  0  0  0  0
   -2.2055   -2.8317    1.0563 O   0  0  0  0  0  0
   -3.3178   -3.6955    0.8142 C   0  0  0  0  0  0
   -3.6500    2.1529   -0.7282 O   0  0  0  0  0  0
   -4.9796    2.0393   -1.2395 C   0  0  0  0  0  0
    6.0643   -0.8725   -0.0314 N   0  0  0  0  0  0
    1.8146   -1.6538   -1.8602 N   0  0  0  0  0  0
    2.4318    1.7767    2.3404 H   0  0  0  0  0  0
    3.2422    2.8802    1.2022 H   0  0  0  0  0  0
    0.7450    3.2695    1.4278 H   0  0  0  0  0  0
    1.2829    2.9334   -0.2379 H   0  0  0  0  0  0
    0.5444    1.1187   -1.3581 H   0  0  0  0  0  0
    0.0976   -0.3632   -0.4853 H   0  0  0  0  0  0
   -1.4004    2.5425    1.1739 H   0  0  0  0  0  0
   -1.0342    2.4063   -0.5626 H   0  0  0  0  0  0
   -5.1586    0.0155   -0.8237 H   0  0  0  0  0  0
   -4.5107   -2.2203   -0.0233 H   0  0  0  0  0  0
   -0.6950   -0.6949    1.1479 H   0  0  0  0  0  0
   -3.0765   -4.7026    1.1542 H   0  0  0  0  0  0
   -4.1885   -3.3275    1.3570 H   0  0  0  0  0  0
   -3.5368   -3.7152   -0.2534 H   0  0  0  0  0  0
   -5.3115    3.0101   -1.6075 H   0  0  0  0  0  0
   -4.9946    1.3168   -2.0555 H   0  0  0  0  0  0
   -5.6468    1.7043   -0.4453 H   0  0  0  0  0  0
    6.4055   -1.6288   -0.5340 H   0  0  0  0  0  0
    6.6586   -0.3632    0.5416 H   0  0  0  0  0  0
    2.1696   -2.4075   -2.3569 H   0  0  0  0  0  0
    0.8769   -1.4187   -1.9401 H   0  0  0  0  0  0
  1  2  1  0  0  0
  1  6  2  0  0  0
  1 10  1  0  0  0
  2  3  2  0  0  0
  2 23  1  0  0  0
  3  4  1  0  0  0
  4  5  2  0  0  0
  4 22  1  0  0  0
  5  6  1  0  0  0
  6  7  1  0  0  0
  7  8  1  0  0  0
  7 24  1  0  0  0
  7 25  1  0  0  0
  8  9  1  0  0  0
  8 26  1  0  0  0
  8 27  1  0  0  0
  9 10  1  0  0  0
  9 11  1  0  0  0
 10 28  1  0  0  0
 10 29  1  0  0  0
 11 12  1  0  0  0
 11 30  1  0  0  0
 11 31  1  0  0  0
 12 13  1  0  0  0
 12 17  2  0  0  0
 13 14  2  0  0  0
 13 20  1  0  0  0
 14 15  1  0  0  0
 14 32  1  0  0  0
 15 16  2  0  0  0
 15 33  1  0  0  0
 16 17  1  0  0  0
 16 18  1  0  0  0
 17 34  1  0  0  0
 18 19  1  0  0  0
 19 35  1  0  0  0
 19 36  1  0  0  0
 19 37  1  0  0  0
 20 21  1  0  0  0
 21 38  1  0  0  0
 21 39  1  0  0  0
 21 40  1  0  0  0
 22 41  1  0  0  0
 22 42  1  0  0  0
 23 43  1  0  0  0
 23 44  1  0  0  0
M  END
>  <ACTIVITY>
5.85387

>  <set_rl>
2

>  <Min_dist>
0.139785

>  <Avg_dist>
0.590024

>  <PC_uM>
3.3

>  <TG_uM>
0.3

>  <RL_uM>
1.4

$$$$
32-10
  Cerius2 12110214553D 1   1.00000                          
 
 48 50  0  0  0  0  0  0  0  0999 V2000
    3.1695    0.2107   -0.3298 C   0  0  0  0  0  0
    3.6903   -0.7380   -1.2155 C   0  0  0  0  0  0
    4.9974   -0.9770   -1.2079 N   0  0  0  0  0  0
    5.7967   -0.3276   -0.3748 C   0  0  0  0  0  0
    5.3292    0.5754    0.4739 N   0  0  0  0  0  0
    4.0346    0.8621    0.5188 C   0  0  0  0  0  0
    3.5326    1.8926    1.4962 C   0  0  0  0  0  0
    2.1164    2.3181    1.1017 C   0  0  0  0  0  0
    1.2883    1.1152    0.9369 N   0  0  0  0  0  0
    1.6944    0.4974   -0.3305 C   0  0  0  0  0  0
   -0.0947    1.5764    0.7559 C   0  0  0  0  0  0
   -0.9941    0.3892    0.5263 C   0  0  0  0  0  0
   -2.2894    0.5810    0.0809 C   0  0  0  0  0  0
   -3.1200   -0.5094   -0.1316 C   0  0  0  0  0  0
   -2.6488   -1.7955    0.1033 C   0  0  0  0  0  0
   -1.3465   -1.9838    0.5503 C   0  0  0  0  0  0
   -0.5206   -0.8890    0.7558 C   0  0  0  0  0  0
   -0.8812   -3.2406    0.7820 O   0  0  0  0  0  0
    0.4703   -3.1054    1.2259 C   0  0  0  0  0  0
   -3.4608   -2.8679   -0.1035 O   0  0  0  0  0  0
   -4.1488   -3.1082    1.1257 C   0  0  0  0  0  0
   -4.3940   -0.3200   -0.5688 O   0  0  0  0  0  0
   -4.3586   -0.4069   -1.9947 C   0  0  0  0  0  0
   -2.9288    2.3318   -0.2382 Br  0  0  0  0  0  0
    7.1536   -0.5995   -0.3914 N   0  0  0  0  0  0
    2.8561   -1.4187   -2.0873 N   0  0  0  0  0  0
    3.5180    1.4659    2.4991 H   0  0  0  0  0  0
    4.1912    2.7609    1.4795 H   0  0  0  0  0  0
    1.6933    2.9485    1.8837 H   0  0  0  0  0  0
    2.1493    2.8704    0.1625 H   0  0  0  0  0  0
    1.4548    1.1725   -1.1521 H   0  0  0  0  0  0
    1.1506   -0.4377   -0.4647 H   0  0  0  0  0  0
   -0.4192    2.1107    1.6488 H   0  0  0  0  0  0
   -0.1457    2.2428   -0.1051 H   0  0  0  0  0  0
    0.4916   -1.0347    1.1032 H   0  0  0  0  0  0
    0.8878   -4.0924    1.4252 H   0  0  0  0  0  0
    1.0589   -2.6113    0.4530 H   0  0  0  0  0  0
    0.4952   -2.5094    2.1382 H   0  0  0  0  0  0
   -4.7643   -4.0026    1.0287 H   0  0  0  0  0  0
   -3.4231   -3.2517    1.9262 H   0  0  0  0  0  0
   -4.7838   -2.2537    1.3597 H   0  0  0  0  0  0
   -5.3456   -0.1793   -2.3972 H   0  0  0  0  0  0
   -3.6337    0.3079   -2.3843 H   0  0  0  0  0  0
   -4.0693   -1.4154   -2.2902 H   0  0  0  0  0  0
    7.5086   -1.2588   -1.0080 H   0  0  0  0  0  0
    7.7496   -0.1308    0.2135 H   0  0  0  0  0  0
    3.2252   -2.0752   -2.6985 H   0  0  0  0  0  0
    1.9030   -1.2387   -2.0864 H   0  0  0  0  0  0
  1  2  1  0  0  0
  1  6  2  0  0  0
  1 10  1  0  0  0
  2  3  2  0  0  0
  2 26  1  0  0  0
  3  4  1  0  0  0
  4  5  2  0  0  0
  4 25  1  0  0  0
  5  6  1  0  0  0
  6  7  1  0  0  0
  7  8  1  0  0  0
  7 27  1  0  0  0
  7 28  1  0  0  0
  8  9  1  0  0  0
  8 29  1  0  0  0
  8 30  1  0  0  0
  9 10  1  0  0  0
  9 11  1  0  0  0
 10 31  1  0  0  0
 10 32  1  0  0  0
 11 12  1  0  0  0
 11 33  1  0  0  0
 11 34  1  0  0  0
 12 13  1  0  0  0
 12 17  2  0  0  0
 13 14  2  0  0  0
 13 24  1  0  0  0
 14 15  1  0  0  0
 14 22  1  0  0  0
 15 16  2  0  0  0
 15 20  1  0  0  0
 16 17  1  0  0  0
 16 18  1  0  0  0
 17 35  1  0  0  0
 18 19  1  0  0  0
 19 36  1  0  0  0
 19 37  1  0  0  0
 19 38  1  0  0  0
 20 21  1  0  0  0
 21 39  1  0  0  0
 21 40  1  0  0  0
 21 41  1  0  0  0
 22 23  1  0  0  0
 23 42  1  0  0  0
 23 43  1  0  0  0
 23 44  1  0  0  0
 25 45  1  0  0  0
 25 46  1  0  0  0
 26 47  1  0  0  0
 26 48  1  0  0  0
M  END
>  <ACTIVITY>
6.45593

>  <set_rl>
2

>  <Min_dist>
0.121212

>  <Avg_dist>
0.612335

>  <PC_uM>
0.51

>  <TG_uM>
0.09

>  <RL_uM>
0.35

$$$$
32-11
  Cerius2 12110214553D 1   1.00000                          
 
 51 53  0  0  0  0  0  0  0  0999 V2000
    1.9916    0.1789   -0.3627 C   0  0  0  0  0  0
    2.4405   -1.0392    0.1121 C   0  0  0  0  0  0
    3.7860   -1.2229    0.3926 C   0  0  0  0  0  0
    4.6836   -0.1804    0.1954 C   0  0  0  0  0  0
    4.2284    1.0426   -0.2825 C   0  0  0  0  0  0
    2.8812    1.2183   -0.5601 C   0  0  0  0  0  0
    5.1028    2.0659   -0.4767 O   0  0  0  0  0  0
    4.3419    3.1721   -0.9662 C   0  0  0  0  0  0
    6.0049   -0.3566    0.4700 O   0  0  0  0  0  0
    6.6161   -0.8339   -0.7303 C   0  0  0  0  0  0
    4.2265   -2.4215    0.8606 O   0  0  0  0  0  0
    3.0831   -3.2734    0.9552 C   0  0  0  0  0  0
    0.5294    0.3724   -0.6717 C   0  0  0  0  0  0
   -0.1929    0.8816    0.5773 C   0  0  0  0  0  0
   -1.6182    1.0702    0.2760 N   0  0  0  0  0  0
   -2.1734   -0.2610    0.0160 C   0  0  0  0  0  0
   -3.6731   -0.2054   -0.0590 C   0  0  0  0  0  0
   -4.3722   -1.2305   -0.7041 C   0  0  0  0  0  0
   -5.6982   -1.1682   -0.7624 N   0  0  0  0  0  0
   -6.3501   -0.1514   -0.2184 C   0  0  0  0  0  0
   -5.7123    0.8323    0.3979 N   0  0  0  0  0  0
   -4.3889    0.8321    0.4926 C   0  0  0  0  0  0
   -3.6919    1.9653    1.1991 C   0  0  0  0  0  0
   -2.2497    1.5584    1.5101 C   0  0  0  0  0  0
   -7.7314   -0.1159   -0.2963 N   0  0  0  0  0  0
   -3.6925   -2.2946   -1.2739 N   0  0  0  0  0  0
    1.7422   -1.8488    0.2651 H   0  0  0  0  0  0
    2.5266    2.1683   -0.9319 H   0  0  0  0  0  0
    5.0038    4.0209   -1.1376 H   0  0  0  0  0  0
    3.8575    2.8941   -1.9022 H   0  0  0  0  0  0
    3.5839    3.4449   -0.2319 H   0  0  0  0  0  0
    7.6810   -0.9906   -0.5583 H   0  0  0  0  0  0
    6.1530   -1.7759   -1.0240 H   0  0  0  0  0  0
    6.4805   -0.0993   -1.5240 H   0  0  0  0  0  0
    3.3884   -4.2511    1.3280 H   0  0  0  0  0  0
    2.3580   -2.8336    1.6399 H   0  0  0  0  0  0
    2.6309   -3.3854   -0.0302 H   0  0  0  0  0  0
    0.4212    1.1000   -1.4760 H   0  0  0  0  0  0
    0.0945   -0.5782   -0.9807 H   0  0  0  0  0  0
   -0.0847    0.1540    1.3816 H   0  0  0  0  0  0
    0.2420    1.8321    0.8863 H   0  0  0  0  0  0
   -1.7803   -0.6356   -0.9291 H   0  0  0  0  0  0
   -1.8789   -0.9361    0.8194 H   0  0  0  0  0  0
   -3.6905    2.8473    0.5586 H   0  0  0  0  0  0
   -4.2148    2.1911    2.1284 H   0  0  0  0  0  0
   -2.2470    0.7669    2.2596 H   0  0  0  0  0  0
   -1.6995    2.4212    1.8852 H   0  0  0  0  0  0
   -8.2103   -0.8300   -0.7453 H   0  0  0  0  0  0
   -8.2206    0.6231    0.0980 H   0  0  0  0  0  0
   -4.1847   -3.0017   -1.7196 H   0  0  0  0  0  0
   -2.7244   -2.3326   -1.2273 H   0  0  0  0  0  0
  1  2  1  0  0  0
  1  6  2  0  0  0
  1 13  1  0  0  0
  2  3  2  0  0  0
  2 27  1  0  0  0
  3  4  1  0  0  0
  3 11  1  0  0  0
  4  5  2  0  0  0
  4  9  1  0  0  0
  5  6  1  0  0  0
  5  7  1  0  0  0
  6 28  1  0  0  0
  7  8  1  0  0  0
  8 29  1  0  0  0
  8 30  1  0  0  0
  8 31  1  0  0  0
  9 10  1  0  0  0
 10 32  1  0  0  0
 10 33  1  0  0  0
 10 34  1  0  0  0
 11 12  1  0  0  0
 12 35  1  0  0  0
 12 36  1  0  0  0
 12 37  1  0  0  0
 13 14  1  0  0  0
 13 38  1  0  0  0
 13 39  1  0  0  0
 14 15  1  0  0  0
 14 40  1  0  0  0
 14 41  1  0  0  0
 15 16  1  0  0  0
 15 24  1  0  0  0
 16 17  1  0  0  0
 16 42  1  0  0  0
 16 43  1  0  0  0
 17 18  1  0  0  0
 17 22  2  0  0  0
 18 19  2  0  0  0
 18 26  1  0  0  0
 19 20  1  0  0  0
 20 21  2  0  0  0
 20 25  1  0  0  0
 21 22  1  0  0  0
 22 23  1  0  0  0
 23 24  1  0  0  0
 23 44  1  0  0  0
 23 45  1  0  0  0
 24 46  1  0  0  0
 24 47  1  0  0  0
 25 48  1  0  0  0
 25 49  1  0  0  0
 26 50  1  0  0  0
 26 51  1  0  0  0
M  END
>  <ACTIVITY>
5.02228

>  <set_rl>
2

>  <Min_dist>
0.173469

>  <Avg_dist>
0.58651

>  <PC_uM>
30

>  <TG_uM>
3.2

>  <RL_uM>
9.5

$$$$
34-3
  Cerius2 12110214553D 1   1.00000                          
 
 37 39  0  0  0  0  0  0  0  0999 V2000
   -4.2736    1.5710    0.0004 N   0  0  0  0  0  0
   -5.1601    0.5830   -0.0002 C   0  0  0  0  0  0
   -4.8048   -0.6904   -0.0002 N   0  0  0  0  0  0
   -3.5180   -1.0367    0.0000 C   0  0  0  0  0  0
   -2.5464   -0.0199    0.0001 C   0  0  0  0  0  0
   -2.9688    1.3189    0.0005 C   0  0  0  0  0  0
   -2.0487    2.3513    0.0011 N   0  0  0  0  0  0
   -1.2488   -0.6947    0.0003 C   0  0  0  0  0  0
   -1.4972   -2.0140    0.0002 C   0  0  0  0  0  0
   -2.8523   -2.2315    0.0000 N   0  0  0  0  0  0
   -3.2757   -3.1042   -0.0001 H   0  0  0  0  0  0
    0.1065   -0.0357    0.0000 C   0  0  0  0  0  0
    1.1496   -1.0643    0.0003 N   0  0  0  0  0  0
    2.4987   -0.6927    0.0001 C   0  0  0  0  0  0
    3.4878   -1.6673    0.0004 C   0  0  0  0  0  0
    4.8191   -1.2996    0.0003 C   0  0  0  0  0  0
    5.1682    0.0427    0.0004 C   0  0  0  0  0  0
    4.1809    1.0169    0.0006 C   0  0  0  0  0  0
    2.8492    0.6510   -0.0060 C   0  0  0  0  0  0
    6.4794    0.4039    0.0007 O   0  0  0  0  0  0
    6.5142    1.8325    0.0007 C   0  0  0  0  0  0
   -6.5088    0.8982   -0.0004 N   0  0  0  0  0  0
   -2.3530    3.2723    0.0014 H   0  0  0  0  0  0
   -1.0989    2.1544    0.0013 H   0  0  0  0  0  0
   -0.7439   -2.7879    0.0003 H   0  0  0  0  0  0
    0.2085    0.5850   -0.8901 H   0  0  0  0  0  0
    0.2086    0.5855    0.8898 H   0  0  0  0  0  0
    0.9052   -2.0030    0.0006 H   0  0  0  0  0  0
    3.2162   -2.7126    0.0010 H   0  0  0  0  0  0
    5.5885   -2.0575    0.0005 H   0  0  0  0  0  0
    4.4536    2.0619    0.0010 H   0  0  0  0  0  0
    2.0805    1.4096   -0.0062 H   0  0  0  0  0  0
    7.5504    2.1707    0.0010 H   0  0  0  0  0  0
    6.0096    2.2083   -0.8894 H   0  0  0  0  0  0
    6.0092    2.2083    0.8906 H   0  0  0  0  0  0
   -6.7899    1.8266    0.0000 H   0  0  0  0  0  0
   -7.1723    0.1906   -0.0008 H   0  0  0  0  0  0
  1  2  1  0  0  0
  1  6  2  0  0  0
  2  3  2  0  0  0
  2 22  1  0  0  0
  3  4  1  0  0  0
  4  5  2  0  0  0
  4 10  1  0  0  0
  5  6  1  0  0  0
  5  8  1  0  0  0
  6  7  1  0  0  0
  7 23  1  0  0  0
  7 24  1  0  0  0
  8  9  2  0  0  0
  8 12  1  0  0  0
  9 10  1  0  0  0
  9 25  1  0  0  0
 10 11  1  0  0  0
 12 13  1  0  0  0
 12 26  1  0  0  0
 12 27  1  0  0  0
 13 14  1  0  0  0
 13 28  1  0  0  0
 14 15  1  0  0  0
 14 19  2  0  0  0
 15 16  2  0  0  0
 15 29  1  0  0  0
 16 17  1  0  0  0
 16 30  1  0  0  0
 17 18  2  0  0  0
 17 20  1  0  0  0
 18 19  1  0  0  0
 18 31  1  0  0  0
 19 32  1  0  0  0
 20 21  1  0  0  0
 21 33  1  0  0  0
 21 34  1  0  0  0
 21 35  1  0  0  0
 22 36  1  0  0  0
 22 37  1  0  0  0
M  END
>  <ACTIVITY>
4.20066

>  <set_rl>
2

>  <Min_dist>
0.125

>  <Avg_dist>
0.457124

>  <PC_uM>
279

>  <TG_uM>
6

>  <RL_uM>
63

$$$$
35-3
  Cerius2 12110214553D 1   1.00000                          
 
 36 38  0  0  0  0  0  0  0  0999 V2000
   -4.6862   -0.8522   -0.8765 N   0  0  0  0  0  0
   -5.0693   -1.0427    0.3801 C   0  0  0  0  0  0
   -4.3546   -0.6265    1.4115 N   0  0  0  0  0  0
   -3.1999    0.0120    1.2247 C   0  0  0  0  0  0
   -2.7577    0.2338   -0.0918 C   0  0  0  0  0  0
   -3.5488   -0.2249   -1.1571 C   0  0  0  0  0  0
   -3.1535   -0.0286   -2.4677 N   0  0  0  0  0  0
   -1.4840    0.9440    0.0193 C   0  0  0  0  0  0
   -1.2410    1.1031    1.3299 C   0  0  0  0  0  0
   -2.2613    0.5492    2.0620 N   0  0  0  0  0  0
   -2.3096    0.5400    3.0308 H   0  0  0  0  0  0
   -0.6118    1.4076   -1.1189 C   0  0  0  0  0  0
    0.5755    2.0777   -0.5826 N   0  0  0  0  0  0
    1.7297    1.3397   -0.3071 C   0  0  0  0  0  0
    2.8563    1.9739    0.2015 C   0  0  0  0  0  0
    3.9959    1.2427    0.4730 C   0  0  0  0  0  0
    4.0171   -0.1209    0.2387 C   0  0  0  0  0  0
    2.8959   -0.7562   -0.2681 C   0  0  0  0  0  0
    1.7507   -0.0298   -0.5358 C   0  0  0  0  0  0
    2.9263   -2.4671   -0.5608 Cl  0  0  0  0  0  0
    5.4519   -1.0366    0.5802 Cl  0  0  0  0  0  0
    0.5528    3.5215   -0.3352 C   0  0  0  0  0  0
   -6.2634   -1.7022    0.6198 N   0  0  0  0  0  0
   -3.7088   -0.3502   -3.1951 H   0  0  0  0  0  0
   -2.3210    0.4308   -2.6596 H   0  0  0  0  0  0
   -0.3731    1.5932    1.7458 H   0  0  0  0  0  0
   -0.3056    0.5483   -1.7154 H   0  0  0  0  0  0
   -1.1704    2.1038   -1.7445 H   0  0  0  0  0  0
    2.8409    3.0383    0.3840 H   0  0  0  0  0  0
    4.8717    1.7358    0.8684 H   0  0  0  0  0  0
    0.8762   -0.5253   -0.9311 H   0  0  0  0  0  0
   -0.4237    3.9215   -0.6080 H   0  0  0  0  0  0
    0.7413    3.7121    0.7213 H   0  0  0  0  0  0
    1.3240    4.0051   -0.9348 H   0  0  0  0  0  0
   -6.8023   -2.0150   -0.1236 H   0  0  0  0  0  0
   -6.5607   -1.8512    1.5310 H   0  0  0  0  0  0
  1  2  1  0  0  0
  1  6  2  0  0  0
  2  3  2  0  0  0
  2 23  1  0  0  0
  3  4  1  0  0  0
  4  5  2  0  0  0
  4 10  1  0  0  0
  5  6  1  0  0  0
  5  8  1  0  0  0
  6  7  1  0  0  0
  7 24  1  0  0  0
  7 25  1  0  0  0
  8  9  2  0  0  0
  8 12  1  0  0  0
  9 10  1  0  0  0
  9 26  1  0  0  0
 10 11  1  0  0  0
 12 13  1  0  0  0
 12 27  1  0  0  0
 12 28  1  0  0  0
 13 14  1  0  0  0
 13 22  1  0  0  0
 14 15  1  0  0  0
 14 19  2  0  0  0
 15 16  2  0  0  0
 15 29  1  0  0  0
 16 17  1  0  0  0
 16 30  1  0  0  0
 17 18  2  0  0  0
 17 21  1  0  0  0
 18 19  1  0  0  0
 18 20  1  0  0  0
 19 31  1  0  0  0
 22 32  1  0  0  0
 22 33  1  0  0  0
 22 34  1  0  0  0
 23 35  1  0  0  0
 23 36  1  0  0  0
M  END
>  <ACTIVITY>
5.52288

>  <set_rl>
2

>  <Min_dist>
0.08

>  <Avg_dist>
0.501054

>  <PC_uM>
28.3

>  <TG_uM>
1

>  <RL_uM>
3

$$$$
35-7
  Cerius2 12110214553D 1   1.00000                          
 
 38 41  0  0  0  0  0  0  0  0999 V2000
   -4.0809   -1.3532    1.0775 N   0  0  0  0  0  0
   -5.1015   -1.0285    0.2932 C   0  0  0  0  0  0
   -5.0251   -0.0665   -0.6104 N   0  0  0  0  0  0
   -3.8986    0.6272   -0.7707 C   0  0  0  0  0  0
   -2.7935    0.3149    0.0410 C   0  0  0  0  0  0
   -2.9190   -0.7146    0.9873 C   0  0  0  0  0  0
   -1.8584   -1.0561    1.8064 N   0  0  0  0  0  0
   -1.7224    1.2274   -0.3582 C   0  0  0  0  0  0
   -2.2160    2.0002   -1.3386 C   0  0  0  0  0  0
   -3.5183    1.6505   -1.5947 N   0  0  0  0  0  0
   -4.0855    2.0676   -2.2619 H   0  0  0  0  0  0
   -0.3323    1.2887    0.2204 C   0  0  0  0  0  0
    0.7594    0.1782   -0.7101 S   0  0  0  0  0  0
    2.2721    0.4413    0.1542 C   0  0  0  0  0  0
    2.3224    1.3171    1.2192 C   0  0  0  0  0  0
    3.5119    1.5316    1.9077 C   0  0  0  0  0  0
    4.6572    0.8861    1.5516 C   0  0  0  0  0  0
    4.6492   -0.0143    0.4727 C   0  0  0  0  0  0
    3.4430   -0.2465   -0.2329 C   0  0  0  0  0  0
    3.4364   -1.1461   -1.3098 C   0  0  0  0  0  0
    4.5869   -1.7836   -1.6627 C   0  0  0  0  0  0
    5.7740   -1.5560   -0.9695 C   0  0  0  0  0  0
    5.8162   -0.6943    0.0832 C   0  0  0  0  0  0
   -6.2916   -1.7244    0.4263 N   0  0  0  0  0  0
   -1.9576   -1.7692    2.4564 H   0  0  0  0  0  0
   -1.0152   -0.5824    1.7309 H   0  0  0  0  0  0
   -1.6704    2.7799   -1.8492 H   0  0  0  0  0  0
    0.0447    2.3092    0.1529 H   0  0  0  0  0  0
   -0.3596    0.9798    1.2653 H   0  0  0  0  0  0
    1.4284    1.8423    1.5214 H   0  0  0  0  0  0
    3.5277    2.2218    2.7383 H   0  0  0  0  0  0
    5.5711    1.0664    2.0980 H   0  0  0  0  0  0
    2.5234   -1.3323   -1.8558 H   0  0  0  0  0  0
    4.5790   -2.4757   -2.4917 H   0  0  0  0  0  0
    6.6728   -2.0745   -1.2691 H   0  0  0  0  0  0
    6.7435   -0.5274    0.6111 H   0  0  0  0  0  0
   -6.3677   -2.4339    1.0834 H   0  0  0  0  0  0
   -7.0490   -1.5022   -0.1374 H   0  0  0  0  0  0
  1  2  1  0  0  0
  1  6  2  0  0  0
  2  3  2  0  0  0
  2 24  1  0  0  0
  3  4  1  0  0  0
  4  5  2  0  0  0
  4 10  1  0  0  0
  5  6  1  0  0  0
  5  8  1  0  0  0
  6  7  1  0  0  0
  7 25  1  0  0  0
  7 26  1  0  0  0
  8  9  2  0  0  0
  8 12  1  0  0  0
  9 10  1  0  0  0
  9 27  1  0  0  0
 10 11  1  0  0  0
 12 13  1  0  0  0
 12 28  1  0  0  0
 12 29  1  0  0  0
 13 14  1  0  0  0
 14 15  1  0  0  0
 14 19  2  0  0  0
 15 16  2  0  0  0
 15 30  1  0  0  0
 16 17  1  0  0  0
 16 31  1  0  0  0
 17 18  2  0  0  0
 17 32  1  0  0  0
 18 19  1  0  0  0
 18 23  1  0  0  0
 19 20  1  0  0  0
 20 21  2  0  0  0
 20 33  1  0  0  0
 21 22  1  0  0  0
 21 34  1  0  0  0
 22 23  2  0  0  0
 22 35  1  0  0  0
 23 36  1  0  0  0
 24 37  1  0  0  0
 24 38  1  0  0  0
M  END
>  <ACTIVITY>
5.52288

>  <set_rl>
2

>  <Min_dist>
0.164384

>  <Avg_dist>
0.560421

>  <PC_uM>
10.6

>  <TG_uM>
0.81

>  <RL_uM>
3

$$$$
33-1
  Cerius2 12110214553D 1   1.00000                          
 
 49 51  0  0  0  0  0  0  0  0999 V2000
   -6.7735   -1.9941    0.9051 N   0  0  0  0  0  0
   -7.8548   -1.3354    0.5077 C   0  0  0  0  0  0
   -7.7901   -0.1587   -0.0929 N   0  0  0  0  0  0
   -6.6154    0.4214   -0.3263 C   0  0  0  0  0  0
   -5.4466   -0.2435    0.0792 C   0  0  0  0  0  0
   -5.5586   -1.4895    0.7127 C   0  0  0  0  0  0
   -4.4325   -2.1767    1.1278 N   0  0  0  0  0  0
   -4.3383    0.6321   -0.3100 C   0  0  0  0  0  0
   -4.8974    1.7029   -0.8907 C   0  0  0  0  0  0
   -6.2380    1.5765   -0.8990 O   0  0  0  0  0  0
   -2.8676    0.3801   -0.0994 C   0  0  0  0  0  0
   -2.0977    1.5053   -0.6356 N   0  0  0  0  0  0
   -0.7095    1.4987   -0.5558 C   0  0  0  0  0  0
    0.0207    2.5687   -1.0658 C   0  0  0  0  0  0
    1.3946    2.5651   -0.9883 C   0  0  0  0  0  0
    2.0570    1.4856   -0.3965 C   0  0  0  0  0  0
    1.3209    0.4127    0.1147 C   0  0  0  0  0  0
   -0.0530    0.4248    0.0392 C   0  0  0  0  0  0
    3.5298    1.4784   -0.3122 C   0  0  0  0  0  0
    4.1688    2.4121   -0.7577 O   0  0  0  0  0  0
    4.1670    0.4370    0.2585 N   0  0  0  0  0  0
    5.6296    0.4299    0.3423 C   0  0  0  0  0  0
    6.0620    1.0767    1.6329 C   0  0  0  0  0  0
    5.3451    1.0123    2.6175 O   0  0  0  0  0  0
    7.1289    1.6647    1.6928 O   0  5  0  0  0  0
    6.1358   -1.0134    0.3005 C   0  0  0  0  0  0
    5.6968   -1.6701   -1.0098 C   0  0  0  0  0  0
    6.1954   -3.0916   -1.0509 C   0  0  0  0  0  0
    5.9410   -3.8276   -2.0609 O   0  0  0  0  0  0
    6.8717   -3.5586   -0.0758 O   0  5  0  0  0  0
   -9.0986   -1.9020    0.7298 N   0  0  0  0  0  0
   -4.5235   -3.0379    1.5649 H   0  0  0  0  0  0
   -3.5517   -1.7976    0.9818 H   0  0  0  0  0  0
   -4.3525    2.5442   -1.2928 H   0  0  0  0  0  0
   -2.6656    0.2770    0.9668 H   0  0  0  0  0  0
   -2.5785   -0.5361   -0.6142 H   0  0  0  0  0  0
   -2.5563    2.2548   -1.0464 H   0  0  0  0  0  0
   -0.4917    3.4022   -1.5231 H   0  0  0  0  0  0
    1.9605    3.3953   -1.3844 H   0  0  0  0  0  0
    1.8299   -0.4228    0.5721 H   0  0  0  0  0  0
   -0.6223   -0.4036    0.4343 H   0  0  0  0  0  0
    3.6573   -0.3078    0.6139 H   0  0  0  0  0  0
    6.0444    0.9849   -0.4991 H   0  0  0  0  0  0
    7.2240   -1.0187    0.3628 H   0  0  0  0  0  0
    5.7210   -1.5684    1.1419 H   0  0  0  0  0  0
    4.6086   -1.6648   -1.0721 H   0  0  0  0  0  0
    6.1116   -1.1151   -1.8512 H   0  0  0  0  0  0
   -9.1673   -2.7644    1.1684 H   0  0  0  0  0  0
   -9.9011   -1.4364    0.4467 H   0  0  0  0  0  0
  1  2  1  0  0  0
  1  6  2  0  0  0
  2  3  2  0  0  0
  2 31  1  0  0  0
  3  4  1  0  0  0
  4  5  2  0  0  0
  4 10  1  0  0  0
  5  6  1  0  0  0
  5  8  1  0  0  0
  6  7  1  0  0  0
  7 32  1  0  0  0
  7 33  1  0  0  0
  8  9  2  0  0  0
  8 11  1  0  0  0
  9 10  1  0  0  0
  9 34  1  0  0  0
 11 12  1  0  0  0
 11 35  1  0  0  0
 11 36  1  0  0  0
 12 13  1  0  0  0
 12 37  1  0  0  0
 13 14  1  0  0  0
 13 18  2  0  0  0
 14 15  2  0  0  0
 14 38  1  0  0  0
 15 16  1  0  0  0
 15 39  1  0  0  0
 16 17  2  0  0  0
 16 19  1  0  0  0
 17 18  1  0  0  0
 17 40  1  0  0  0
 18 41  1  0  0  0
 19 20  2  0  0  0
 19 21  1  0  0  0
 21 22  1  0  0  0
 21 42  1  0  0  0
 22 23  1  0  0  0
 22 26  1  0  0  0
 22 43  1  0  0  0
 23 24  2  0  0  0
 23 25  1  0  0  0
 26 27  1  0  0  0
 26 44  1  0  0  0
 26 45  1  0  0  0
 27 28  1  0  0  0
 27 46  1  0  0  0
 27 47  1  0  0  0
 28 29  2  0  0  0
 28 30  1  0  0  0
 31 48  1  0  0  0
 31 49  1  0  0  0
M  CHG  2  25  -1  30  -1
M  END
>  <ACTIVITY>
5.88606

>  <set_rl>
2

>  <Min_dist>
0.027273

>  <Avg_dist>
0.629145

>  <PC_uM>
0.9

>  <TG_uM>
0.7

>  <RL_uM>
1.3

$$$$
35-10
  Cerius2 12110214553D 1   1.00000                          
 
 53 55  0  0  0  0  0  0  0  0999 V2000
    6.1256   -2.2867    0.2367 N   0  0  0  0  0  0
    6.4671   -2.1226   -1.0355 C   0  0  0  0  0  0
    5.9799   -1.1461   -1.7816 N   0  0  0  0  0  0
    5.1102   -0.2729   -1.2747 C   0  0  0  0  0  0
    4.7217   -0.4118    0.0697 C   0  0  0  0  0  0
    5.2645   -1.4632    0.8252 C   0  0  0  0  0  0
    4.9114   -1.6379    2.1509 N   0  0  0  0  0  0
    3.7763    0.6720    0.3360 C   0  0  0  0  0  0
    3.6534    1.3691   -0.8047 C   0  0  0  0  0  0
    4.4472    0.8130   -1.7766 N   0  0  0  0  0  0
    4.5264    1.1419   -2.6858 H   0  0  0  0  0  0
    3.0748    0.9521    1.6400 C   0  0  0  0  0  0
    2.2130    2.1271    1.4883 N   0  0  0  0  0  0
    0.8931    1.9730    1.0790 C   0  0  0  0  0  0
    0.0754    3.0905    0.9354 C   0  0  0  0  0  0
   -1.2313    2.9413    0.5306 C   0  0  0  0  0  0
   -1.7375    1.6658    0.2635 C   0  0  0  0  0  0
   -0.9139    0.5456    0.4087 C   0  0  0  0  0  0
    0.3936    0.7020    0.8084 C   0  0  0  0  0  0
   -3.1380    1.5023   -0.1702 C   0  0  0  0  0  0
   -3.8534    2.4775   -0.2957 O   0  0  0  0  0  0
   -3.6245    0.2720   -0.4273 N   0  0  0  0  0  0
   -5.0154    0.1096   -0.8580 C   0  0  0  0  0  0
   -5.0867    0.1769   -2.3618 C   0  0  0  0  0  0
   -4.1404   -0.1967   -3.0345 O   0  0  0  0  0  0
   -6.0906    0.6050   -2.9061 O   0  5  0  0  0  0
   -5.5414   -1.2462   -0.3826 C   0  0  0  0  0  0
   -5.4690   -1.3145    1.1441 C   0  0  0  0  0  0
   -5.9872   -2.6500    1.6123 C   0  0  0  0  0  0
   -6.0168   -2.9213    2.8581 O   0  0  0  0  0  0
   -6.3962   -3.5087    0.7628 O   0  5  0  0  0  0
    2.7418    3.4644    1.7677 C   0  0  0  0  0  0
    7.3687   -3.0080   -1.6027 N   0  0  0  0  0  0
    5.2934   -2.3682    2.6624 H   0  0  0  0  0  0
    4.2818   -1.0300    2.5692 H   0  0  0  0  0  0
    3.0245    2.2369   -0.9377 H   0  0  0  0  0  0
    2.4684    0.0903    1.9187 H   0  0  0  0  0  0
    3.8149    1.1423    2.4172 H   0  0  0  0  0  0
    0.4669    4.0756    1.1422 H   0  0  0  0  0  0
   -1.8653    3.8086    0.4196 H   0  0  0  0  0  0
   -1.3021   -0.4410    0.2035 H   0  0  0  0  0  0
    1.0305   -0.1630    0.9204 H   0  0  0  0  0  0
   -3.0538   -0.5059   -0.3272 H   0  0  0  0  0  0
   -5.6238    0.9060   -0.4294 H   0  0  0  0  0  0
   -6.5762   -1.3670   -0.7031 H   0  0  0  0  0  0
   -4.9330   -2.0426   -0.8112 H   0  0  0  0  0  0
   -4.4342   -1.1937    1.4646 H   0  0  0  0  0  0
   -6.0775   -0.5182    1.5727 H   0  0  0  0  0  0
    3.7853    3.3860    2.0731 H   0  0  0  0  0  0
    2.6712    4.0780    0.8696 H   0  0  0  0  0  0
    2.1625    3.9242    2.5684 H   0  0  0  0  0  0
    7.7378   -3.7310   -1.0718 H   0  0  0  0  0  0
    7.6309   -2.9050   -2.5309 H   0  0  0  0  0  0
  1  2  1  0  0  0
  1  6  2  0  0  0
  2  3  2  0  0  0
  2 33  1  0  0  0
  3  4  1  0  0  0
  4  5  2  0  0  0
  4 10  1  0  0  0
  5  6  1  0  0  0
  5  8  1  0  0  0
  6  7  1  0  0  0
  7 34  1  0  0  0
  7 35  1  0  0  0
  8  9  2  0  0  0
  8 12  1  0  0  0
  9 10  1  0  0  0
  9 36  1  0  0  0
 10 11  1  0  0  0
 12 13  1  0  0  0
 12 37  1  0  0  0
 12 38  1  0  0  0
 13 14  1  0  0  0
 13 32  1  0  0  0
 14 15  1  0  0  0
 14 19  2  0  0  0
 15 16  2  0  0  0
 15 39  1  0  0  0
 16 17  1  0  0  0
 16 40  1  0  0  0
 17 18  2  0  0  0
 17 20  1  0  0  0
 18 19  1  0  0  0
 18 41  1  0  0  0
 19 42  1  0  0  0
 20 21  2  0  0  0
 20 22  1  0  0  0
 22 23  1  0  0  0
 22 43  1  0  0  0
 23 24  1  0  0  0
 23 27  1  0  0  0
 23 44  1  0  0  0
 24 25  2  0  0  0
 24 26  1  0  0  0
 27 28  1  0  0  0
 27 45  1  0  0  0
 27 46  1  0  0  0
 28 29  1  0  0  0
 28 47  1  0  0  0
 28 48  1  0  0  0
 29 30  2  0  0  0
 29 31  1  0  0  0
 32 49  1  0  0  0
 32 50  1  0  0  0
 32 51  1  0  0  0
 33 52  1  0  0  0
 33 53  1  0  0  0
M  CHG  2  26  -1  31  -1
M  END
>  <ACTIVITY>
7.22185

>  <set_rl>
2

>  <Min_dist>
0.029703

>  <Avg_dist>
0.591979

>  <PC_uM>
0.044

>  <TG_uM>
0.15

>  <RL_uM>
0.06

$$$$
38-8
  Cerius2 12110214553D 1   1.00000                          
 
 37 40  0  0  0  0  0  0  0  0999 V2000
   -4.6405    1.5062    0.0009 N   0  0  0  0  0  0
   -5.5191    0.5117    0.0001 C   0  0  0  0  0  0
   -5.1542   -0.7597   -0.0007 N   0  0  0  0  0  0
   -3.8671   -1.0972   -0.0007 C   0  0  0  0  0  0
   -2.9052   -0.0738    0.0001 C   0  0  0  0  0  0
   -3.3337    1.2615    0.0009 C   0  0  0  0  0  0
   -2.4190    2.2988    0.0012 N   0  0  0  0  0  0
   -1.6064   -0.7517    0.0003 C   0  0  0  0  0  0
   -1.8732   -2.0652   -0.0004 C   0  0  0  0  0  0
   -3.2047   -2.2660   -0.0010 O   0  0  0  0  0  0
   -0.2460   -0.1035    0.0003 C   0  0  0  0  0  0
    0.7636   -1.1148    0.0005 O   0  0  0  0  0  0
    1.9617   -0.4738    0.0006 C   0  0  0  0  0  0
    3.1166   -1.2034    0.0007 C   0  0  0  0  0  0
    4.3553   -0.5422    0.0003 C   0  0  0  0  0  0
    4.3878    0.8751   -0.0003 C   0  0  0  0  0  0
    3.1800    1.5939   -0.0005 C   0  0  0  0  0  0
    1.9963    0.9239   -0.0054 C   0  0  0  0  0  0
    5.6284    1.5354   -0.0002 C   0  0  0  0  0  0
    6.7787    0.8080    0.0004 C   0  0  0  0  0  0
    6.7469   -0.5854    0.0011 C   0  0  0  0  0  0
    5.5645   -1.2592    0.0010 C   0  0  0  0  0  0
   -6.8697    0.8167    0.0006 N   0  0  0  0  0  0
   -2.7283    3.2181    0.0018 H   0  0  0  0  0  0
   -1.4681    2.1069    0.0009 H   0  0  0  0  0  0
   -1.1292   -2.8480   -0.0008 H   0  0  0  0  0  0
   -0.1389    0.5166   -0.8897 H   0  0  0  0  0  0
   -0.1391    0.5168    0.8902 H   0  0  0  0  0  0
    3.0771   -2.2827    0.0016 H   0  0  0  0  0  0
    3.1917    2.6738   -0.0010 H   0  0  0  0  0  0
    1.0701    1.4793   -0.0059 H   0  0  0  0  0  0
    5.6688    2.6146   -0.0011 H   0  0  0  0  0  0
    7.7306    1.3182    0.0002 H   0  0  0  0  0  0
    7.6744   -1.1387    0.0016 H   0  0  0  0  0  0
    5.5552   -2.3392    0.0022 H   0  0  0  0  0  0
   -7.1578    1.7429    0.0015 H   0  0  0  0  0  0
   -7.5279    0.1041    0.0000 H   0  0  0  0  0  0
  1  2  1  0  0  0
  1  6  2  0  0  0
  2  3  2  0  0  0
  2 23  1  0  0  0
  3  4  1  0  0  0
  4  5  2  0  0  0
  4 10  1  0  0  0
  5  6  1  0  0  0
  5  8  1  0  0  0
  6  7  1  0  0  0
  7 24  1  0  0  0
  7 25  1  0  0  0
  8  9  2  0  0  0
  8 11  1  0  0  0
  9 10  1  0  0  0
  9 26  1  0  0  0
 11 12  1  0  0  0
 11 27  1  0  0  0
 11 28  1  0  0  0
 12 13  1  0  0  0
 13 14  1  0  0  0
 13 18  2  0  0  0
 14 15  2  0  0  0
 14 29  1  0  0  0
 15 16  1  0  0  0
 15 22  1  0  0  0
 16 17  2  0  0  0
 16 19  1  0  0  0
 17 18  1  0  0  0
 17 30  1  0  0  0
 18 31  1  0  0  0
 19 20  2  0  0  0
 19 32  1  0  0  0
 20 21  1  0  0  0
 20 33  1  0  0  0
 21 22  2  0  0  0
 21 34  1  0  0  0
 22 35  1  0  0  0
 23 36  1  0  0  0
 23 37  1  0  0  0
M  END
>  <ACTIVITY>
4.21968

>  <set_rl>
2

>  <Min_dist>
0.2

>  <Avg_dist>
0.60576

>  <PC_uM>
14

>  <TG_uM>
>42

>  <RL_uM>
60.3

$$$$
41-4F
  Cerius2 12110214553D 1   1.00000                          
 
 48 52  0  0  0  0  0  0  0  0999 V2000
   -6.2808    1.2837   -0.0690 N   0  0  0  0  0  0
   -7.0279    0.1909    0.0231 C   0  0  0  0  0  0
   -6.5069   -1.0220    0.1069 N   0  0  0  0  0  0
   -5.1877   -1.1965    0.1020 C   0  0  0  0  0  0
   -4.3615   -0.0648    0.0058 C   0  0  0  0  0  0
   -4.9538    1.2034   -0.0812 C   0  0  0  0  0  0
   -4.1762    2.3430   -0.1777 N   0  0  0  0  0  0
   -2.9883   -0.5748    0.0257 C   0  0  0  0  0  0
   -3.0886   -1.9075    0.1273 C   0  0  0  0  0  0
   -4.3843   -2.2710    0.1720 O   0  0  0  0  0  0
   -1.7198    0.2350   -0.0529 C   0  0  0  0  0  0
   -0.5633   -0.6627   -0.0006 N   0  0  0  0  0  0
    0.7332   -0.1380   -0.0581 C   0  0  0  0  0  0
    1.8255   -0.9871   -0.0086 C   0  0  0  0  0  0
    3.1132   -0.4597   -0.0661 C   0  0  0  0  0  0
    3.3023    0.9259   -0.1737 C   0  0  0  0  0  0
    2.1939    1.7652   -0.2232 C   0  0  0  0  0  0
    0.9225    1.2363   -0.1705 C   0  0  0  0  0  0
    4.6647    1.1784   -0.2107 N   0  0  0  0  0  0
    5.3736   -0.0066   -0.1300 C   0  0  0  0  0  0
    4.4577   -1.0649   -0.0378 C   0  0  0  0  0  0
    4.9150   -2.3774    0.0555 C   0  0  0  0  0  0
    6.2694   -2.6319    0.0567 C   0  0  0  0  0  0
    7.1764   -1.5870   -0.0345 C   0  0  0  0  0  0
    6.7375   -0.2840   -0.1273 C   0  0  0  0  0  0
    5.2674    2.5093   -0.3200 C   0  0  0  0  0  0
    5.4959    3.0822    1.0801 C   0  0  0  0  0  0
   -8.4060    0.3255    0.0323 N   0  0  0  0  0  0
   -4.5981    3.2144   -0.2373 H   0  0  0  0  0  0
   -3.2089    2.2708   -0.1858 H   0  0  0  0  0  0
   -2.2524   -2.5899    0.1670 H   0  0  0  0  0  0
   -1.7034    0.7947   -0.9881 H   0  0  0  0  0  0
   -1.6792    0.9291    0.7866 H   0  0  0  0  0  0
   -0.6959   -1.6207    0.0737 H   0  0  0  0  0  0
    1.6797   -2.0540    0.0746 H   0  0  0  0  0  0
    2.3301    2.8334   -0.3056 H   0  0  0  0  0  0
    0.0666    1.8938   -0.2098 H   0  0  0  0  0  0
    4.2105   -3.1929    0.1269 H   0  0  0  0  0  0
    6.6257   -3.6489    0.1292 H   0  0  0  0  0  0
    8.2359   -1.7961   -0.0325 H   0  0  0  0  0  0
    7.4524    0.5225   -0.1982 H   0  0  0  0  0  0
    6.2213    2.4344   -0.8421 H   0  0  0  0  0  0
    4.5990    3.1661   -0.8767 H   0  0  0  0  0  0
    5.9443    4.0724    0.9988 H   0  0  0  0  0  0
    4.5420    3.1571    1.6022 H   0  0  0  0  0  0
    6.1642    2.4253    1.6369 H   0  0  0  0  0  0
   -8.8077    1.2064   -0.0279 H   0  0  0  0  0  0
   -8.9697   -0.4611    0.0990 H   0  0  0  0  0  0
  1  2  1  0  0  0
  1  6  2  0  0  0
  2  3  2  0  0  0
  2 28  1  0  0  0
  3  4  1  0  0  0
  4  5  2  0  0  0
  4 10  1  0  0  0
  5  6  1  0  0  0
  5  8  1  0  0  0
  6  7  1  0  0  0
  7 29  1  0  0  0
  7 30  1  0  0  0
  8  9  2  0  0  0
  8 11  1  0  0  0
  9 10  1  0  0  0
  9 31  1  0  0  0
 11 12  1  0  0  0
 11 32  1  0  0  0
 11 33  1  0  0  0
 12 13  1  0  0  0
 12 34  1  0  0  0
 13 14  1  0  0  0
 13 18  2  0  0  0
 14 15  2  0  0  0
 14 35  1  0  0  0
 15 16  1  0  0  0
 15 21  1  0  0  0
 16 17  2  0  0  0
 16 19  1  0  0  0
 17 18  1  0  0  0
 17 36  1  0  0  0
 18 37  1  0  0  0
 19 20  1  0  0  0
 19 26  1  0  0  0
 20 21  2  0  0  0
 20 25  1  0  0  0
 21 22  1  0  0  0
 22 23  2  0  0  0
 22 38  1  0  0  0
 23 24  1  0  0  0
 23 39  1  0  0  0
 24 25  2  0  0  0
 24 40  1  0  0  0
 25 41  1  0  0  0
 26 27  1  0  0  0
 26 42  1  0  0  0
 26 43  1  0  0  0
 27 44  1  0  0  0
 27 45  1  0  0  0
 27 46  1  0  0  0
 28 47  1  0  0  0
 28 48  1  0  0  0
M  END
>  <ACTIVITY>
4.89963

>  <set_rl>
2

>  <Min_dist>
0.0625

>  <Avg_dist>
0.539252

>  <PC_uM>
16.2

>  <TG_uM>
4.5

>  <RL_uM>
12.6

$$$$
40-3
  Cerius2 12110214553D 1   1.00000                          
 
 38 40  0  0  0  0  0  0  0  0999 V2000
   -4.4837    0.9706   -0.2391 N   0  0  0  0  0  0
   -4.7338   -0.2293    0.2707 C   0  0  0  0  0  0
   -3.7511   -1.0591    0.5924 N   0  0  0  0  0  0
   -2.4937   -0.7058    0.4107 C   0  0  0  0  0  0
   -2.1525    0.5553   -0.1272 C   0  0  0  0  0  0
   -3.2517    1.4005   -0.4523 C   0  0  0  0  0  0
   -3.0329    2.6573   -0.9857 N   0  0  0  0  0  0
   -0.7294    0.7971   -0.2662 C   0  0  0  0  0  0
    0.1403   -0.1688    0.1160 C   0  0  0  0  0  0
   -0.9228   -1.4785    0.6933 S   0  0  0  0  0  0
    1.6170   -0.1432    0.0659 C   0  0  0  0  0  0
    2.3093    1.0211    0.4001 C   0  0  0  0  0  0
    3.6924    1.0383    0.3515 C   0  0  0  0  0  0
    4.3908   -0.0996   -0.0292 C   0  0  0  0  0  0
    3.7110   -1.2562   -0.3619 C   0  0  0  0  0  0
    2.3276   -1.2887   -0.3115 C   0  0  0  0  0  0
    1.6605   -2.4269   -0.6391 O   0  0  0  0  0  0
    2.6483   -3.3990   -0.9872 C   0  0  0  0  0  0
    4.3687    2.1722    0.6770 O   0  0  0  0  0  0
    5.7598    1.8795    0.5320 C   0  0  0  0  0  0
   -0.2260    2.1020   -0.8273 C   0  0  0  0  0  0
   -6.0468   -0.6217    0.4708 N   0  0  0  0  0  0
   -3.7281    3.0921   -1.5039 H   0  0  0  0  0  0
   -2.1841    3.1042   -0.8416 H   0  0  0  0  0  0
    1.7671    1.9072    0.6957 H   0  0  0  0  0  0
    5.4700   -0.0809   -0.0658 H   0  0  0  0  0  0
    4.2602   -2.1378   -0.6580 H   0  0  0  0  0  0
    2.1582   -4.3339   -1.2588 H   0  0  0  0  0  0
    3.2330   -3.0363   -1.8326 H   0  0  0  0  0  0
    3.3073   -3.5683   -0.1356 H   0  0  0  0  0  0
    6.3453    2.7638    0.7835 H   0  0  0  0  0  0
    6.0307    1.0622    1.2003 H   0  0  0  0  0  0
    5.9645    1.5892   -0.4985 H   0  0  0  0  0  0
   -0.1881    2.8482   -0.0337 H   0  0  0  0  0  0
    0.7729    1.9590   -1.2395 H   0  0  0  0  0  0
   -0.8986    2.4426   -1.6145 H   0  0  0  0  0  0
   -6.7730   -0.0219    0.2390 H   0  0  0  0  0  0
   -6.2402   -1.4965    0.8428 H   0  0  0  0  0  0
  1  2  1  0  0  0
  1  6  2  0  0  0
  2  3  2  0  0  0
  2 22  1  0  0  0
  3  4  1  0  0  0
  4  5  2  0  0  0
  4 10  1  0  0  0
  5  6  1  0  0  0
  5  8  1  0  0  0
  6  7  1  0  0  0
  7 23  1  0  0  0
  7 24  1  0  0  0
  8  9  2  0  0  0
  8 21  1  0  0  0
  9 10  1  0  0  0
  9 11  1  0  0  0
 11 12  1  0  0  0
 11 16  2  0  0  0
 12 13  2  0  0  0
 12 25  1  0  0  0
 13 14  1  0  0  0
 13 19  1  0  0  0
 14 15  2  0  0  0
 14 26  1  0  0  0
 15 16  1  0  0  0
 15 27  1  0  0  0
 16 17  1  0  0  0
 17 18  1  0  0  0
 18 28  1  0  0  0
 18 29  1  0  0  0
 18 30  1  0  0  0
 19 20  1  0  0  0
 20 31  1  0  0  0
 20 32  1  0  0  0
 20 33  1  0  0  0
 21 34  1  0  0  0
 21 35  1  0  0  0
 21 36  1  0  0  0
 22 37  1  0  0  0
 22 38  1  0  0  0
M  END
>  <ACTIVITY>
6.4318

>  <set_rl>
2

>  <Min_dist>
0.194805

>  <Avg_dist>
0.619668

>  <PC_uM>
4.8

>  <TG_uM>
0.13

>  <RL_uM>
0.37

$$$$
40-5
  Cerius2 12110214553D 1   1.00000                          
 
 44 46  0  0  0  0  0  0  0  0999 V2000
   -5.4841    0.9569    0.2637 N   0  0  0  0  0  0
   -5.7299   -0.3474    0.2412 C   0  0  0  0  0  0
   -4.7575   -1.2272    0.0475 N   0  0  0  0  0  0
   -3.5155   -0.8194   -0.1287 C   0  0  0  0  0  0
   -3.1809    0.5517   -0.1175 C   0  0  0  0  0  0
   -4.2671    1.4456    0.0952 C   0  0  0  0  0  0
   -4.0525    2.8114    0.1245 N   0  0  0  0  0  0
   -1.7711    0.8379   -0.3252 C   0  0  0  0  0  0
   -0.9165   -0.1788   -0.5064 C   0  0  0  0  0  0
   -1.9593   -1.6217   -0.4099 S   0  0  0  0  0  0
    0.5714   -0.1169   -0.7372 C   0  0  0  0  0  0
    1.2985   -0.1617    0.6082 C   0  0  0  0  0  0
    2.7865   -0.0998    0.3774 C   0  0  0  0  0  0
    3.4283    1.1227    0.3330 C   0  0  0  0  0  0
    4.7976    1.1797    0.1211 C   0  0  0  0  0  0
    5.5228    0.0090   -0.0464 C   0  0  0  0  0  0
    4.8812   -1.2131   -0.0020 C   0  0  0  0  0  0
    3.5123   -1.2703    0.2152 C   0  0  0  0  0  0
    2.8805   -2.4737    0.2593 O   0  0  0  0  0  0
    3.8805   -3.4730    0.0510 C   0  0  0  0  0  0
    5.4294    2.3830    0.0770 O   0  0  0  0  0  0
    6.8141    2.1144   -0.1522 C   0  0  0  0  0  0
   -1.2760    2.2612   -0.3373 C   0  0  0  0  0  0
   -7.0270   -0.7977    0.4241 N   0  0  0  0  0  0
   -4.7837    3.4214   -0.0602 H   0  0  0  0  0  0
   -3.1707    3.1595    0.3299 H   0  0  0  0  0  0
    0.8804   -0.9669   -1.3457 H   0  0  0  0  0  0
    0.8207    0.8097   -1.2542 H   0  0  0  0  0  0
    0.9896    0.6882    1.2167 H   0  0  0  0  0  0
    1.0493   -1.0884    1.1252 H   0  0  0  0  0  0
    2.8637    2.0341    0.4631 H   0  0  0  0  0  0
    6.5892    0.0534   -0.2118 H   0  0  0  0  0  0
    5.4457   -2.1245   -0.1328 H   0  0  0  0  0  0
    3.4190   -4.4601    0.0781 H   0  0  0  0  0  0
    4.3517   -3.3187   -0.9197 H   0  0  0  0  0  0
    4.6337   -3.4025    0.8357 H   0  0  0  0  0  0
    7.3642    3.0544   -0.1955 H   0  0  0  0  0  0
    7.2047    1.5020    0.6604 H   0  0  0  0  0  0
    6.9295    1.5821   -1.0963 H   0  0  0  0  0  0
   -1.1073    2.5958    0.6862 H   0  0  0  0  0  0
   -0.3419    2.3162   -0.8962 H   0  0  0  0  0  0
   -2.0208    2.9010   -0.8106 H   0  0  0  0  0  0
   -7.7455   -0.1619    0.5668 H   0  0  0  0  0  0
   -7.2169   -1.7488    0.4093 H   0  0  0  0  0  0
  1  2  1  0  0  0
  1  6  2  0  0  0
  2  3  2  0  0  0
  2 24  1  0  0  0
  3  4  1  0  0  0
  4  5  2  0  0  0
  4 10  1  0  0  0
  5  6  1  0  0  0
  5  8  1  0  0  0
  6  7  1  0  0  0
  7 25  1  0  0  0
  7 26  1  0  0  0
  8  9  2  0  0  0
  8 23  1  0  0  0
  9 10  1  0  0  0
  9 11  1  0  0  0
 11 12  1  0  0  0
 11 27  1  0  0  0
 11 28  1  0  0  0
 12 13  1  0  0  0
 12 29  1  0  0  0
 12 30  1  0  0  0
 13 14  1  0  0  0
 13 18  2  0  0  0
 14 15  2  0  0  0
 14 31  1  0  0  0
 15 16  1  0  0  0
 15 21  1  0  0  0
 16 17  2  0  0  0
 16 32  1  0  0  0
 17 18  1  0  0  0
 17 33  1  0  0  0
 18 19  1  0  0  0
 19 20  1  0  0  0
 20 34  1  0  0  0
 20 35  1  0  0  0
 20 36  1  0  0  0
 21 22  1  0  0  0
 22 37  1  0  0  0
 22 38  1  0  0  0
 22 39  1  0  0  0
 23 40  1  0  0  0
 23 41  1  0  0  0
 23 42  1  0  0  0
 24 43  1  0  0  0
 24 44  1  0  0  0
M  END
>  <ACTIVITY>
5.22915

>  <set_rl>
2

>  <Min_dist>
0.119048

>  <Avg_dist>
0.601822

>  <PC_uM>
1.2

>  <TG_uM>
3.3

>  <RL_uM>
5.9

$$$$
40-TABLE2-2
  Cerius2 12110214553D 1   1.00000                          
 
 30 32  0  0  0  0  0  0  0  0999 V2000
   -4.9165    0.9013    0.1997 N   0  0  0  0  0  0
   -5.2116   -0.3119   -0.2514 C   0  0  0  0  0  0
   -4.2628   -1.2042   -0.4986 N   0  0  0  0  0  0
   -2.9948   -0.9016   -0.2998 C   0  0  0  0  0  0
   -2.6063    0.3700    0.1783 C   0  0  0  0  0  0
   -3.6711    1.2834    0.4251 C   0  0  0  0  0  0
   -3.4050    2.5560    0.8953 N   0  0  0  0  0  0
   -1.1775    0.5510    0.3457 C   0  0  0  0  0  0
   -0.3465   -0.4749    0.0427 C   0  0  0  0  0  0
   -1.4567   -1.7628   -0.4934 S   0  0  0  0  0  0
    1.1283   -0.5165    0.1340 C   0  0  0  0  0  0
    1.7602   -1.5731    0.7921 C   0  0  0  0  0  0
    3.1366   -1.6072    0.8739 C   0  0  0  0  0  0
    3.8923   -0.5959    0.3053 C   0  0  0  0  0  0
    3.2715    0.4558   -0.3494 C   0  0  0  0  0  0
    1.8945    0.4975   -0.4425 C   0  0  0  0  0  0
    4.2268    1.7195   -1.0594 Cl  0  0  0  0  0  0
    5.6242   -0.6454    0.4135 Cl  0  0  0  0  0  0
   -0.6257    1.8601    0.8485 C   0  0  0  0  0  0
   -6.5364   -0.6520   -0.4676 N   0  0  0  0  0  0
   -4.0473    3.2691    0.7545 H   0  0  0  0  0  0
   -2.5761    2.7357    1.3659 H   0  0  0  0  0  0
    1.1722   -2.3624    1.2368 H   0  0  0  0  0  0
    3.6260   -2.4244    1.3830 H   0  0  0  0  0  0
    1.4112    1.3172   -0.9532 H   0  0  0  0  0  0
   -0.6704    1.8790    1.9374 H   0  0  0  0  0  0
    0.4100    1.9657    0.5255 H   0  0  0  0  0  0
   -1.2174    2.6823    0.4461 H   0  0  0  0  0  0
   -7.2382   -0.0065   -0.2896 H   0  0  0  0  0  0
   -6.7626   -1.5359   -0.7971 H   0  0  0  0  0  0
  1  2  1  0  0  0
  1  6  2  0  0  0
  2  3  2  0  0  0
  2 20  1  0  0  0
  3  4  1  0  0  0
  4  5  2  0  0  0
  4 10  1  0  0  0
  5  6  1  0  0  0
  5  8  1  0  0  0
  6  7  1  0  0  0
  7 21  1  0  0  0
  7 22  1  0  0  0
  8  9  2  0  0  0
  8 19  1  0  0  0
  9 10  1  0  0  0
  9 11  1  0  0  0
 11 12  1  0  0  0
 11 16  2  0  0  0
 12 13  2  0  0  0
 12 23  1  0  0  0
 13 14  1  0  0  0
 13 24  1  0  0  0
 14 15  2  0  0  0
 14 18  1  0  0  0
 15 16  1  0  0  0
 15 17  1  0  0  0
 16 25  1  0  0  0
 19 26  1  0  0  0
 19 27  1  0  0  0
 19 28  1  0  0  0
 20 29  1  0  0  0
 20 30  1  0  0  0
M  END
>  <ACTIVITY>
5.33724

>  <set_rl>
2

>  <Min_dist>
0.101449

>  <Avg_dist>
0.647063

>  <PC_uM>
16

>  <TG_uM>
>28

>  <RL_uM>
4.6

$$$$
40-TABLE-2-6
  Cerius2 12110214553D 1   1.00000                          
 
 27 29  0  0  0  0  0  0  0  0999 V2000
   -2.5916    1.1206   -0.0258 N   0  0  0  0  0  0
   -3.0750   -0.1155   -0.0035 C   0  0  0  0  0  0
   -2.2700   -1.1685    0.0169 N   0  0  0  0  0  0
   -0.9609   -1.0045    0.0143 C   0  0  0  0  0  0
   -0.3776    0.2775   -0.0095 C   0  0  0  0  0  0
   -1.2924    1.3674   -0.0294 C   0  0  0  0  0  0
   -0.8280    2.6698   -0.0527 N   0  0  0  0  0  0
    1.0869    0.3115   -0.0110 C   0  0  0  0  0  0
    1.7261   -0.8748    0.0106 C   0  0  0  0  0  0
    0.4390   -2.0937    0.0346 S   0  0  0  0  0  0
    3.2063   -1.1085    0.0126 C   0  0  0  0  0  0
    3.9041    0.1988   -0.3889 C   0  0  0  0  0  0
    3.3031    1.3465    0.4281 C   0  0  0  0  0  0
    1.8721    1.6201   -0.0352 C   0  0  0  0  0  0
   -4.4467   -0.3086   -0.0011 N   0  0  0  0  0  0
   -1.4251    3.4017    0.1683 H   0  0  0  0  0  0
    0.0948    2.8515   -0.2900 H   0  0  0  0  0  0
    3.5295   -1.4057    1.0102 H   0  0  0  0  0  0
    3.4551   -1.8921   -0.7030 H   0  0  0  0  0  0
    4.9714    0.1222   -0.1817 H   0  0  0  0  0  0
    3.7479    0.3854   -1.4514 H   0  0  0  0  0  0
    3.2960    1.0747    1.4836 H   0  0  0  0  0  0
    3.9063    2.2438    0.2903 H   0  0  0  0  0  0
    1.8865    2.0179   -1.0500 H   0  0  0  0  0  0
    1.4028    2.3405    0.6347 H   0  0  0  0  0  0
   -5.0441    0.4555   -0.0156 H   0  0  0  0  0  0
   -4.8098   -1.2079    0.0151 H   0  0  0  0  0  0
  1  2  1  0  0  0
  1  6  2  0  0  0
  2  3  2  0  0  0
  2 15  1  0  0  0
  3  4  1  0  0  0
  4  5  2  0  0  0
  4 10  1  0  0  0
  5  6  1  0  0  0
  5  8  1  0  0  0
  6  7  1  0  0  0
  7 16  1  0  0  0
  7 17  1  0  0  0
  8  9  2  0  0  0
  8 14  1  0  0  0
  9 10  1  0  0  0
  9 11  1  0  0  0
 11 12  1  0  0  0
 11 18  1  0  0  0
 11 19  1  0  0  0
 12 13  1  0  0  0
 12 20  1  0  0  0
 12 21  1  0  0  0
 13 14  1  0  0  0
 13 22  1  0  0  0
 13 23  1  0  0  0
 14 24  1  0  0  0
 14 25  1  0  0  0
 15 26  1  0  0  0
 15 27  1  0  0  0
M  END
>  <ACTIVITY>
5.40894

>  <set_rl>
2

>  <Min_dist>
0.434783

>  <Avg_dist>
0.660954

>  <PC_uM>
2.1

>  <TG_uM>
2.8

>  <RL_uM>
3.9

$$$$
36-6C
  Cerius2 12110214553D 1   1.00000                          
 
 47 49  0  0  0  0  0  0  0  0999 V2000
   -5.0125    1.0689    1.0037 N   0  0  0  0  0  0
   -5.5515    0.7965   -0.1784 C   0  0  0  0  0  0
   -4.8654    0.1592   -1.1165 N   0  0  0  0  0  0
   -3.6222   -0.2196   -0.8913 C   0  0  0  0  0  0
   -2.9851    0.0366    0.3417 C   0  0  0  0  0  0
   -3.7729    0.7229    1.3072 C   0  0  0  0  0  0
   -3.2472    1.0259    2.5502 N   0  0  0  0  0  0
   -1.6161   -0.4436    0.4334 C   0  0  0  0  0  0
   -1.0716   -1.0733   -0.6186 C   0  0  0  0  0  0
   -2.3795   -1.0675   -1.8301 S   0  0  0  0  0  0
    0.6691   -1.7947   -0.7785 Br  0  0  0  0  0  0
   -0.8181   -0.2360    1.6948 C   0  0  0  0  0  0
    0.5052   -0.8455    1.5412 N   0  0  0  0  0  0
    1.5616   -0.0989    1.0082 C   0  0  0  0  0  0
    2.8447   -0.6288    0.9878 C   0  0  0  0  0  0
    3.8918    0.1103    0.4599 C   0  0  0  0  0  0
    3.6571    1.3820   -0.0489 C   0  0  0  0  0  0
    2.3726    1.9118   -0.0281 C   0  0  0  0  0  0
    1.3254    1.1692    0.4949 C   0  0  0  0  0  0
    2.1419    3.1561   -0.5259 O   0  0  0  0  0  0
    0.7636    3.4477   -0.2865 C   0  0  0  0  0  0
    4.6855    2.1089   -0.5673 O   0  0  0  0  0  0
    4.7559    1.7909   -1.9587 C   0  0  0  0  0  0
    5.1487   -0.4087    0.4404 O   0  0  0  0  0  0
    5.0671   -1.7102    1.0247 C   0  0  0  0  0  0
    0.7224   -2.2367    1.9457 C   0  0  0  0  0  0
   -6.8559    1.1854   -0.4363 N   0  0  0  0  0  0
   -3.7606    1.5594    3.1769 H   0  0  0  0  0  0
   -2.3653    0.7048    2.7953 H   0  0  0  0  0  0
   -0.7067    0.8319    1.8827 H   0  0  0  0  0  0
   -1.3369   -0.7004    2.5334 H   0  0  0  0  0  0
    3.0270   -1.6170    1.3836 H   0  0  0  0  0  0
    0.3269    1.5806    0.5108 H   0  0  0  0  0  0
    0.5221    4.4266   -0.7008 H   0  0  0  0  0  0
    0.1435    2.6885   -0.7631 H   0  0  0  0  0  0
    0.5739    3.4506    0.7868 H   0  0  0  0  0  0
    5.5691    2.3521   -2.4190 H   0  0  0  0  0  0
    4.9380    0.7230   -2.0786 H   0  0  0  0  0  0
    3.8142    2.0552   -2.4399 H   0  0  0  0  0  0
    6.0562   -2.1683    1.0310 H   0  0  0  0  0  0
    4.6988   -1.6270    2.0472 H   0  0  0  0  0  0
    4.3843   -2.3281    0.4416 H   0  0  0  0  0  0
   -0.2270   -2.6803    2.2455 H   0  0  0  0  0  0
    1.1375   -2.7979    1.1086 H   0  0  0  0  0  0
    1.4183   -2.2669    2.7841 H   0  0  0  0  0  0
   -7.3664    1.6520    0.2438 H   0  0  0  0  0  0
   -7.2588    0.9910   -1.2970 H   0  0  0  0  0  0
  1  2  1  0  0  0
  1  6  2  0  0  0
  2  3  2  0  0  0
  2 27  1  0  0  0
  3  4  1  0  0  0
  4  5  2  0  0  0
  4 10  1  0  0  0
  5  6  1  0  0  0
  5  8  1  0  0  0
  6  7  1  0  0  0
  7 28  1  0  0  0
  7 29  1  0  0  0
  8  9  2  0  0  0
  8 12  1  0  0  0
  9 10  1  0  0  0
  9 11  1  0  0  0
 12 13  1  0  0  0
 12 30  1  0  0  0
 12 31  1  0  0  0
 13 14  1  0  0  0
 13 26  1  0  0  0
 14 15  1  0  0  0
 14 19  2  0  0  0
 15 16  2  0  0  0
 15 32  1  0  0  0
 16 17  1  0  0  0
 16 24  1  0  0  0
 17 18  2  0  0  0
 17 22  1  0  0  0
 18 19  1  0  0  0
 18 20  1  0  0  0
 19 33  1  0  0  0
 20 21  1  0  0  0
 21 34  1  0  0  0
 21 35  1  0  0  0
 21 36  1  0  0  0
 22 23  1  0  0  0
 23 37  1  0  0  0
 23 38  1  0  0  0
 23 39  1  0  0  0
 24 25  1  0  0  0
 25 40  1  0  0  0
 25 41  1  0  0  0
 25 42  1  0  0  0
 26 43  1  0  0  0
 26 44  1  0  0  0
 26 45  1  0  0  0
 27 46  1  0  0  0
 27 47  1  0  0  0
M  END
>  <ACTIVITY>
4.55284

>  <set_rl>
2

>  <Min_dist>
0.061856

>  <Avg_dist>
0.546768

>  <PC_uM>
31

>  <TG_uM>
127

>  <RL_uM>
28

$$$$
36-6E
  Cerius2 12110214553D 1   1.00000                          
 
 40 43  0  0  0  0  0  0  0  0999 V2000
   -3.7886   -3.2117    0.5965 N   0  0  0  0  0  0
   -5.0458   -3.0323    0.2099 C   0  0  0  0  0  0
   -5.4927   -1.8353   -0.1426 N   0  0  0  0  0  0
   -4.6891   -0.7896   -0.1154 C   0  0  0  0  0  0
   -3.3409   -0.9058    0.2853 C   0  0  0  0  0  0
   -2.9214   -2.2151    0.6509 C   0  0  0  0  0  0
   -1.6198   -2.4430    1.0601 N   0  0  0  0  0  0
   -2.5871    0.3368    0.2612 C   0  0  0  0  0  0
   -3.1993    1.4663   -0.1250 C   0  0  0  0  0  0
   -4.8613    0.9349   -0.4909 S   0  0  0  0  0  0
   -2.4726    3.2076   -0.2507 Br  0  0  0  0  0  0
   -1.1355    0.3561    0.6657 C   0  0  0  0  0  0
   -0.3065   -0.0537   -0.4706 N   0  0  0  0  0  0
    1.0840   -0.1130   -0.3360 C   0  0  0  0  0  0
    1.8700   -0.5015   -1.4132 C   0  0  0  0  0  0
    3.2440   -0.5606   -1.2802 C   0  0  0  0  0  0
    3.8393   -0.2310   -0.0693 C   0  0  0  0  0  0
    3.0533    0.1579    1.0078 C   0  0  0  0  0  0
    1.6796    0.2220    0.8731 C   0  0  0  0  0  0
    3.7972    0.5699    2.5212 Cl  0  0  0  0  0  0
    5.2359   -0.2915    0.0661 N   0  0  0  0  0  0
    6.0503    0.7556    0.3880 C   0  0  0  0  0  0
    7.3215    0.3056    0.4231 C   0  0  0  0  0  0
    7.2921   -1.0683    0.1119 C   0  0  0  0  0  0
    6.0036   -1.4085   -0.0966 C   0  0  0  0  0  0
    4.2263   -1.0473   -2.6263 Cl  0  0  0  0  0  0
   -5.9070   -4.1169    0.1738 N   0  0  0  0  0  0
   -1.4099   -3.2225    1.5978 H   0  0  0  0  0  0
   -0.9171   -1.8232    0.8094 H   0  0  0  0  0  0
   -0.8575    1.3641    0.9734 H   0  0  0  0  0  0
   -0.9805   -0.3330    1.4958 H   0  0  0  0  0  0
   -0.7222   -0.2839   -1.3162 H   0  0  0  0  0  0
    1.4071   -0.7578   -2.3548 H   0  0  0  0  0  0
    1.0685    0.5248    1.7105 H   0  0  0  0  0  0
    5.7319    1.7695    0.5807 H   0  0  0  0  0  0
    8.2006    0.8911    0.6484 H   0  0  0  0  0  0
    8.1446   -1.7289    0.0550 H   0  0  0  0  0  0
    5.6423   -2.3932   -0.3540 H   0  0  0  0  0  0
   -5.5895   -4.9971    0.4296 H   0  0  0  0  0  0
   -6.8275   -3.9962   -0.1072 H   0  0  0  0  0  0
  1  2  1  0  0  0
  1  6  2  0  0  0
  2  3  2  0  0  0
  2 27  1  0  0  0
  3  4  1  0  0  0
  4  5  2  0  0  0
  4 10  1  0  0  0
  5  6  1  0  0  0
  5  8  1  0  0  0
  6  7  1  0  0  0
  7 28  1  0  0  0
  7 29  1  0  0  0
  8  9  2  0  0  0
  8 12  1  0  0  0
  9 10  1  0  0  0
  9 11  1  0  0  0
 12 13  1  0  0  0
 12 30  1  0  0  0
 12 31  1  0  0  0
 13 14  1  0  0  0
 13 32  1  0  0  0
 14 15  1  0  0  0
 14 19  2  0  0  0
 15 16  2  0  0  0
 15 33  1  0  0  0
 16 17  1  0  0  0
 16 26  1  0  0  0
 17 18  2  0  0  0
 17 21  1  0  0  0
 18 19  1  0  0  0
 18 20  1  0  0  0
 19 34  1  0  0  0
 21 22  1  0  0  0
 21 25  1  0  0  0
 22 23  2  0  0  0
 22 35  1  0  0  0
 23 24  1  0  0  0
 23 36  1  0  0  0
 24 25  2  0  0  0
 24 37  1  0  0  0
 25 38  1  0  0  0
 27 39  1  0  0  0
 27 40  1  0  0  0
M  END
>  <ACTIVITY>
5

>  <set_rl>
2

>  <Min_dist>
0.242424

>  <Avg_dist>
0.569367

>  <PC_uM>
7.5

>  <TG_uM>
26

>  <RL_uM>
10

$$$$
37-1C
  Cerius2 12110214553D 1   1.00000                          
 
 28 30  0  0  0  0  0  0  0  0999 V2000
   -3.6381   -1.4328    0.6288 N   0  0  0  0  0  0
   -4.6172   -0.5622    0.4164 C   0  0  0  0  0  0
   -4.3965    0.6536   -0.0538 N   0  0  0  0  0  0
   -3.1586    1.0583   -0.3376 C   0  0  0  0  0  0
   -2.0944    0.1658   -0.1266 C   0  0  0  0  0  0
   -2.3731   -1.1140    0.3734 C   0  0  0  0  0  0
   -1.3553   -2.0237    0.5964 N   0  0  0  0  0  0
   -0.8743    0.8819   -0.5233 C   0  0  0  0  0  0
   -1.2660    2.1131   -0.9324 C   0  0  0  0  0  0
   -2.6269    2.2223   -0.8233 N   0  0  0  0  0  0
   -3.1403    3.0114   -1.0568 H   0  0  0  0  0  0
    0.5128    0.3603   -0.4834 C   0  0  0  0  0  0
    1.4776    0.9978    0.2954 C   0  0  0  0  0  0
    2.7679    0.5075    0.3294 C   0  0  0  0  0  0
    3.1040   -0.6157   -0.4094 C   0  0  0  0  0  0
    2.1494   -1.2513   -1.1841 C   0  0  0  0  0  0
    0.8554   -0.7726   -1.2198 C   0  0  0  0  0  0
    4.7280   -1.2274   -0.3633 Cl  0  0  0  0  0  0
    3.9710    1.2996    1.2983 Cl  0  0  0  0  0  0
   -5.9191   -0.9418    0.6976 N   0  0  0  0  0  0
   -1.5608   -2.9062    0.9426 H   0  0  0  0  0  0
   -0.4360   -1.7792    0.4064 H   0  0  0  0  0  0
   -0.6059    2.8898   -1.2892 H   0  0  0  0  0  0
    1.2163    1.8737    0.8708 H   0  0  0  0  0  0
    2.4165   -2.1262   -1.7583 H   0  0  0  0  0  0
    0.1114   -1.2698   -1.8246 H   0  0  0  0  0  0
   -6.1015   -1.8297    1.0430 H   0  0  0  0  0  0
   -6.6484   -0.3198    0.5492 H   0  0  0  0  0  0
  1  2  1  0  0  0
  1  6  2  0  0  0
  2  3  2  0  0  0
  2 20  1  0  0  0
  3  4  1  0  0  0
  4  5  2  0  0  0
  4 10  1  0  0  0
  5  6  1  0  0  0
  5  8  1  0  0  0
  6  7  1  0  0  0
  7 21  1  0  0  0
  7 22  1  0  0  0
  8  9  2  0  0  0
  8 12  1  0  0  0
  9 10  1  0  0  0
  9 23  1  0  0  0
 10 11  1  0  0  0
 12 13  1  0  0  0
 12 17  2  0  0  0
 13 14  2  0  0  0
 13 24  1  0  0  0
 14 15  1  0  0  0
 14 19  1  0  0  0
 15 16  2  0  0  0
 15 18  1  0  0  0
 16 17  1  0  0  0
 16 25  1  0  0  0
 17 26  1  0  0  0
 20 27  1  0  0  0
 20 28  1  0  0  0
M  END
>  <ACTIVITY>
4.63827

>  <set_rl>
2

>  <Min_dist>
0.392405

>  <Avg_dist>
0.591397

>  <PC_uM>
33

>  <TG_uM>
16

>  <RL_uM>
23

$$$$
37-1D
  Cerius2 12110214553D 1   1.00000                          
 
 40 42  0  0  0  0  0  0  0  0999 V2000
   -3.5340   -1.1514    1.1096 N   0  0  0  0  0  0
   -4.5658   -0.4727    0.6233 C   0  0  0  0  0  0
   -4.4183    0.5428   -0.2103 N   0  0  0  0  0  0
   -3.2042    0.9307   -0.6008 C   0  0  0  0  0  0
   -2.0859    0.2377   -0.1079 C   0  0  0  0  0  0
   -2.2878   -0.8335    0.7738 C   0  0  0  0  0  0
   -1.2150   -1.5428    1.2828 N   0  0  0  0  0  0
   -0.9083    0.8825   -0.7047 C   0  0  0  0  0  0
   -1.3738    1.8846   -1.4892 C   0  0  0  0  0  0
   -2.7423    1.9167   -1.4301 N   0  0  0  0  0  0
   -3.3034    2.5478   -1.9075 H   0  0  0  0  0  0
    0.5108    0.5102   -0.4902 C   0  0  0  0  0  0
    1.4013    1.4366    0.0499 C   0  0  0  0  0  0
    2.7260    1.0873    0.2494 C   0  0  0  0  0  0
    3.1685   -0.1868   -0.0892 C   0  0  0  0  0  0
    2.2817   -1.1122   -0.6285 C   0  0  0  0  0  0
    0.9547   -0.7684   -0.8232 C   0  0  0  0  0  0
    2.7168   -2.3573   -0.9598 O   0  0  0  0  0  0
    1.5892   -3.0639   -1.4807 C   0  0  0  0  0  0
    4.4713   -0.5284    0.1072 O   0  0  0  0  0  0
    4.5614   -1.0725    1.4255 C   0  0  0  0  0  0
    3.5952    1.9908    0.7763 O   0  0  0  0  0  0
    2.8523    3.1881    1.0146 C   0  0  0  0  0  0
   -5.8453   -0.8424    1.0032 N   0  0  0  0  0  0
   -1.3675   -2.2820    1.8921 H   0  0  0  0  0  0
   -0.3101   -1.3010    1.0306 H   0  0  0  0  0  0
   -0.7599    2.5555   -2.0717 H   0  0  0  0  0  0
    1.0581    2.4265    0.3123 H   0  0  0  0  0  0
    0.2661   -1.4875   -1.2418 H   0  0  0  0  0  0
    1.8908   -4.0730   -1.7615 H   0  0  0  0  0  0
    0.8100   -3.1159   -0.7203 H   0  0  0  0  0  0
    1.2068   -2.5417   -2.3577 H   0  0  0  0  0  0
    5.5923   -1.3622    1.6293 H   0  0  0  0  0  0
    4.2445   -0.3228    2.1505 H   0  0  0  0  0  0
    3.9162   -1.9477    1.5022 H   0  0  0  0  0  0
    3.5108    3.9458    1.4394 H   0  0  0  0  0  0
    2.4386    3.5522    0.0742 H   0  0  0  0  0  0
    2.0410    2.9796    1.7119 H   0  0  0  0  0  0
   -5.9744   -1.5851    1.6138 H   0  0  0  0  0  0
   -6.6123   -0.3588    0.6587 H   0  0  0  0  0  0
  1  2  1  0  0  0
  1  6  2  0  0  0
  2  3  2  0  0  0
  2 24  1  0  0  0
  3  4  1  0  0  0
  4  5  2  0  0  0
  4 10  1  0  0  0
  5  6  1  0  0  0
  5  8  1  0  0  0
  6  7  1  0  0  0
  7 25  1  0  0  0
  7 26  1  0  0  0
  8  9  2  0  0  0
  8 12  1  0  0  0
  9 10  1  0  0  0
  9 27  1  0  0  0
 10 11  1  0  0  0
 12 13  1  0  0  0
 12 17  2  0  0  0
 13 14  2  0  0  0
 13 28  1  0  0  0
 14 15  1  0  0  0
 14 22  1  0  0  0
 15 16  2  0  0  0
 15 20  1  0  0  0
 16 17  1  0  0  0
 16 18  1  0  0  0
 17 29  1  0  0  0
 18 19  1  0  0  0
 19 30  1  0  0  0
 19 31  1  0  0  0
 19 32  1  0  0  0
 20 21  1  0  0  0
 21 33  1  0  0  0
 21 34  1  0  0  0
 21 35  1  0  0  0
 22 23  1  0  0  0
 23 36  1  0  0  0
 23 37  1  0  0  0
 23 38  1  0  0  0
 24 39  1  0  0  0
 24 40  1  0  0  0
M  END
>  <ACTIVITY>
4.56864

>  <set_rl>
2

>  <Min_dist>
0.285714

>  <Avg_dist>
0.552134

>  <PC_uM>
8.3

>  <TG_uM>
14

>  <RL_uM>
27

$$$$
41-7A
  Cerius2 12110214553D 1   1.00000                          
 
 41 44  0  0  0  0  0  0  0  0999 V2000
   -4.1686    0.2472   -1.6884 N   0  0  0  0  0  0
   -5.1008    0.7244   -0.8735 C   0  0  0  0  0  0
   -4.9752    0.6997    0.4430 N   0  0  0  0  0  0
   -3.8880    0.1853    1.0122 C   0  0  0  0  0  0
   -2.8774   -0.3305    0.1843 C   0  0  0  0  0  0
   -3.0495   -0.2851   -1.2067 C   0  0  0  0  0  0
   -2.0788   -0.7826   -2.0570 N   0  0  0  0  0  0
   -1.8326   -0.8143    1.0901 C   0  0  0  0  0  0
   -2.2726   -0.5651    2.3313 C   0  0  0  0  0  0
   -3.4828    0.0234    2.2828 O   0  0  0  0  0  0
   -0.5277   -1.4620    0.7043 C   0  0  0  0  0  0
    0.7455   -0.1853    0.5057 S   0  0  0  0  0  0
    2.1234   -1.1927    0.0683 C   0  0  0  0  0  0
    3.3698   -0.6071   -0.1881 C   0  0  0  0  0  0
    4.4519   -1.4125   -0.5329 C   0  0  0  0  0  0
    4.2923   -2.7811   -0.6206 C   0  0  0  0  0  0
    3.0601   -3.3579   -0.3670 C   0  0  0  0  0  0
    1.9798   -2.5708   -0.0183 C   0  0  0  0  0  0
    3.5358    0.8633   -0.0930 C   0  0  0  0  0  0
    3.9439    1.5947   -1.2073 C   0  0  0  0  0  0
    4.0963    2.9631   -1.1131 C   0  0  0  0  0  0
    3.8450    3.6089    0.0841 C   0  0  0  0  0  0
    3.4403    2.8881    1.1933 C   0  0  0  0  0  0
    3.2790    1.5201    1.1093 C   0  0  0  0  0  0
   -6.2492    1.2697   -1.4225 N   0  0  0  0  0  0
   -2.2099   -0.7453   -3.0173 H   0  0  0  0  0  0
   -1.2669   -1.1688   -1.6929 H   0  0  0  0  0  0
   -1.7354   -0.8019    3.2378 H   0  0  0  0  0  0
   -0.2238   -2.1599    1.4846 H   0  0  0  0  0  0
   -0.6528   -1.9997   -0.2355 H   0  0  0  0  0  0
    5.4153   -0.9670   -0.7321 H   0  0  0  0  0  0
    5.1327   -3.4043   -0.8886 H   0  0  0  0  0  0
    2.9436   -4.4293   -0.4378 H   0  0  0  0  0  0
    1.0208   -3.0269    0.1784 H   0  0  0  0  0  0
    4.1407    1.0915   -2.1424 H   0  0  0  0  0  0
    4.4127    3.5308   -1.9756 H   0  0  0  0  0  0
    3.9656    4.6799    0.1533 H   0  0  0  0  0  0
    3.2458    3.3975    2.1255 H   0  0  0  0  0  0
    2.9626    0.9584    1.9758 H   0  0  0  0  0  0
   -6.3603    1.2975   -2.3857 H   0  0  0  0  0  0
   -6.9425    1.6239   -0.8439 H   0  0  0  0  0  0
  1  2  1  0  0  0
  1  6  2  0  0  0
  2  3  2  0  0  0
  2 25  1  0  0  0
  3  4  1  0  0  0
  4  5  2  0  0  0
  4 10  1  0  0  0
  5  6  1  0  0  0
  5  8  1  0  0  0
  6  7  1  0  0  0
  7 26  1  0  0  0
  7 27  1  0  0  0
  8  9  2  0  0  0
  8 11  1  0  0  0
  9 10  1  0  0  0
  9 28  1  0  0  0
 11 12  1  0  0  0
 11 29  1  0  0  0
 11 30  1  0  0  0
 12 13  1  0  0  0
 13 14  1  0  0  0
 13 18  2  0  0  0
 14 15  2  0  0  0
 14 19  1  0  0  0
 15 16  1  0  0  0
 15 31  1  0  0  0
 16 17  2  0  0  0
 16 32  1  0  0  0
 17 18  1  0  0  0
 17 33  1  0  0  0
 18 34  1  0  0  0
 19 20  1  0  0  0
 19 24  2  0  0  0
 20 21  2  0  0  0
 20 35  1  0  0  0
 21 22  1  0  0  0
 21 36  1  0  0  0
 22 23  2  0  0  0
 22 37  1  0  0  0
 23 24  1  0  0  0
 23 38  1  0  0  0
 24 39  1  0  0  0
 25 40  1  0  0  0
 25 41  1  0  0  0
M  END
>  <ACTIVITY>
4.3098

>  <set_rl>
2

>  <Min_dist>
0.139241

>  <Avg_dist>
0.628497

>  <PC_uM>
46

>  <TG_uM>
105

>  <RL_uM>
49

$$$$
42-8
  Cerius2 12110214553D 1   1.00000                          
 
 31 33  0  0  0  0  0  0  0  0999 V2000
   -3.1446    1.6747   -0.8854 N   0  0  0  0  0  0
   -3.8807    1.5336    0.2540 C   0  0  0  0  0  0
   -3.6562    0.5680    1.1153 N   0  0  0  0  0  0
   -2.6832   -0.3329    0.9114 C   0  0  0  0  0  0
   -1.8947   -0.2365   -0.2444 C   0  0  0  0  0  0
   -0.9362   -1.3425   -0.1847 C   0  0  0  0  0  0
   -1.1924   -2.0137    0.9570 C   0  0  0  0  0  0
   -2.2406   -1.4112    1.6186 N   0  0  0  0  0  0
   -2.6093   -1.7104    2.4644 H   0  0  0  0  0  0
   -0.4478   -3.2336    1.4351 C   0  0  0  0  0  0
    0.3086   -1.7222   -1.3726 S   0  0  0  0  0  0
    1.6453   -0.7713   -0.7296 C   0  0  0  0  0  0
    2.8755   -0.7731   -1.3762 C   0  0  0  0  0  0
    3.9210   -0.0265   -0.8701 C   0  0  0  0  0  0
    3.7449    0.7229    0.2801 C   0  0  0  0  0  0
    2.5210    0.7268    0.9264 C   0  0  0  0  0  0
    1.4700   -0.0133    0.4220 C   0  0  0  0  0  0
    5.0621    1.6593    0.9139 Cl  0  0  0  0  0  0
   -2.1458    0.8059   -1.1615 C   0  0  0  0  0  0
   -1.4802    0.9200   -2.1765 O   0  0  0  0  0  0
   -4.8882    2.4299    0.5088 N   0  0  0  0  0  0
   -3.3406    2.3979   -1.5014 H   0  0  0  0  0  0
    0.3954   -2.9254    2.0533 H   0  0  0  0  0  0
   -1.1181   -3.8617    2.0218 H   0  0  0  0  0  0
   -0.0820   -3.7959    0.5760 H   0  0  0  0  0  0
    3.0138   -1.3582   -2.2734 H   0  0  0  0  0  0
    4.8772   -0.0275   -1.3722 H   0  0  0  0  0  0
    2.3867    1.3125    1.8237 H   0  0  0  0  0  0
    0.5152   -0.0098    0.9268 H   0  0  0  0  0  0
   -5.4214    2.3440    1.3146 H   0  0  0  0  0  0
   -5.0671    3.1493   -0.1168 H   0  0  0  0  0  0
  1  2  1  0  0  0
  1 19  1  0  0  0
  1 22  1  0  0  0
  2  3  2  0  0  0
  2 21  1  0  0  0
  3  4  1  0  0  0
  4  5  2  0  0  0
  4  8  1  0  0  0
  5  6  1  0  0  0
  5 19  1  0  0  0
  6  7  2  0  0  0
  6 11  1  0  0  0
  7  8  1  0  0  0
  7 10  1  0  0  0
  8  9  1  0  0  0
 10 23  1  0  0  0
 10 24  1  0  0  0
 10 25  1  0  0  0
 11 12  1  0  0  0
 12 13  1  0  0  0
 12 17  2  0  0  0
 13 14  2  0  0  0
 13 26  1  0  0  0
 14 15  1  0  0  0
 14 27  1  0  0  0
 15 16  2  0  0  0
 15 18  1  0  0  0
 16 17  1  0  0  0
 16 28  1  0  0  0
 17 29  1  0  0  0
 19 20  2  0  0  0
 21 30  1  0  0  0
 21 31  1  0  0  0
M  END
>  <ACTIVITY>
4.60906

>  <set_rl>
2

>  <Min_dist>
0.388889

>  <Avg_dist>
0.710989

>  <PC_uM>
40

>  <TG_uM>
3.1

>  <RL_uM>
24.6

$$$$
43-13
  Cerius2 12110214553D 1   1.00000                          
 
 35 37  0  0  0  0  0  0  0  0999 V2000
   -3.9903   -1.9719    0.2316 N   0  0  0  0  0  0
   -5.0537   -1.2191   -0.1706 C   0  0  0  0  0  0
   -4.9814    0.0872   -0.2856 N   0  0  0  0  0  0
   -3.8470    0.7472   -0.0099 C   0  0  0  0  0  0
   -2.7206    0.0247    0.4082 C   0  0  0  0  0  0
   -1.6605    1.0072    0.6275 C   0  0  0  0  0  0
   -2.1845    2.2107    0.3420 C   0  0  0  0  0  0
   -3.4942    2.0646   -0.0408 N   0  0  0  0  0  0
   -4.0830    2.7918   -0.2963 H   0  0  0  0  0  0
   -1.4465    3.5217    0.4290 C   0  0  0  0  0  0
   -0.2529    0.7247    1.0858 C   0  0  0  0  0  0
    0.6034    0.4947   -0.0804 N   0  0  0  0  0  0
    1.9614    0.2114    0.0945 C   0  0  0  0  0  0
    2.4998    0.1477    1.3729 C   0  0  0  0  0  0
    3.8416   -0.1323    1.5429 C   0  0  0  0  0  0
    4.6499   -0.3494    0.4408 C   0  0  0  0  0  0
    4.1171   -0.2863   -0.8345 C   0  0  0  0  0  0
    2.7738   -0.0127   -1.0106 C   0  0  0  0  0  0
    2.1053    0.0658   -2.6108 Cl  0  0  0  0  0  0
    6.3359   -0.7010    0.6589 Cl  0  0  0  0  0  0
   -2.8113   -1.3795    0.5279 C   0  0  0  0  0  0
   -1.8525   -2.0400    0.8890 O   0  0  0  0  0  0
   -6.2379   -1.8470   -0.4653 N   0  0  0  0  0  0
   -4.0809   -2.9345    0.3092 H   0  0  0  0  0  0
   -0.9712    3.7353   -0.5284 H   0  0  0  0  0  0
   -2.1492    4.3189    0.6715 H   0  0  0  0  0  0
   -0.6853    3.4593    1.2066 H   0  0  0  0  0  0
    0.1235    1.5777    1.6504 H   0  0  0  0  0  0
   -0.2484   -0.1616    1.7203 H   0  0  0  0  0  0
    0.2283    0.5389   -0.9738 H   0  0  0  0  0  0
    1.8699    0.3173    2.2336 H   0  0  0  0  0  0
    4.2605   -0.1815    2.5371 H   0  0  0  0  0  0
    4.7504   -0.4555   -1.6929 H   0  0  0  0  0  0
   -7.0044   -1.3266   -0.7528 H   0  0  0  0  0  0
   -6.3086   -2.8112   -0.3860 H   0  0  0  0  0  0
  1  2  1  0  0  0
  1 21  1  0  0  0
  1 24  1  0  0  0
  2  3  2  0  0  0
  2 23  1  0  0  0
  3  4  1  0  0  0
  4  5  2  0  0  0
  4  8  1  0  0  0
  5  6  1  0  0  0
  5 21  1  0  0  0
  6  7  2  0  0  0
  6 11  1  0  0  0
  7  8  1  0  0  0
  7 10  1  0  0  0
  8  9  1  0  0  0
 10 25  1  0  0  0
 10 26  1  0  0  0
 10 27  1  0  0  0
 11 12  1  0  0  0
 11 28  1  0  0  0
 11 29  1  0  0  0
 12 13  1  0  0  0
 12 30  1  0  0  0
 13 14  1  0  0  0
 13 18  2  0  0  0
 14 15  2  0  0  0
 14 31  1  0  0  0
 15 16  1  0  0  0
 15 32  1  0  0  0
 16 17  2  0  0  0
 16 20  1  0  0  0
 17 18  1  0  0  0
 17 33  1  0  0  0
 18 19  1  0  0  0
 21 22  2  0  0  0
 23 34  1  0  0  0
 23 35  1  0  0  0
M  END
>  <ACTIVITY>
4.82391

>  <set_rl>
2

>  <Min_dist>
0.061947

>  <Avg_dist>
0.629453

>  <PC_uM>
15

>  <TG_uM>
2.2

>  <RL_uM>
15

$$$$
43-15
  Cerius2 12110214553D 1   1.00000                          
 
 46 48  0  0  0  0  0  0  0  0999 V2000
   -3.8767   -1.8493   -0.3919 N   0  0  0  0  0  0
   -4.9494   -1.0079   -0.3687 C   0  0  0  0  0  0
   -4.8358    0.2603   -0.0466 N   0  0  0  0  0  0
   -3.6476    0.7911    0.2775 C   0  0  0  0  0  0
   -2.5092   -0.0272    0.2708 C   0  0  0  0  0  0
   -1.3879    0.8260    0.6609 C   0  0  0  0  0  0
   -1.8916    2.0535    0.8708 C   0  0  0  0  0  0
   -3.2448    2.0420    0.6435 N   0  0  0  0  0  0
   -3.8295    2.8110    0.7301 H   0  0  0  0  0  0
   -1.0922    3.2596    1.2919 C   0  0  0  0  0  0
    0.0534    0.4089    0.8011 C   0  0  0  0  0  0
    0.7430    0.5908   -0.4832 N   0  0  0  0  0  0
    2.0691    0.1885   -0.2882 C   0  0  0  0  0  0
    3.1098    1.0924   -0.4914 C   0  0  0  0  0  0
    4.4207    0.6920   -0.2979 C   0  0  0  0  0  0
    4.6984   -0.6042    0.0970 C   0  0  0  0  0  0
    3.6650   -1.5063    0.2997 C   0  0  0  0  0  0
    2.3495   -1.1088    0.1132 C   0  0  0  0  0  0
    3.9414   -2.7801    0.6870 O   0  0  0  0  0  0
    5.3627   -2.8787    0.7985 C   0  0  0  0  0  0
    2.8378    2.3679   -0.8804 O   0  0  0  0  0  0
    4.0934    3.0390   -1.0030 C   0  0  0  0  0  0
    0.1451   -0.3672   -1.4227 C   0  0  0  0  0  0
   -2.6446   -1.3890   -0.0774 C   0  0  0  0  0  0
   -1.6768   -2.1300   -0.0936 O   0  0  0  0  0  0
   -6.1880   -1.5021   -0.6929 N   0  0  0  0  0  0
   -3.9983   -2.7815   -0.6308 H   0  0  0  0  0  0
   -0.7357    3.7863    0.4068 H   0  0  0  0  0  0
   -1.7223    3.9253    1.8817 H   0  0  0  0  0  0
   -0.2403    2.9395    1.8919 H   0  0  0  0  0  0
    0.5364    1.0212    1.5627 H   0  0  0  0  0  0
    0.1014   -0.6399    1.0939 H   0  0  0  0  0  0
    5.2276    1.3923   -0.4557 H   0  0  0  0  0  0
    5.7219   -0.9143    0.2474 H   0  0  0  0  0  0
    1.5448   -1.8117    0.2711 H   0  0  0  0  0  0
    5.6337   -3.8880    1.1084 H   0  0  0  0  0  0
    5.8189   -2.6603   -0.1670 H   0  0  0  0  0  0
    5.7195   -2.1631    1.5392 H   0  0  0  0  0  0
    3.9254    4.0700   -1.3143 H   0  0  0  0  0  0
    4.6062    3.0289   -0.0412 H   0  0  0  0  0  0
    4.7063    2.5301   -1.7469 H   0  0  0  0  0  0
    0.6263   -0.2703   -2.3959 H   0  0  0  0  0  0
    0.2859   -1.3807   -1.0471 H   0  0  0  0  0  0
   -0.9207   -0.1615   -1.5223 H   0  0  0  0  0  0
   -6.9617   -0.9173   -0.6815 H   0  0  0  0  0  0
   -6.2896   -2.4363   -0.9335 H   0  0  0  0  0  0
  1  2  1  0  0  0
  1 24  1  0  0  0
  1 27  1  0  0  0
  2  3  2  0  0  0
  2 26  1  0  0  0
  3  4  1  0  0  0
  4  5  2  0  0  0
  4  8  1  0  0  0
  5  6  1  0  0  0
  5 24  1  0  0  0
  6  7  2  0  0  0
  6 11  1  0  0  0
  7  8  1  0  0  0
  7 10  1  0  0  0
  8  9  1  0  0  0
 10 28  1  0  0  0
 10 29  1  0  0  0
 10 30  1  0  0  0
 11 12  1  0  0  0
 11 31  1  0  0  0
 11 32  1  0  0  0
 12 13  1  0  0  0
 12 23  1  0  0  0
 13 14  1  0  0  0
 13 18  2  0  0  0
 14 15  2  0  0  0
 14 21  1  0  0  0
 15 16  1  0  0  0
 15 33  1  0  0  0
 16 17  2  0  0  0
 16 34  1  0  0  0
 17 18  1  0  0  0
 17 19  1  0  0  0
 18 35  1  0  0  0
 19 20  1  0  0  0
 20 36  1  0  0  0
 20 37  1  0  0  0
 20 38  1  0  0  0
 21 22  1  0  0  0
 22 39  1  0  0  0
 22 40  1  0  0  0
 22 41  1  0  0  0
 23 42  1  0  0  0
 23 43  1  0  0  0
 23 44  1  0  0  0
 24 25  2  0  0  0
 26 45  1  0  0  0
 26 46  1  0  0  0
M  END
>  <ACTIVITY>
4.25181

>  <set_rl>
2

>  <Min_dist>
0.04918

>  <Avg_dist>
0.613189

>  <PC_uM>
56

>  <TG_uM>
10.3

>  <RL_uM>
56

$$$$
44-7
  Cerius2 12110214553D 1   1.00000                          
 
 35 37  0  0  0  0  0  0  0  0999 V2000
   -4.4951    0.1865    0.3248 N   0  0  0  0  0  0
   -4.4094   -0.9930   -0.2773 C   0  0  0  0  0  0
   -3.2480   -1.5392   -0.5994 N   0  0  0  0  0  0
   -2.1072   -0.9140   -0.3266 C   0  0  0  0  0  0
   -2.1481    0.3384    0.3103 C   0  0  0  0  0  0
   -3.4057    0.8802    0.6344 C   0  0  0  0  0  0
   -3.5053    2.1096    1.2614 N   0  0  0  0  0  0
   -0.8698    0.7523    0.4711 N   0  0  0  0  0  0
   -0.0545   -0.1502   -0.0181 C   0  0  0  0  0  0
   -0.7793   -1.2011   -0.5232 N   0  0  0  0  0  0
   -0.4196   -1.9991   -0.9412 H   0  0  0  0  0  0
    1.4197   -0.0515   -0.0247 C   0  0  0  0  0  0
    2.1989   -1.1789    0.2388 C   0  0  0  0  0  0
    3.5788   -1.0797    0.2305 C   0  0  0  0  0  0
    4.1891    0.1384   -0.0386 C   0  0  0  0  0  0
    3.4241    1.2586   -0.3003 C   0  0  0  0  0  0
    2.0412    1.1721   -0.3009 C   0  0  0  0  0  0
    1.2901    2.2746   -0.5584 O   0  0  0  0  0  0
    2.2015    3.3514   -0.7860 C   0  0  0  0  0  0
    4.3394   -2.1774    0.4870 O   0  0  0  0  0  0
    5.7044   -1.7620    0.4070 C   0  0  0  0  0  0
   -5.5760   -1.6762   -0.5785 N   0  0  0  0  0  0
   -4.3775    2.4733    1.4801 H   0  0  0  0  0  0
   -2.7028    2.6078    1.4822 H   0  0  0  0  0  0
    1.7258   -2.1267    0.4489 H   0  0  0  0  0  0
    5.2667    0.2104   -0.0431 H   0  0  0  0  0  0
    3.9050    2.2029   -0.5085 H   0  0  0  0  0  0
    1.6419    4.2624   -0.9979 H   0  0  0  0  0  0
    2.8164    3.5007    0.1015 H   0  0  0  0  0  0
    2.8415    3.1123   -1.6354 H   0  0  0  0  0  0
    6.3554   -2.6131    0.6065 H   0  0  0  0  0  0
    5.9084   -1.3747   -0.5912 H   0  0  0  0  0  0
    5.8904   -0.9814    1.1447 H   0  0  0  0  0  0
   -6.4364   -1.2913   -0.3495 H   0  0  0  0  0  0
   -5.5326   -2.5396   -1.0185 H   0  0  0  0  0  0
  1  2  1  0  0  0
  1  6  2  0  0  0
  2  3  2  0  0  0
  2 22  1  0  0  0
  3  4  1  0  0  0
  4  5  2  0  0  0
  4 10  1  0  0  0
  5  6  1  0  0  0
  5  8  1  0  0  0
  6  7  1  0  0  0
  7 23  1  0  0  0
  7 24  1  0  0  0
  8  9  2  0  0  0
  9 10  1  0  0  0
  9 12  1  0  0  0
 10 11  1  0  0  0
 12 13  1  0  0  0
 12 17  2  0  0  0
 13 14  2  0  0  0
 13 25  1  0  0  0
 14 15  1  0  0  0
 14 20  1  0  0  0
 15 16  2  0  0  0
 15 26  1  0  0  0
 16 17  1  0  0  0
 16 27  1  0  0  0
 17 18  1  0  0  0
 18 19  1  0  0  0
 19 28  1  0  0  0
 19 29  1  0  0  0
 19 30  1  0  0  0
 20 21  1  0  0  0
 21 31  1  0  0  0
 21 32  1  0  0  0
 21 33  1  0  0  0
 22 34  1  0  0  0
 22 35  1  0  0  0
M  END
>  <ACTIVITY>
5.45593

>  <set_rl>
2

>  <Min_dist>
0.112676

>  <Avg_dist>
0.572195

>  <PC_uM>
37.4

>  <TG_uM>
1.7

>  <RL_uM>
3.5

$$$$
44-21
  Cerius2 12110214553D 1   1.00000                          
 
 44 46  0  0  0  0  0  0  0  0999 V2000
   -5.9908    0.9500    0.0649 N   0  0  0  0  0  0
   -6.2765   -0.3460    0.0689 C   0  0  0  0  0  0
   -5.3363   -1.2765    0.0478 N   0  0  0  0  0  0
   -4.0507   -0.9385    0.0214 C   0  0  0  0  0  0
   -3.7006    0.4215    0.0161 C   0  0  0  0  0  0
   -4.7330    1.3756    0.0392 C   0  0  0  0  0  0
   -4.4448    2.7288    0.0348 N   0  0  0  0  0  0
   -2.3467    0.4856   -0.0122 N   0  0  0  0  0  0
   -1.8563   -0.7193   -0.0243 C   0  0  0  0  0  0
   -2.8685   -1.6340   -0.0045 N   0  0  0  0  0  0
   -2.7702   -2.5991   -0.0077 H   0  0  0  0  0  0
   -0.3876   -1.0551   -0.0560 C   0  0  0  0  0  0
    0.3961    0.1826   -0.0704 N   0  0  0  0  0  0
    1.7937    0.1253   -0.1002 C   0  0  0  0  0  0
    2.5360    1.2984   -0.1138 C   0  0  0  0  0  0
    3.9208    1.2425   -0.1432 C   0  0  0  0  0  0
    4.5659    0.0117   -0.1591 C   0  0  0  0  0  0
    3.8222   -1.1621   -0.1455 C   0  0  0  0  0  0
    2.4376   -1.1046   -0.1103 C   0  0  0  0  0  0
    4.4527   -2.3669   -0.1611 O   0  0  0  0  0  0
    3.4324   -3.3673   -0.1412 C   0  0  0  0  0  0
    5.9264   -0.0440   -0.1886 O   0  0  0  0  0  0
    6.3684   -0.0631    1.1702 C   0  0  0  0  0  0
    4.6478    2.3917   -0.1570 O   0  0  0  0  0  0
    3.7128    3.4721   -0.1356 C   0  0  0  0  0  0
   -7.6048   -0.7380    0.0966 N   0  0  0  0  0  0
   -5.1653    3.3782    0.0509 H   0  0  0  0  0  0
   -3.5224    3.0282    0.0156 H   0  0  0  0  0  0
   -0.1291   -1.6386    0.8276 H   0  0  0  0  0  0
   -0.1668   -1.6353   -0.9520 H   0  0  0  0  0  0
   -0.0539    1.0418   -0.0593 H   0  0  0  0  0  0
    2.0345    2.2548   -0.1017 H   0  0  0  0  0  0
    1.8595   -2.0167   -0.0994 H   0  0  0  0  0  0
    3.8922   -4.3555   -0.1528 H   0  0  0  0  0  0
    2.8323   -3.2563    0.7619 H   0  0  0  0  0  0
    2.7946   -3.2531   -1.0177 H   0  0  0  0  0  0
    7.4572   -0.1078    1.1975 H   0  0  0  0  0  0
    6.0291    0.8411    1.6755 H   0  0  0  0  0  0
    5.9562   -0.9374    1.6741 H   0  0  0  0  0  0
    4.2519    4.4194   -0.1457 H   0  0  0  0  0  0
    3.0678    3.4118   -1.0122 H   0  0  0  0  0  0
    3.1055    3.4093    0.7674 H   0  0  0  0  0  0
   -8.3075   -0.0695    0.1127 H   0  0  0  0  0  0
   -7.8323   -1.6810    0.1000 H   0  0  0  0  0  0
  1  2  1  0  0  0
  1  6  2  0  0  0
  2  3  2  0  0  0
  2 26  1  0  0  0
  3  4  1  0  0  0
  4  5  2  0  0  0
  4 10  1  0  0  0
  5  6  1  0  0  0
  5  8  1  0  0  0
  6  7  1  0  0  0
  7 27  1  0  0  0
  7 28  1  0  0  0
  8  9  2  0  0  0
  9 10  1  0  0  0
  9 12  1  0  0  0
 10 11  1  0  0  0
 12 13  1  0  0  0
 12 29  1  0  0  0
 12 30  1  0  0  0
 13 14  1  0  0  0
 13 31  1  0  0  0
 14 15  1  0  0  0
 14 19  2  0  0  0
 15 16  2  0  0  0
 15 32  1  0  0  0
 16 17  1  0  0  0
 16 24  1  0  0  0
 17 18  2  0  0  0
 17 22  1  0  0  0
 18 19  1  0  0  0
 18 20  1  0  0  0
 19 33  1  0  0  0
 20 21  1  0  0  0
 21 34  1  0  0  0
 21 35  1  0  0  0
 21 36  1  0  0  0
 22 23  1  0  0  0
 23 37  1  0  0  0
 23 38  1  0  0  0
 23 39  1  0  0  0
 24 25  1  0  0  0
 25 40  1  0  0  0
 25 41  1  0  0  0
 25 42  1  0  0  0
 26 43  1  0  0  0
 26 44  1  0  0  0
M  END
>  <ACTIVITY>
4.46852

>  <set_rl>
2

>  <Min_dist>
0.142857

>  <Avg_dist>
0.497122

>  <PC_uM>
34

>  <TG_uM>
34

>  <RL_uM>
34

$$$$
44-11
  Cerius2 12110214553D 1   1.00000                          
 
 27 29  0  0  0  0  0  0  0  0999 V2000
   -5.0393    0.3666   -0.2438 N   0  0  0  0  0  0
   -4.9119   -0.8693    0.2228 C   0  0  0  0  0  0
   -3.7325   -1.4031    0.4968 N   0  0  0  0  0  0
   -2.6151   -0.7077    0.3109 C   0  0  0  0  0  0
   -2.7003    0.6062   -0.1818 C   0  0  0  0  0  0
   -3.9760    1.1323   -0.4592 C   0  0  0  0  0  0
   -4.1189    2.4193   -0.9462 N   0  0  0  0  0  0
   -1.4386    1.0846   -0.2774 N   0  0  0  0  0  0
   -0.5927    0.1655    0.1183 C   0  0  0  0  0  0
   -1.2790   -0.9630    0.4923 N   0  0  0  0  0  0
   -0.8914   -1.7880    0.8239 H   0  0  0  0  0  0
    0.8775    0.3201    0.1558 C   0  0  0  0  0  0
    1.4447    1.5247    0.5747 C   0  0  0  0  0  0
    2.8165    1.6638    0.6078 C   0  0  0  0  0  0
    3.6315    0.6114    0.2261 C   0  0  0  0  0  0
    3.0747   -0.5870   -0.1911 C   0  0  0  0  0  0
    1.7029   -0.7396   -0.2219 C   0  0  0  0  0  0
    4.1039   -1.9009   -0.6690 Cl  0  0  0  0  0  0
    5.3573    0.7942    0.2699 Cl  0  0  0  0  0  0
   -6.0528   -1.6264    0.4304 N   0  0  0  0  0  0
   -5.0031    2.7714   -1.1338 H   0  0  0  0  0  0
   -3.3350    2.9695   -1.1000 H   0  0  0  0  0  0
    0.8104    2.3467    0.8720 H   0  0  0  0  0  0
    3.2559    2.5956    0.9318 H   0  0  0  0  0  0
    1.2695   -1.6738   -0.5472 H   0  0  0  0  0  0
   -6.9259   -1.2514    0.2354 H   0  0  0  0  0  0
   -5.9789   -2.5316    0.7709 H   0  0  0  0  0  0
  1  2  1  0  0  0
  1  6  2  0  0  0
  2  3  2  0  0  0
  2 20  1  0  0  0
  3  4  1  0  0  0
  4  5  2  0  0  0
  4 10  1  0  0  0
  5  6  1  0  0  0
  5  8  1  0  0  0
  6  7  1  0  0  0
  7 21  1  0  0  0
  7 22  1  0  0  0
  8  9  2  0  0  0
  9 10  1  0  0  0
  9 12  1  0  0  0
 10 11  1  0  0  0
 12 13  1  0  0  0
 12 17  2  0  0  0
 13 14  2  0  0  0
 13 23  1  0  0  0
 14 15  1  0  0  0
 14 24  1  0  0  0
 15 16  2  0  0  0
 15 19  1  0  0  0
 16 17  1  0  0  0
 16 18  1  0  0  0
 17 25  1  0  0  0
 20 26  1  0  0  0
 20 27  1  0  0  0
M  END
>  <ACTIVITY>
3.5986

>  <set_rl>
2

>  <Min_dist>
0.160714

>  <Avg_dist>
0.611506

>  <PC_uM>
19.5

>  <TG_uM>
6.7

>  <RL_uM>
252

$$$$
44-14
  Cerius2 12110214553D 1   1.00000                          
 
 37 39  0  0  0  0  0  0  0  0999 V2000
   -4.8753   -0.2803   -0.0836 N   0  0  0  0  0  0
   -4.8206    1.0403    0.0359 C   0  0  0  0  0  0
   -3.6737    1.6968    0.1030 N   0  0  0  0  0  0
   -2.5166    1.0447    0.0521 C   0  0  0  0  0  0
   -2.5246   -0.3552   -0.0743 C   0  0  0  0  0  0
   -3.7679   -1.0109   -0.1419 C   0  0  0  0  0  0
   -3.8351   -2.3873   -0.2661 N   0  0  0  0  0  0
   -1.2355   -0.7660   -0.1032 N   0  0  0  0  0  0
   -0.4442    0.2742   -0.0044 C   0  0  0  0  0  0
   -1.1964    1.4184    0.0941 N   0  0  0  0  0  0
   -0.8577    2.3234    0.1782 H   0  0  0  0  0  0
    1.0330    0.2231    0.0003 C   0  0  0  0  0  0
    1.7741    1.4056   -0.0493 C   0  0  0  0  0  0
    3.1551    1.3527   -0.0442 C   0  0  0  0  0  0
    3.8049    0.1212    0.0102 C   0  0  0  0  0  0
    3.0686   -1.0531    0.0594 C   0  0  0  0  0  0
    1.6899   -1.0067    0.0600 C   0  0  0  0  0  0
    0.9072   -2.2621    0.1130 N   0  3  0  0  0  0
    1.2854   -3.2421   -0.5034 O   0  0  0  0  0  0
   -0.1151   -2.3150    0.7732 O   0  5  0  0  0  0
    5.1632    0.0706    0.0147 O   0  0  0  0  0  0
    5.5249   -1.3105    0.0751 C   0  0  0  0  0  0
    3.8799    2.5025   -0.0928 O   0  0  0  0  0  0
    2.9425    3.5799   -0.1416 C   0  0  0  0  0  0
   -6.0050    1.7562    0.0920 N   0  0  0  0  0  0
   -4.6977   -2.8286   -0.3118 H   0  0  0  0  0  0
   -3.0196   -2.9110   -0.3075 H   0  0  0  0  0  0
    1.2692    2.3594   -0.0918 H   0  0  0  0  0  0
    3.5757   -2.0057    0.1015 H   0  0  0  0  0  0
    6.6110   -1.4017    0.0809 H   0  0  0  0  0  0
    5.1183   -1.7531    0.9845 H   0  0  0  0  0  0
    5.1212   -1.8302   -0.7938 H   0  0  0  0  0  0
    3.4797    4.5274   -0.1818 H   0  0  0  0  0  0
    2.3181    3.4783   -1.0292 H   0  0  0  0  0  0
    2.3145    3.5557    0.7490 H   0  0  0  0  0  0
   -6.8552    1.2916    0.0439 H   0  0  0  0  0  0
   -5.9843    2.7220    0.1792 H   0  0  0  0  0  0
  1  2  1  0  0  0
  1  6  2  0  0  0
  2  3  2  0  0  0
  2 25  1  0  0  0
  3  4  1  0  0  0
  4  5  2  0  0  0
  4 10  1  0  0  0
  5  6  1  0  0  0
  5  8  1  0  0  0
  6  7  1  0  0  0
  7 26  1  0  0  0
  7 27  1  0  0  0
  8  9  2  0  0  0
  9 10  1  0  0  0
  9 12  1  0  0  0
 10 11  1  0  0  0
 12 13  1  0  0  0
 12 17  2  0  0  0
 13 14  2  0  0  0
 13 28  1  0  0  0
 14 15  1  0  0  0
 14 23  1  0  0  0
 15 16  2  0  0  0
 15 21  1  0  0  0
 16 17  1  0  0  0
 16 29  1  0  0  0
 17 18  1  0  0  0
 18 19  2  0  0  0
 18 20  1  0  0  0
 21 22  1  0  0  0
 22 30  1  0  0  0
 22 31  1  0  0  0
 22 32  1  0  0  0
 23 24  1  0  0  0
 24 33  1  0  0  0
 24 34  1  0  0  0
 24 35  1  0  0  0
 25 36  1  0  0  0
 25 37  1  0  0  0
M  CHG  2  18   1  20  -1
M  END
>  <ACTIVITY>
4.60206

>  <set_rl>
2

>  <Min_dist>
0.255814

>  <Avg_dist>
0.616901

>  <PC_uM>
25

>  <TG_uM>
16.8

>  <RL_uM>
25

$$$$
44-16
  Cerius2 12110214563D 1   1.00000                          
 
 26 28  0  0  0  0  0  0  0  0999 V2000
   -3.5857    0.5738   -0.0833 N   0  0  0  0  0  0
   -3.5647   -0.7396    0.1064 C   0  0  0  0  0  0
   -2.4352   -1.4218    0.2051 N   0  0  0  0  0  0
   -1.2615   -0.8045    0.1157 C   0  0  0  0  0  0
   -1.2333    0.5872   -0.0858 C   0  0  0  0  0  0
   -2.4603    1.2712   -0.1843 C   0  0  0  0  0  0
   -2.4924    2.6395   -0.3823 N   0  0  0  0  0  0
    0.0643    0.9612   -0.1395 N   0  0  0  0  0  0
    0.8284   -0.0918    0.0131 C   0  0  0  0  0  0
    0.0475   -1.2093    0.1747 N   0  0  0  0  0  0
    0.3632   -2.1170    0.3059 H   0  0  0  0  0  0
    2.3077   -0.0787    0.0112 C   0  0  0  0  0  0
    3.0186    0.9484    0.6420 C   0  0  0  0  0  0
    4.3978    0.9209    0.6162 C   0  0  0  0  0  0
    5.0447   -0.0551    0.0085 N   0  0  0  0  0  0
    4.4136   -1.0421   -0.5980 C   0  0  0  0  0  0
    3.0350   -1.0963   -0.6164 C   0  0  0  0  0  0
   -4.7667   -1.4196    0.2049 N   0  0  0  0  0  0
   -3.3435    3.1001   -0.4487 H   0  0  0  0  0  0
   -1.6639    3.1386   -0.4549 H   0  0  0  0  0  0
    2.4956    1.7508    1.1412 H   0  0  0  0  0  0
    4.9555    1.7092    1.0999 H   0  0  0  0  0  0
    4.9838   -1.8203   -1.0834 H   0  0  0  0  0  0
    2.5249   -1.9074   -1.1148 H   0  0  0  0  0  0
   -5.6047   -0.9360    0.1353 H   0  0  0  0  0  0
   -4.7709   -2.3797    0.3436 H   0  0  0  0  0  0
  1  2  1  0  0  0
  1  6  2  0  0  0
  2  3  2  0  0  0
  2 18  1  0  0  0
  3  4  1  0  0  0
  4  5  2  0  0  0
  4 10  1  0  0  0
  5  6  1  0  0  0
  5  8  1  0  0  0
  6  7  1  0  0  0
  7 19  1  0  0  0
  7 20  1  0  0  0
  8  9  2  0  0  0
  9 10  1  0  0  0
  9 12  1  0  0  0
 10 11  1  0  0  0
 12 13  1  0  0  0
 12 17  2  0  0  0
 13 14  2  0  0  0
 13 21  1  0  0  0
 14 15  1  0  0  0
 14 22  1  0  0  0
 15 16  2  0  0  0
 16 17  1  0  0  0
 16 23  1  0  0  0
 17 24  1  0  0  0
 18 25  1  0  0  0
 18 26  1  0  0  0
M  END
>  <ACTIVITY>
4.74473

>  <set_rl>
2

>  <Min_dist>
0.176471

>  <Avg_dist>
0.583559

>  <PC_uM>
18

>  <TG_uM>
20

>  <RL_uM>
18

$$$$
44-18
  Cerius2 12110214563D 1   1.00000                          
 
 37 40  0  0  0  0  0  0  0  0999 V2000
   -4.8345    0.4770    0.2919 N   0  0  0  0  0  0
   -4.8948   -0.6915   -0.3343 C   0  0  0  0  0  0
   -3.8108   -1.3853   -0.6416 N   0  0  0  0  0  0
   -2.6029   -0.9276   -0.3286 C   0  0  0  0  0  0
   -2.4890    0.3065    0.3350 C   0  0  0  0  0  0
   -3.6692    1.0091    0.6420 C   0  0  0  0  0  0
   -3.6164    2.2286    1.2939 N   0  0  0  0  0  0
   -1.1712    0.5391    0.5344 N   0  0  0  0  0  0
   -0.4730   -0.4577    0.0436 C   0  0  0  0  0  0
   -1.3218   -1.3903   -0.5016 N   0  0  0  0  0  0
   -1.0639   -2.2217   -0.9295 H   0  0  0  0  0  0
    0.9975   -0.5610    0.0729 C   0  0  0  0  0  0
    1.6150   -1.7789    0.3267 C   0  0  0  0  0  0
    2.9973   -1.8790    0.3544 C   0  0  0  0  0  0
    3.8049   -0.7852    0.1338 C   0  0  0  0  0  0
    3.2383    0.4789   -0.1293 C   0  0  0  0  0  0
    1.8298    0.6147   -0.1706 C   0  0  0  0  0  0
    1.2636    1.8687   -0.4326 C   0  0  0  0  0  0
    2.0749    2.9432   -0.6446 C   0  0  0  0  0  0
    3.4608    2.8118   -0.6048 C   0  0  0  0  0  0
    4.0439    1.6062   -0.3572 C   0  0  0  0  0  0
    5.1542   -0.9250    0.1704 O   0  0  0  0  0  0
    5.4195   -2.3000    0.4551 C   0  0  0  0  0  0
   -6.1355   -1.2027   -0.6776 N   0  0  0  0  0  0
   -4.4363    2.7040    1.5004 H   0  0  0  0  0  0
   -2.7595    2.6080    1.5443 H   0  0  0  0  0  0
    1.0119   -2.6570    0.5048 H   0  0  0  0  0  0
    3.4522   -2.8379    0.5541 H   0  0  0  0  0  0
    0.1902    1.9835   -0.4668 H   0  0  0  0  0  0
    1.6370    3.9096   -0.8465 H   0  0  0  0  0  0
    4.0825    3.6782   -0.7764 H   0  0  0  0  0  0
    5.1200    1.5190   -0.3293 H   0  0  0  0  0  0
    6.4967   -2.4616    0.4946 H   0  0  0  0  0  0
    4.9770   -2.5641    1.4156 H   0  0  0  0  0  0
    4.9871   -2.9231   -0.3278 H   0  0  0  0  0  0
   -6.9410   -0.7081   -0.4600 H   0  0  0  0  0  0
   -6.1988   -2.0554   -1.1356 H   0  0  0  0  0  0
  1  2  1  0  0  0
  1  6  2  0  0  0
  2  3  2  0  0  0
  2 24  1  0  0  0
  3  4  1  0  0  0
  4  5  2  0  0  0
  4 10  1  0  0  0
  5  6  1  0  0  0
  5  8  1  0  0  0
  6  7  1  0  0  0
  7 25  1  0  0  0
  7 26  1  0  0  0
  8  9  2  0  0  0
  9 10  1  0  0  0
  9 12  1  0  0  0
 10 11  1  0  0  0
 12 13  1  0  0  0
 12 17  2  0  0  0
 13 14  2  0  0  0
 13 27  1  0  0  0
 14 15  1  0  0  0
 14 28  1  0  0  0
 15 16  2  0  0  0
 15 22  1  0  0  0
 16 17  1  0  0  0
 16 21  1  0  0  0
 17 18  1  0  0  0
 18 19  2  0  0  0
 18 29  1  0  0  0
 19 20  1  0  0  0
 19 30  1  0  0  0
 20 21  2  0  0  0
 20 31  1  0  0  0
 21 32  1  0  0  0
 22 23  1  0  0  0
 23 33  1  0  0  0
 23 34  1  0  0  0
 23 35  1  0  0  0
 24 36  1  0  0  0
 24 37  1  0  0  0
M  END
>  <ACTIVITY>
4.88606

>  <set_rl>
2

>  <Min_dist>
0.166667

>  <Avg_dist>
0.556034

>  <PC_uM>
13

>  <TG_uM>
13

>  <RL_uM>
13

$$$$
44-19
  Cerius2 12110214563D 1   1.00000                          
 
 38 42  0  0  0  0  0  0  0  0999 V2000
    0.7098    0.5177   -0.2220 N   0  0  0  0  0  0
    0.2521   -0.1597    0.7899 C   0  0  0  0  0  0
    1.2782   -0.7923    1.4293 N   0  0  0  0  0  0
    1.2035   -1.3601    2.2121 H   0  0  0  0  0  0
    2.4347   -0.4782    0.7615 C   0  0  0  0  0  0
    3.7180   -0.7897    0.9126 N   0  0  0  0  0  0
    4.6288   -0.3145    0.0787 C   0  0  0  0  0  0
    4.3145    0.4838   -0.9335 N   0  0  0  0  0  0
    3.0561    0.8454   -1.1576 C   0  0  0  0  0  0
    2.0548    0.3638   -0.2968 C   0  0  0  0  0  0
    2.7380    1.6786   -2.2154 N   0  0  0  0  0  0
    5.9561   -0.6619    0.2692 N   0  0  0  0  0  0
   -1.1971   -0.2342    1.1963 C   0  0  0  0  0  0
   -1.9085    1.0425    0.8204 C   0  0  0  0  0  0
   -1.7164    2.3549    1.1973 C   0  0  0  0  0  0
   -2.5335    3.3484    0.6881 C   0  0  0  0  0  0
   -3.5444    3.0277   -0.2003 C   0  0  0  0  0  0
   -3.7435    1.7177   -0.5830 C   0  0  0  0  0  0
   -2.9230    0.7098   -0.0728 C   0  0  0  0  0  0
   -2.9127   -0.7552   -0.3090 C   0  0  0  0  0  0
   -3.7209   -1.5630   -1.1112 C   0  0  0  0  0  0
   -3.5035   -2.9241   -1.1586 C   0  0  0  0  0  0
   -2.4868   -3.4939   -0.4133 C   0  0  0  0  0  0
   -1.6823   -2.6997    0.3843 C   0  0  0  0  0  0
   -1.8931   -1.3380    0.4384 C   0  0  0  0  0  0
    3.4373    2.0052   -2.8029 H   0  0  0  0  0  0
    1.8156    1.9361   -2.3695 H   0  0  0  0  0  0
    6.6374   -0.3229   -0.3323 H   0  0  0  0  0  0
    6.2044   -1.2443    1.0042 H   0  0  0  0  0  0
   -1.2771   -0.4063    2.2697 H   0  0  0  0  0  0
   -0.9278    2.6074    1.8907 H   0  0  0  0  0  0
   -2.3823    4.3758    0.9848 H   0  0  0  0  0  0
   -4.1804    3.8061   -0.5953 H   0  0  0  0  0  0
   -4.5340    1.4716   -1.2765 H   0  0  0  0  0  0
   -4.5162   -1.1222   -1.6941 H   0  0  0  0  0  0
   -4.1296   -3.5475   -1.7797 H   0  0  0  0  0  0
   -2.3211   -4.5604   -0.4538 H   0  0  0  0  0  0
   -0.8894   -3.1466    0.9656 H   0  0  0  0  0  0
  1  2  2  0  0  0
  1 10  1  0  0  0
  2  3  1  0  0  0
  2 13  1  0  0  0
  3  4  1  0  0  0
  3  5  1  0  0  0
  5  6  2  0  0  0
  5 10  1  0  0  0
  6  7  1  0  0  0
  7  8  2  0  0  0
  7 12  1  0  0  0
  8  9  1  0  0  0
  9 10  2  0  0  0
  9 11  1  0  0  0
 11 26  1  0  0  0
 11 27  1  0  0  0
 12 28  1  0  0  0
 12 29  1  0  0  0
 13 14  1  0  0  0
 13 25  1  0  0  0
 13 30  1  0  0  0
 14 15  1  0  0  0
 14 19  2  0  0  0
 15 16  2  0  0  0
 15 31  1  0  0  0
 16 17  1  0  0  0
 16 32  1  0  0  0
 17 18  2  0  0  0
 17 33  1  0  0  0
 18 19  1  0  0  0
 18 34  1  0  0  0
 19 20  1  0  0  0
 20 21  1  0  0  0
 20 25  2  0  0  0
 21 22  2  0  0  0
 21 35  1  0  0  0
 22 23  1  0  0  0
 22 36  1  0  0  0
 23 24  2  0  0  0
 23 37  1  0  0  0
 24 25  1  0  0  0
 24 38  1  0  0  0
M  END
>  <ACTIVITY>
4.52578

>  <set_rl>
2

>  <Min_dist>
0.305085

>  <Avg_dist>
0.65507

>  <PC_uM>
35

>  <TG_uM>
30.5

>  <RL_uM>
29.8

$$$$
44-20
  Cerius2 12110214563D 1   1.00000                          
 
 30 32  0  0  0  0  0  0  0  0999 V2000
   -3.5019    0.9602   -0.3672 N   0  0  0  0  0  0
   -3.7646   -0.3321   -0.5161 C   0  0  0  0  0  0
   -2.8709   -1.2699   -0.2474 N   0  0  0  0  0  0
   -1.6581   -0.9434    0.1887 C   0  0  0  0  0  0
   -1.3350    0.4123    0.3615 C   0  0  0  0  0  0
   -2.3159    1.3745    0.0636 C   0  0  0  0  0  0
   -2.0510    2.7240    0.2153 N   0  0  0  0  0  0
   -0.0561    0.4645    0.8084 N   0  0  0  0  0  0
    0.4140   -0.7435    0.9179 C   0  0  0  0  0  0
   -0.5372   -1.6486    0.5469 N   0  0  0  0  0  0
   -0.4389   -2.6136    0.5383 H   0  0  0  0  0  0
    1.8039   -1.0917    1.3850 C   0  0  0  0  0  0
    2.8161   -0.4651    0.4609 C   0  0  0  0  0  0
    3.2966    0.8046    0.7211 C   0  0  0  0  0  0
    4.2250    1.3794   -0.1265 C   0  0  0  0  0  0
    4.6733    0.6843   -1.2341 C   0  0  0  0  0  0
    4.1935   -0.5858   -1.4938 C   0  0  0  0  0  0
    3.2683   -1.1623   -0.6437 C   0  0  0  0  0  0
   -5.0176   -0.7122   -0.9681 N   0  0  0  0  0  0
   -2.7354    3.3790    0.0067 H   0  0  0  0  0  0
   -1.1810    3.0151    0.5304 H   0  0  0  0  0  0
    1.9525   -0.7140    2.3965 H   0  0  0  0  0  0
    1.9283   -2.1746    1.3796 H   0  0  0  0  0  0
    2.9464    1.3477    1.5865 H   0  0  0  0  0  0
    4.5999    2.3718    0.0764 H   0  0  0  0  0  0
    5.3982    1.1337   -1.8967 H   0  0  0  0  0  0
    4.5434   -1.1288   -2.3593 H   0  0  0  0  0  0
    2.8934   -2.1546   -0.8466 H   0  0  0  0  0  0
   -5.6854   -0.0382   -1.1698 H   0  0  0  0  0  0
   -5.2272   -1.6523   -1.0829 H   0  0  0  0  0  0
  1  2  1  0  0  0
  1  6  2  0  0  0
  2  3  2  0  0  0
  2 19  1  0  0  0
  3  4  1  0  0  0
  4  5  2  0  0  0
  4 10  1  0  0  0
  5  6  1  0  0  0
  5  8  1  0  0  0
  6  7  1  0  0  0
  7 20  1  0  0  0
  7 21  1  0  0  0
  8  9  2  0  0  0
  9 10  1  0  0  0
  9 12  1  0  0  0
 10 11  1  0  0  0
 12 13  1  0  0  0
 12 22  1  0  0  0
 12 23  1  0  0  0
 13 14  1  0  0  0
 13 18  2  0  0  0
 14 15  2  0  0  0
 14 24  1  0  0  0
 15 16  1  0  0  0
 15 25  1  0  0  0
 16 17  2  0  0  0
 16 26  1  0  0  0
 17 18  1  0  0  0
 17 27  1  0  0  0
 18 28  1  0  0  0
 19 29  1  0  0  0
 19 30  1  0  0  0
M  END
>  <ACTIVITY>
5.79588

>  <set_rl>
2

>  <Min_dist>
0.2

>  <Avg_dist>
0.59865

>  <PC_uM>
9.8

>  <TG_uM>
0.5

>  <RL_uM>
1.6

$$$$
44-23
  Cerius2 12110214563D 1   1.00000                          
 
 37 40  0  0  0  0  0  0  0  0999 V2000
   -5.9640    0.5461    0.2804 N   0  0  0  0  0  0
   -5.9397   -0.7728    0.1353 C   0  0  0  0  0  0
   -4.8244   -1.4338   -0.1279 N   0  0  0  0  0  0
   -3.6697   -0.7876   -0.2580 C   0  0  0  0  0  0
   -3.6470    0.6090   -0.1126 C   0  0  0  0  0  0
   -4.8561    1.2698    0.1666 C   0  0  0  0  0  0
   -4.8913    2.6445    0.3192 N   0  0  0  0  0  0
   -2.3639    1.0086   -0.2913 N   0  0  0  0  0  0
   -1.6166   -0.0289   -0.5312 C   0  0  0  0  0  0
   -2.3765   -1.1622   -0.5212 N   0  0  0  0  0  0
   -2.0602   -2.0666   -0.6722 H   0  0  0  0  0  0
   -0.1315    0.0144   -0.7833 C   0  0  0  0  0  0
    0.7541   -0.1477    0.7915 S   0  0  0  0  0  0
    2.4178   -0.0672    0.2167 C   0  0  0  0  0  0
    2.6718    0.0847   -1.1526 C   0  0  0  0  0  0
    3.9446    0.1492   -1.6235 C   0  0  0  0  0  0
    5.0279    0.0635   -0.7309 C   0  0  0  0  0  0
    4.7806   -0.0898    0.6565 C   0  0  0  0  0  0
    3.4562   -0.1487    1.1193 C   0  0  0  0  0  0
    5.8667   -0.1755    1.5452 C   0  0  0  0  0  0
    7.1378   -0.1104    1.0635 C   0  0  0  0  0  0
    7.3809    0.0404   -0.3005 C   0  0  0  0  0  0
    6.3544    0.1268   -1.1902 C   0  0  0  0  0  0
   -7.1228   -1.4817    0.2641 N   0  0  0  0  0  0
   -5.7312    3.0898    0.5117 H   0  0  0  0  0  0
   -4.0759    3.1630    0.2336 H   0  0  0  0  0  0
    0.1490   -0.8059   -1.4440 H   0  0  0  0  0  0
    0.1300    0.9635   -1.2512 H   0  0  0  0  0  0
    1.8443    0.1511   -1.8436 H   0  0  0  0  0  0
    4.1243    0.2658   -2.6821 H   0  0  0  0  0  0
    3.2528   -0.2653    2.1735 H   0  0  0  0  0  0
    5.6932   -0.2921    2.6048 H   0  0  0  0  0  0
    7.9704   -0.1761    1.7483 H   0  0  0  0  0  0
    8.3992    0.0898   -0.6570 H   0  0  0  0  0  0
    6.5585    0.2432   -2.2443 H   0  0  0  0  0  0
   -7.9501   -1.0136    0.4572 H   0  0  0  0  0  0
   -7.1239   -2.4462    0.1612 H   0  0  0  0  0  0
  1  2  1  0  0  0
  1  6  2  0  0  0
  2  3  2  0  0  0
  2 24  1  0  0  0
  3  4  1  0  0  0
  4  5  2  0  0  0
  4 10  1  0  0  0
  5  6  1  0  0  0
  5  8  1  0  0  0
  6  7  1  0  0  0
  7 25  1  0  0  0
  7 26  1  0  0  0
  8  9  2  0  0  0
  9 10  1  0  0  0
  9 12  1  0  0  0
 10 11  1  0  0  0
 12 13  1  0  0  0
 12 27  1  0  0  0
 12 28  1  0  0  0
 13 14  1  0  0  0
 14 15  1  0  0  0
 14 19  2  0  0  0
 15 16  2  0  0  0
 15 29  1  0  0  0
 16 17  1  0  0  0
 16 30  1  0  0  0
 17 18  2  0  0  0
 17 23  1  0  0  0
 18 19  1  0  0  0
 18 20  1  0  0  0
 19 31  1  0  0  0
 20 21  2  0  0  0
 20 32  1  0  0  0
 21 22  1  0  0  0
 21 33  1  0  0  0
 22 23  2  0  0  0
 22 34  1  0  0  0
 23 35  1  0  0  0
 24 36  1  0  0  0
 24 37  1  0  0  0
M  END
>  <ACTIVITY>
3.97062

>  <set_rl>
2

>  <Min_dist>
0.214286

>  <Avg_dist>
0.574498

>  <PC_uM>
105

>  <TG_uM>
1.02

>  <RL_uM>
107

$$$$
7-1
  Cerius2 12110214563D 1   1.00000                          
 
 39 42  0  0  0  0  0  0  0  0999 V2000
   -4.7094    0.0686   -0.4602 N   0  0  0  0  0  0
   -4.5884   -1.2240   -0.1853 C   0  0  0  0  0  0
   -3.4350   -1.7710    0.1605 N   0  0  0  0  0  0
   -2.3309   -1.0347    0.2482 C   0  0  0  0  0  0
   -2.4153    0.3414   -0.0355 C   0  0  0  0  0  0
   -3.6590    0.8802   -0.3987 C   0  0  0  0  0  0
   -3.7886    2.2265   -0.6873 N   0  0  0  0  0  0
   -1.0666    0.8538    0.1475 C   0  0  0  0  0  0
   -0.2984   -0.1927    0.5074 C   0  0  0  0  0  0
   -1.0511   -1.3021    0.5670 O   0  0  0  0  0  0
    1.1811   -0.0580    0.7798 C   0  0  0  0  0  0
    1.6673    1.1809    0.1559 N   0  0  0  0  0  0
    0.8516    2.2926    0.6590 C   0  0  0  0  0  0
   -0.5343    2.2547   -0.0035 C   0  0  0  0  0  0
    3.0314    1.3982    0.6560 C   0  0  0  0  0  0
    3.9343    0.3059    0.1434 C   0  0  0  0  0  0
    4.5978    0.4650   -1.0589 C   0  0  0  0  0  0
    5.4259   -0.5369   -1.5291 C   0  0  0  0  0  0
    5.5909   -1.6978   -0.7969 C   0  0  0  0  0  0
    4.9281   -1.8565    0.4057 C   0  0  0  0  0  0
    4.1034   -0.8527    0.8781 C   0  0  0  0  0  0
   -5.7117   -2.0299   -0.2629 N   0  0  0  0  0  0
   -4.6533    2.5879   -0.9373 H   0  0  0  0  0  0
   -3.0147    2.8094   -0.6398 H   0  0  0  0  0  0
    1.3522   -0.0169    1.8555 H   0  0  0  0  0  0
    1.7097   -0.9120    0.3563 H   0  0  0  0  0  0
    0.7401    2.2012    1.7394 H   0  0  0  0  0  0
    1.3409    3.2377    0.4234 H   0  0  0  0  0  0
   -0.4467    2.5060   -1.0606 H   0  0  0  0  0  0
   -1.2013    2.9601    0.4919 H   0  0  0  0  0  0
    3.3963    2.3645    0.3080 H   0  0  0  0  0  0
    3.0255    1.3831    1.7459 H   0  0  0  0  0  0
    4.4689    1.3720   -1.6309 H   0  0  0  0  0  0
    5.9438   -0.4129   -2.4687 H   0  0  0  0  0  0
    6.2374   -2.4809   -1.1647 H   0  0  0  0  0  0
    5.0568   -2.7636    0.9776 H   0  0  0  0  0  0
    3.5855   -0.9767    1.8177 H   0  0  0  0  0  0
   -6.5668   -1.6472   -0.5145 H   0  0  0  0  0  0
   -5.6435   -2.9772   -0.0656 H   0  0  0  0  0  0
  1  2  1  0  0  0
  1  6  2  0  0  0
  2  3  2  0  0  0
  2 22  1  0  0  0
  3  4  1  0  0  0
  4  5  2  0  0  0
  4 10  1  0  0  0
  5  6  1  0  0  0
  5  8  1  0  0  0
  6  7  1  0  0  0
  7 23  1  0  0  0
  7 24  1  0  0  0
  8  9  2  0  0  0
  8 14  1  0  0  0
  9 10  1  0  0  0
  9 11  1  0  0  0
 11 12  1  0  0  0
 11 25  1  0  0  0
 11 26  1  0  0  0
 12 13  1  0  0  0
 12 15  1  0  0  0
 13 14  1  0  0  0
 13 27  1  0  0  0
 13 28  1  0  0  0
 14 29  1  0  0  0
 14 30  1  0  0  0
 15 16  1  0  0  0
 15 31  1  0  0  0
 15 32  1  0  0  0
 16 17  1  0  0  0
 16 21  2  0  0  0
 17 18  2  0  0  0
 17 33  1  0  0  0
 18 19  1  0  0  0
 18 34  1  0  0  0
 19 20  2  0  0  0
 19 35  1  0  0  0
 20 21  1  0  0  0
 20 36  1  0  0  0
 21 37  1  0  0  0
 22 38  1  0  0  0
 22 39  1  0  0  0
M  END
>  <ACTIVITY>
4.82391

>  <set_rl>
2

>  <Min_dist>
0.130435

>  <Avg_dist>
0.648501

>  <PC_uM>
>9

>  <TG_uM>
1.4

>  <RL_uM>
15

$$$$
7-3
  Cerius2 12110214563D 1   1.00000                          
 
 47 50  0  0  0  0  0  0  0  0999 V2000
   -5.7037   -0.2420   -0.7034 N   0  0  0  0  0  0
   -5.4312   -1.5322   -0.5553 C   0  0  0  0  0  0
   -4.2415   -1.9672   -0.1749 N   0  0  0  0  0  0
   -3.2534   -1.1139    0.0788 C   0  0  0  0  0  0
   -3.5002    0.2642   -0.0664 C   0  0  0  0  0  0
   -4.7768    0.6818   -0.4722 C   0  0  0  0  0  0
   -5.0640    2.0255   -0.6291 N   0  0  0  0  0  0
   -2.2469    0.9164    0.2786 C   0  0  0  0  0  0
   -1.3728   -0.0605    0.5895 C   0  0  0  0  0  0
   -1.9739   -1.2545    0.4718 O   0  0  0  0  0  0
    0.0539    0.2255    0.9946 C   0  0  0  0  0  0
    0.4126    1.5781    0.5447 N   0  0  0  0  0  0
   -0.5756    2.5152    1.0921 C   0  0  0  0  0  0
   -1.8961    2.3806    0.3180 C   0  0  0  0  0  0
    1.6987    1.9052    1.1746 C   0  0  0  0  0  0
    2.7712    0.9992    0.6269 C   0  0  0  0  0  0
    3.4866    1.3761   -0.4936 C   0  0  0  0  0  0
    4.4744    0.5432   -1.0001 C   0  0  0  0  0  0
    4.7433   -0.6675   -0.3808 C   0  0  0  0  0  0
    4.0245   -1.0432    0.7435 C   0  0  0  0  0  0
    3.0413   -0.2046    1.2493 C   0  0  0  0  0  0
    4.2855   -2.2297    1.3526 O   0  0  0  0  0  0
    5.3362   -2.8524    0.6106 C   0  0  0  0  0  0
    5.1771    0.9141   -2.1026 O   0  0  0  0  0  0
    6.1064   -0.1372   -2.3730 C   0  0  0  0  0  0
   -6.4298   -2.4576   -0.8078 N   0  0  0  0  0  0
   -5.9501    2.3025   -0.9101 H   0  0  0  0  0  0
   -4.3793    2.6910   -0.4580 H   0  0  0  0  0  0
    0.1447    0.1652    2.0791 H   0  0  0  0  0  0
    0.7185   -0.5024    0.5294 H   0  0  0  0  0  0
   -0.7469    2.2886    2.1444 H   0  0  0  0  0  0
   -0.2011    3.5344    0.9967 H   0  0  0  0  0  0
   -1.7712    2.7592   -0.6965 H   0  0  0  0  0  0
   -2.6829    2.9367    0.8278 H   0  0  0  0  0  0
    1.9550    2.9427    0.9598 H   0  0  0  0  0  0
    1.6211    1.7659    2.2528 H   0  0  0  0  0  0
    3.2767    2.3194   -0.9757 H   0  0  0  0  0  0
    5.5114   -1.3172   -0.7737 H   0  0  0  0  0  0
    2.4809   -0.4968    2.1251 H   0  0  0  0  0  0
    5.5814   -3.8128    1.0642 H   0  0  0  0  0  0
    5.0112   -3.0088   -0.4180 H   0  0  0  0  0  0
    6.2172   -2.2107    0.6198 H   0  0  0  0  0  0
    6.6960    0.1166   -3.2539 H   0  0  0  0  0  0
    6.7689   -0.2656   -1.5170 H   0  0  0  0  0  0
    5.5632   -1.0647   -2.5542 H   0  0  0  0  0  0
   -7.3090   -2.1583   -1.0875 H   0  0  0  0  0  0
   -6.2501   -3.4053   -0.7051 H   0  0  0  0  0  0
  1  2  1  0  0  0
  1  6  2  0  0  0
  2  3  2  0  0  0
  2 26  1  0  0  0
  3  4  1  0  0  0
  4  5  2  0  0  0
  4 10  1  0  0  0
  5  6  1  0  0  0
  5  8  1  0  0  0
  6  7  1  0  0  0
  7 27  1  0  0  0
  7 28  1  0  0  0
  8  9  2  0  0  0
  8 14  1  0  0  0
  9 10  1  0  0  0
  9 11  1  0  0  0
 11 12  1  0  0  0
 11 29  1  0  0  0
 11 30  1  0  0  0
 12 13  1  0  0  0
 12 15  1  0  0  0
 13 14  1  0  0  0
 13 31  1  0  0  0
 13 32  1  0  0  0
 14 33  1  0  0  0
 14 34  1  0  0  0
 15 16  1  0  0  0
 15 35  1  0  0  0
 15 36  1  0  0  0
 16 17  1  0  0  0
 16 21  2  0  0  0
 17 18  2  0  0  0
 17 37  1  0  0  0
 18 19  1  0  0  0
 18 24  1  0  0  0
 19 20  2  0  0  0
 19 38  1  0  0  0
 20 21  1  0  0  0
 20 22  1  0  0  0
 21 39  1  0  0  0
 22 23  1  0  0  0
 23 40  1  0  0  0
 23 41  1  0  0  0
 23 42  1  0  0  0
 24 25  1  0  0  0
 25 43  1  0  0  0
 25 44  1  0  0  0
 25 45  1  0  0  0
 26 46  1  0  0  0
 26 47  1  0  0  0
M  END
>  <ACTIVITY>
4.64207

>  <set_rl>
2

>  <Min_dist>
0.19

>  <Avg_dist>
0.640817

>  <PC_uM>
>22.8

>  <TG_uM>
>20.4

>  <RL_uM>
22.8

$$$$
28-6
  Cerius2 12110214563D 1   1.00000                          
 
 45 47  0  0  0  0  0  0  0  0999 V2000
   -1.9925   -0.2701    0.6972 C   0  0  0  0  0  0
   -2.0379    0.9745    1.4618 C   0  0  0  0  0  0
   -3.0502    1.8013    1.2318 N   0  0  0  0  0  0
   -3.9885    1.5069    0.3377 C   0  0  0  0  0  0
   -3.9939    0.3992   -0.3767 N   0  0  0  0  0  0
   -3.0274   -0.5186   -0.2400 C   0  0  0  0  0  0
   -3.0236   -1.6434   -0.9579 N   0  0  0  0  0  0
   -2.0776   -2.5414   -0.8233 C   0  0  0  0  0  0
   -1.0195   -2.3653    0.0837 C   0  0  0  0  0  0
   -0.9748   -1.2103    0.8666 C   0  0  0  0  0  0
    0.0288   -3.3924    0.2124 C   0  0  0  0  0  0
    1.3174   -3.0276    0.3156 C   0  0  0  0  0  0
    1.7122   -1.6337    0.0476 C   0  0  0  0  0  0
    2.6871   -1.0178    0.8372 C   0  0  0  0  0  0
    3.0557    0.2909    0.5826 C   0  0  0  0  0  0
    2.4571    0.9940   -0.4582 C   0  0  0  0  0  0
    1.4858    0.3839   -1.2459 C   0  0  0  0  0  0
    1.1167   -0.9263   -1.0003 C   0  0  0  0  0  0
    0.9027    1.0748   -2.2620 O   0  0  0  0  0  0
    0.0805    0.1475   -2.9734 C   0  0  0  0  0  0
    2.8219    2.2810   -0.7060 O   0  0  0  0  0  0
    3.9044    2.2314   -1.6376 C   0  0  0  0  0  0
    4.0040    0.8911    1.3507 O   0  0  0  0  0  0
    4.4211   -0.0725    2.3200 C   0  0  0  0  0  0
   -5.0152    2.4118    0.1469 N   0  0  0  0  0  0
   -1.0651    1.2784    2.3885 N   0  0  0  0  0  0
   -2.1130   -3.4383   -1.4240 H   0  0  0  0  0  0
   -0.1746   -1.0455    1.5730 H   0  0  0  0  0  0
   -0.2388   -4.4387    0.2238 H   0  0  0  0  0  0
    2.0641   -3.7561    0.5951 H   0  0  0  0  0  0
    3.1518   -1.5629    1.6454 H   0  0  0  0  0  0
    0.3630   -1.3994   -1.6123 H   0  0  0  0  0  0
   -0.3463    0.6375   -3.8486 H   0  0  0  0  0  0
    0.6833   -0.7032   -3.2911 H   0  0  0  0  0  0
   -0.7228   -0.1989   -2.3232 H   0  0  0  0  0  0
    4.2324    3.2451   -1.8677 H   0  0  0  0  0  0
    4.7324    1.6714   -1.2030 H   0  0  0  0  0  0
    3.5740    1.7400   -2.5527 H   0  0  0  0  0  0
    5.1851    0.3655    2.9623 H   0  0  0  0  0  0
    3.5658   -0.3725    2.9254 H   0  0  0  0  0  0
    4.8305   -0.9455    1.8117 H   0  0  0  0  0  0
   -5.0373    3.2353    0.6589 H   0  0  0  0  0  0
   -5.7139    2.2234   -0.4990 H   0  0  0  0  0  0
   -1.1122    2.1095    2.8865 H   0  0  0  0  0  0
   -0.3329    0.6612    2.5431 H   0  0  0  0  0  0
  1  2  1  0  0  0
  1  6  2  0  0  0
  1 10  1  0  0  0
  2  3  2  0  0  0
  2 26  1  0  0  0
  3  4  1  0  0  0
  4  5  2  0  0  0
  4 25  1  0  0  0
  5  6  1  0  0  0
  6  7  1  0  0  0
  7  8  2  0  0  0
  8  9  1  0  0  0
  8 27  1  0  0  0
  9 10  2  0  0  0
  9 11  1  0  0  0
 10 28  1  0  0  0
 11 12  2  0  0  0
 11 29  1  0  0  0
 12 13  1  0  0  0
 12 30  1  0  0  0
 13 14  1  0  0  0
 13 18  2  0  0  0
 14 15  2  0  0  0
 14 31  1  0  0  0
 15 16  1  0  0  0
 15 23  1  0  0  0
 16 17  2  0  0  0
 16 21  1  0  0  0
 17 18  1  0  0  0
 17 19  1  0  0  0
 18 32  1  0  0  0
 19 20  1  0  0  0
 20 33  1  0  0  0
 20 34  1  0  0  0
 20 35  1  0  0  0
 21 22  1  0  0  0
 22 36  1  0  0  0
 22 37  1  0  0  0
 22 38  1  0  0  0
 23 24  1  0  0  0
 24 39  1  0  0  0
 24 40  1  0  0  0
 24 41  1  0  0  0
 25 42  1  0  0  0
 25 43  1  0  0  0
 26 44  1  0  0  0
 26 45  1  0  0  0
M  END
>  <ACTIVITY>
4.88941

>  <set_rl>
2

>  <Min_dist>
0.101266

>  <Avg_dist>
0.555332

>  <PC_uM>
>5.0

>  <TG_uM>
1.4

>  <RL_uM>
12.9

$$$$
33-5
  Cerius2 12110214563D 1   1.00000                          
 
 32 34  0  0  0  0  0  0  0  0999 V2000
   -4.8201   -1.6060   -0.0006 N   0  0  0  0  0  0
   -5.7486   -0.6579   -0.0002 C   0  0  0  0  0  0
   -5.4494    0.6306    0.0003 N   0  0  0  0  0  0
   -4.1812    1.0336    0.0004 C   0  0  0  0  0  0
   -3.1681    0.0609    0.0000 C   0  0  0  0  0  0
   -3.5276   -1.2946   -0.0005 C   0  0  0  0  0  0
   -2.5609   -2.2836   -0.0004 N   0  0  0  0  0  0
   -1.9059    0.8045   -0.0002 C   0  0  0  0  0  0
   -2.2396    2.1026    0.0000 C   0  0  0  0  0  0
   -3.5797    2.2348    0.0004 O   0  0  0  0  0  0
   -0.5140    0.2268    0.0001 C   0  0  0  0  0  0
    0.4665    1.3154   -0.0003 N   0  0  0  0  0  0
    1.8333    1.0246   -0.0001 C   0  0  0  0  0  0
    2.7641    2.0560   -0.0005 C   0  0  0  0  0  0
    4.1144    1.7664   -0.0003 C   0  0  0  0  0  0
    4.5413    0.4502   -0.0003 C   0  0  0  0  0  0
    3.6162   -0.5802    0.0001 C   0  0  0  0  0  0
    2.2635   -0.2956    0.0062 C   0  0  0  0  0  0
    4.1556   -2.2303    0.0001 Cl  0  0  0  0  0  0
    6.2396    0.0901   -0.0013 Cl  0  0  0  0  0  0
   -7.0818   -1.0317   -0.0008 N   0  0  0  0  0  0
   -2.8227   -3.2176   -0.0008 H   0  0  0  0  0  0
   -1.6212   -2.0433    0.0000 H   0  0  0  0  0  0
   -1.5367    2.9225    0.0003 H   0  0  0  0  0  0
   -0.3754   -0.3866    0.8903 H   0  0  0  0  0  0
   -0.3753   -0.3874   -0.8896 H   0  0  0  0  0  0
    0.1669    2.2380   -0.0007 H   0  0  0  0  0  0
    2.4318    3.0836   -0.0012 H   0  0  0  0  0  0
    4.8379    2.5682   -0.0006 H   0  0  0  0  0  0
    1.5420   -1.0993    0.0065 H   0  0  0  0  0  0
   -7.3220   -1.9715   -0.0014 H   0  0  0  0  0  0
   -7.7756   -0.3538   -0.0005 H   0  0  0  0  0  0
  1  2  1  0  0  0
  1  6  2  0  0  0
  2  3  2  0  0  0
  2 21  1  0  0  0
  3  4  1  0  0  0
  4  5  2  0  0  0
  4 10  1  0  0  0
  5  6  1  0  0  0
  5  8  1  0  0  0
  6  7  1  0  0  0
  7 22  1  0  0  0
  7 23  1  0  0  0
  8  9  2  0  0  0
  8 11  1  0  0  0
  9 10  1  0  0  0
  9 24  1  0  0  0
 11 12  1  0  0  0
 11 25  1  0  0  0
 11 26  1  0  0  0
 12 13  1  0  0  0
 12 27  1  0  0  0
 13 14  1  0  0  0
 13 18  2  0  0  0
 14 15  2  0  0  0
 14 28  1  0  0  0
 15 16  1  0  0  0
 15 29  1  0  0  0
 16 17  2  0  0  0
 16 20  1  0  0  0
 17 18  1  0  0  0
 17 19  1  0  0  0
 18 30  1  0  0  0
 21 31  1  0  0  0
 21 32  1  0  0  0
M  END
>  <ACTIVITY>
4.45346

>  <set_rl>
2

>  <Min_dist>
0.083333

>  <Avg_dist>
0.539264

>  <PC_uM>
>35

>  <TG_uM>
89.3

>  <RL_uM>
35.2

$$$$
37-1E
  Cerius2 12110214563D 1   1.00000                          
 
 31 33  0  0  0  0  0  0  0  0999 V2000
   -2.6186    1.4029    0.1599 N   0  0  0  0  0  0
   -3.4065    0.5592   -0.4953 C   0  0  0  0  0  0
   -3.0692   -0.6992   -0.7198 N   0  0  0  0  0  0
   -1.9024   -1.1772   -0.2887 C   0  0  0  0  0  0
   -1.0378   -0.3155    0.4097 C   0  0  0  0  0  0
   -1.4367    1.0130    0.6260 C   0  0  0  0  0  0
   -0.6190    1.8954    1.3081 N   0  0  0  0  0  0
    0.1430   -1.1089    0.7495 C   0  0  0  0  0  0
   -0.0644   -2.3423    0.2619 C   0  0  0  0  0  0
   -1.2857   -2.3958   -0.3620 N   0  0  0  0  0  0
   -1.6570   -3.1822   -0.7917 H   0  0  0  0  0  0
    1.3590   -0.6330    1.5019 C   0  0  0  0  0  0
    2.3733   -0.0929    0.5270 C   0  0  0  0  0  0
    2.3520    1.2443    0.1772 C   0  0  0  0  0  0
    3.2824    1.7398   -0.7170 C   0  0  0  0  0  0
    4.2345    0.8982   -1.2612 C   0  0  0  0  0  0
    4.2564   -0.4388   -0.9107 C   0  0  0  0  0  0
    3.3287   -0.9334   -0.0131 C   0  0  0  0  0  0
   -4.6289    1.0144   -0.9611 N   0  0  0  0  0  0
   -0.9059    2.8108    1.4512 H   0  0  0  0  0  0
    0.2415    1.5987    1.6435 H   0  0  0  0  0  0
    0.6260   -3.1684    0.3477 H   0  0  0  0  0  0
    1.0702    0.1537    2.1989 H   0  0  0  0  0  0
    1.7936   -1.4662    2.0541 H   0  0  0  0  0  0
    1.6081    1.9019    0.6024 H   0  0  0  0  0  0
    3.2653    2.7844   -0.9908 H   0  0  0  0  0  0
    4.9609    1.2851   -1.9604 H   0  0  0  0  0  0
    5.0000   -1.0965   -1.3361 H   0  0  0  0  0  0
    3.3458   -1.9780    0.2607 H   0  0  0  0  0  0
   -4.8948    1.9343   -0.8062 H   0  0  0  0  0  0
   -5.2190    0.4134   -1.4422 H   0  0  0  0  0  0
  1  2  1  0  0  0
  1  6  2  0  0  0
  2  3  2  0  0  0
  2 19  1  0  0  0
  3  4  1  0  0  0
  4  5  2  0  0  0
  4 10  1  0  0  0
  5  6  1  0  0  0
  5  8  1  0  0  0
  6  7  1  0  0  0
  7 20  1  0  0  0
  7 21  1  0  0  0
  8  9  2  0  0  0
  8 12  1  0  0  0
  9 10  1  0  0  0
  9 22  1  0  0  0
 10 11  1  0  0  0
 12 13  1  0  0  0
 12 23  1  0  0  0
 12 24  1  0  0  0
 13 14  1  0  0  0
 13 18  2  0  0  0
 14 15  2  0  0  0
 14 25  1  0  0  0
 15 16  1  0  0  0
 15 26  1  0  0  0
 16 17  2  0  0  0
 16 27  1  0  0  0
 17 18  1  0  0  0
 17 28  1  0  0  0
 18 29  1  0  0  0
 19 30  1  0  0  0
 19 31  1  0  0  0
M  END
>  <ACTIVITY>
3.56864

>  <set_rl>
2

>  <Min_dist>
0.358209

>  <Avg_dist>
0.590018

>  <PC_uM>
>189

>  <TG_uM>
>130

>  <RL_uM>
270

$$$$
34-5
  Cerius2 12110214563D 1   1.00000                          
 
 47 49  0  0  0  0  0  0  0  0999 V2000
   -4.9898    1.6467    0.0006 N   0  0  0  0  0  0
   -5.8414    0.6285   -0.0002 C   0  0  0  0  0  0
   -5.4420   -0.6318   -0.0005 N   0  0  0  0  0  0
   -4.1439   -0.9331   -0.0005 C   0  0  0  0  0  0
   -3.2083    0.1169   -0.0002 C   0  0  0  0  0  0
   -3.6770    1.4402    0.0006 C   0  0  0  0  0  0
   -2.7933    2.5039    0.0014 N   0  0  0  0  0  0
   -1.8880   -0.5124   -0.0003 C   0  0  0  0  0  0
   -2.0903   -1.8395   -0.0007 C   0  0  0  0  0  0
   -3.4371   -2.1040   -0.0008 N   0  0  0  0  0  0
   -3.8298   -2.9910   -0.0011 H   0  0  0  0  0  0
   -0.5564    0.1934   -0.0005 C   0  0  0  0  0  0
    0.5219   -0.7983   -0.0005 N   0  0  0  0  0  0
    1.8574   -0.3799   -0.0007 C   0  0  0  0  0  0
    2.1615    0.9733   -0.0008 C   0  0  0  0  0  0
    3.4854    1.3848   -0.0005 C   0  0  0  0  0  0
    4.5050    0.4444   -0.0005 C   0  0  0  0  0  0
    4.2042   -0.9052   -0.0009 C   0  0  0  0  0  0
    2.8837   -1.3218    0.0051 C   0  0  0  0  0  0
    2.5887   -2.6503    0.0051 O   0  0  0  0  0  0
    3.8346   -3.3500   -0.0016 C   0  0  0  0  0  0
    3.5730   -4.8575   -0.0020 C   0  0  0  0  0  0
    3.7846    2.7112   -0.0006 O   0  0  0  0  0  0
    5.2100    2.8131   -0.0002 C   0  0  0  0  0  0
    5.6158    4.2883   -0.0003 C   0  0  0  0  0  0
   -7.2002    0.8966   -0.0002 N   0  0  0  0  0  0
   -3.1296    3.4138    0.0019 H   0  0  0  0  0  0
   -1.8372    2.3402    0.0014 H   0  0  0  0  0  0
   -1.3105   -2.5867   -0.0008 H   0  0  0  0  0  0
   -0.4761    0.8175   -0.8905 H   0  0  0  0  0  0
   -0.4760    0.8176    0.8895 H   0  0  0  0  0  0
    0.3102   -1.7450   -0.0005 H   0  0  0  0  0  0
    1.3678    1.7058   -0.0015 H   0  0  0  0  0  0
    5.5357    0.7669   -0.0006 H   0  0  0  0  0  0
    5.0001   -1.6352   -0.0013 H   0  0  0  0  0  0
    4.3987   -3.0790   -0.8941 H   0  0  0  0  0  0
    4.4073   -3.0809    0.8859 H   0  0  0  0  0  0
    4.5233   -5.3912   -0.0071 H   0  0  0  0  0  0
    3.0089   -5.1285    0.8905 H   0  0  0  0  0  0
    3.0003   -5.1267   -0.8895 H   0  0  0  0  0  0
    5.6088    2.3266    0.8900 H   0  0  0  0  0  0
    5.6093    2.3264   -0.8900 H   0  0  0  0  0  0
    6.7031    4.3660    0.0000 H   0  0  0  0  0  0
    5.2171    4.7748   -0.8905 H   0  0  0  0  0  0
    5.2165    4.7750    0.8895 H   0  0  0  0  0  0
   -7.5134    1.8146    0.0004 H   0  0  0  0  0  0
   -7.8387    0.1663   -0.0007 H   0  0  0  0  0  0
  1  2  1  0  0  0
  1  6  2  0  0  0
  2  3  2  0  0  0
  2 26  1  0  0  0
  3  4  1  0  0  0
  4  5  2  0  0  0
  4 10  1  0  0  0
  5  6  1  0  0  0
  5  8  1  0  0  0
  6  7  1  0  0  0
  7 27  1  0  0  0
  7 28  1  0  0  0
  8  9  2  0  0  0
  8 12  1  0  0  0
  9 10  1  0  0  0
  9 29  1  0  0  0
 10 11  1  0  0  0
 12 13  1  0  0  0
 12 30  1  0  0  0
 12 31  1  0  0  0
 13 14  1  0  0  0
 13 32  1  0  0  0
 14 15  1  0  0  0
 14 19  2  0  0  0
 15 16  2  0  0  0
 15 33  1  0  0  0
 16 17  1  0  0  0
 16 23  1  0  0  0
 17 18  2  0  0  0
 17 34  1  0  0  0
 18 19  1  0  0  0
 18 35  1  0  0  0
 19 20  1  0  0  0
 20 21  1  0  0  0
 21 22  1  0  0  0
 21 36  1  0  0  0
 21 37  1  0  0  0
 22 38  1  0  0  0
 22 39  1  0  0  0
 22 40  1  0  0  0
 23 24  1  0  0  0
 24 25  1  0  0  0
 24 41  1  0  0  0
 24 42  1  0  0  0
 25 43  1  0  0  0
 25 44  1  0  0  0
 25 45  1  0  0  0
 26 46  1  0  0  0
 26 47  1  0  0  0
M  END
>  <ACTIVITY>
4.1549

>  <set_rl>
2

>  <Min_dist>
0.035714

>  <Avg_dist>
0.480438

>  <PC_uM>
>21

>  <TG_uM>
5.3

>  <RL_uM>
70

$$$$
40-6
  Cerius2 12110214563D 1   1.00000                          
 
 42 44  0  0  0  0  0  0  0  0999 V2000
   -5.0926    0.6015    0.3560 N   0  0  0  0  0  0
   -5.2681   -0.5063   -0.3540 C   0  0  0  0  0  0
   -4.2362   -1.2147   -0.7912 N   0  0  0  0  0  0
   -3.0031   -0.8291   -0.5272 C   0  0  0  0  0  0
   -2.7404    0.3394    0.2222 C   0  0  0  0  0  0
   -3.8896    1.0558    0.6633 C   0  0  0  0  0  0
   -3.7487    2.2146    1.4044 N   0  0  0  0  0  0
   -1.3351    0.6311    0.4293 C   0  0  0  0  0  0
   -0.4075   -0.2074   -0.0920 C   0  0  0  0  0  0
   -1.3876   -1.4562   -0.9034 S   0  0  0  0  0  0
    1.0651   -0.1103   -0.0077 C   0  0  0  0  0  0
    1.8159   -1.2129    0.4030 C   0  0  0  0  0  0
    3.1944   -1.1194    0.4811 C   0  0  0  0  0  0
    3.8317    0.0721    0.1512 C   0  0  0  0  0  0
    3.0857    1.1724   -0.2583 C   0  0  0  0  0  0
    1.7074    1.0822   -0.3441 C   0  0  0  0  0  0
    3.7118    2.3361   -0.5798 O   0  0  0  0  0  0
    2.6918    3.2636   -0.9559 C   0  0  0  0  0  0
    5.1873    0.1617    0.2297 O   0  0  0  0  0  0
    5.7014   -0.2258   -1.0461 C   0  0  0  0  0  0
    3.9266   -2.1934    0.8812 O   0  0  0  0  0  0
    3.0006   -3.2492    1.1456 C   0  0  0  0  0  0
   -0.9132    1.8481    1.2115 C   0  0  0  0  0  0
   -6.5543   -0.9306   -0.6434 N   0  0  0  0  0  0
   -4.4652    2.8682    1.4236 H   0  0  0  0  0  0
   -2.9334    2.3740    1.9050 H   0  0  0  0  0  0
    1.3215   -2.1380    0.6599 H   0  0  0  0  0  0
    1.1287    1.9366   -0.6625 H   0  0  0  0  0  0
    3.1481    4.2166   -1.2236 H   0  0  0  0  0  0
    2.1414    2.8713   -1.8111 H   0  0  0  0  0  0
    2.0079    3.4103   -0.1199 H   0  0  0  0  0  0
    6.7898   -0.1695   -1.0315 H   0  0  0  0  0  0
    5.3933   -1.2478   -1.2667 H   0  0  0  0  0  0
    5.3131    0.4443   -1.8131 H   0  0  0  0  0  0
    3.5441   -4.1361    1.4712 H   0  0  0  0  0  0
    2.3095   -2.9385    1.9292 H   0  0  0  0  0  0
    2.4419   -3.4782    0.2382 H   0  0  0  0  0  0
   -0.9364    1.6210    2.2773 H   0  0  0  0  0  0
    0.0986    2.1329    0.9227 H   0  0  0  0  0  0
   -1.5964    2.6707    1.0003 H   0  0  0  0  0  0
   -7.3161   -0.4196   -0.3280 H   0  0  0  0  0  0
   -6.6934   -1.7388   -1.1615 H   0  0  0  0  0  0
  1  2  1  0  0  0
  1  6  2  0  0  0
  2  3  2  0  0  0
  2 24  1  0  0  0
  3  4  1  0  0  0
  4  5  2  0  0  0
  4 10  1  0  0  0
  5  6  1  0  0  0
  5  8  1  0  0  0
  6  7  1  0  0  0
  7 25  1  0  0  0
  7 26  1  0  0  0
  8  9  2  0  0  0
  8 23  1  0  0  0
  9 10  1  0  0  0
  9 11  1  0  0  0
 11 12  1  0  0  0
 11 16  2  0  0  0
 12 13  2  0  0  0
 12 27  1  0  0  0
 13 14  1  0  0  0
 13 21  1  0  0  0
 14 15  2  0  0  0
 14 19  1  0  0  0
 15 16  1  0  0  0
 15 17  1  0  0  0
 16 28  1  0  0  0
 17 18  1  0  0  0
 18 29  1  0  0  0
 18 30  1  0  0  0
 18 31  1  0  0  0
 19 20  1  0  0  0
 20 32  1  0  0  0
 20 33  1  0  0  0
 20 34  1  0  0  0
 21 22  1  0  0  0
 22 35  1  0  0  0
 22 36  1  0  0  0
 22 37  1  0  0  0
 23 38  1  0  0  0
 23 39  1  0  0  0
 23 40  1  0  0  0
 24 41  1  0  0  0
 24 42  1  0  0  0
M  END
>  <ACTIVITY>
5.74473

>  <set_rl>
2

>  <Min_dist>
0.234568

>  <Avg_dist>
0.614521

>  <PC_uM>
>8

>  <TG_uM>
0.32

>  <RL_uM>
1.8

$$$$
40-7
  Cerius2 12110214563D 1   1.00000                          
 
 45 47  0  0  0  0  0  0  0  0999 V2000
   -4.9150    0.7290    0.9123 N   0  0  0  0  0  0
   -5.0750   -0.5831    1.0346 C   0  0  0  0  0  0
   -4.1816   -1.4331    0.5484 N   0  0  0  0  0  0
   -3.1068   -0.9871   -0.0725 C   0  0  0  0  0  0
   -2.8715    0.3945   -0.2397 C   0  0  0  0  0  0
   -3.8655    1.2551    0.3039 C   0  0  0  0  0  0
   -3.7358    2.6278    0.1964 N   0  0  0  0  0  0
   -1.6437    0.7240   -0.9440 C   0  0  0  0  0  0
   -0.8479   -0.2665   -1.3710 C   0  0  0  0  0  0
   -1.7030   -1.7417   -0.8501 S   0  0  0  0  0  0
    0.4584   -0.1589   -2.1149 C   0  0  0  0  0  0
    1.5948   -0.0925   -1.1273 C   0  0  0  0  0  0
    2.2017   -1.2569   -0.6955 C   0  0  0  0  0  0
    3.2473   -1.2001    0.2134 C   0  0  0  0  0  0
    3.6853    0.0298    0.6899 C   0  0  0  0  0  0
    3.0727    1.1982    0.2529 C   0  0  0  0  0  0
    2.0311    1.1331   -0.6601 C   0  0  0  0  0  0
    3.4974    2.4041    0.7166 O   0  0  0  0  0  0
    2.6827    3.3974    0.0908 C   0  0  0  0  0  0
    4.7110    0.0897    1.5824 O   0  0  0  0  0  0
    5.9159    0.1897    0.8207 C   0  0  0  0  0  0
    3.8432   -2.3464    0.6383 O   0  0  0  0  0  0
    3.1791   -3.4262   -0.0213 C   0  0  0  0  0  0
   -1.2697    2.1627   -1.1918 C   0  0  0  0  0  0
   -6.1966   -1.0733    1.6831 N   0  0  0  0  0  0
   -4.5203    3.1952    0.2554 H   0  0  0  0  0  0
   -2.8603    3.0231    0.0618 H   0  0  0  0  0  0
    0.5845   -1.0315   -2.7558 H   0  0  0  0  0  0
    0.4550    0.7435   -2.7262 H   0  0  0  0  0  0
    1.8607   -2.2123   -1.0663 H   0  0  0  0  0  0
    1.5548    2.0407   -1.0005 H   0  0  0  0  0  0
    2.9877    4.3862    0.4335 H   0  0  0  0  0  0
    2.8009    3.3355   -0.9910 H   0  0  0  0  0  0
    1.6382    3.2283    0.3524 H   0  0  0  0  0  0
    6.7697    0.2407    1.4964 H   0  0  0  0  0  0
    6.0131   -0.6852    0.1779 H   0  0  0  0  0  0
    5.8841    1.0899    0.2069 H   0  0  0  0  0  0
    3.6248   -4.3710    0.2895 H   0  0  0  0  0  0
    2.1218   -3.4186    0.2436 H   0  0  0  0  0  0
    3.2842   -3.3125   -1.1003 H   0  0  0  0  0  0
   -0.7733    2.5663   -0.3093 H   0  0  0  0  0  0
   -0.5957    2.2209   -2.0464 H   0  0  0  0  0  0
   -2.1698    2.7416   -1.3989 H   0  0  0  0  0  0
   -6.8559   -0.4594    2.0427 H   0  0  0  0  0  0
   -6.3226   -2.0304    1.7776 H   0  0  0  0  0  0
  1  2  1  0  0  0
  1  6  2  0  0  0
  2  3  2  0  0  0
  2 25  1  0  0  0
  3  4  1  0  0  0
  4  5  2  0  0  0
  4 10  1  0  0  0
  5  6  1  0  0  0
  5  8  1  0  0  0
  6  7  1  0  0  0
  7 26  1  0  0  0
  7 27  1  0  0  0
  8  9  2  0  0  0
  8 24  1  0  0  0
  9 10  1  0  0  0
  9 11  1  0  0  0
 11 12  1  0  0  0
 11 28  1  0  0  0
 11 29  1  0  0  0
 12 13  1  0  0  0
 12 17  2  0  0  0
 13 14  2  0  0  0
 13 30  1  0  0  0
 14 15  1  0  0  0
 14 22  1  0  0  0
 15 16  2  0  0  0
 15 20  1  0  0  0
 16 17  1  0  0  0
 16 18  1  0  0  0
 17 31  1  0  0  0
 18 19  1  0  0  0
 19 32  1  0  0  0
 19 33  1  0  0  0
 19 34  1  0  0  0
 20 21  1  0  0  0
 21 35  1  0  0  0
 21 36  1  0  0  0
 21 37  1  0  0  0
 22 23  1  0  0  0
 23 38  1  0  0  0
 23 39  1  0  0  0
 23 40  1  0  0  0
 24 41  1  0  0  0
 24 42  1  0  0  0
 24 43  1  0  0  0
 25 44  1  0  0  0
 25 45  1  0  0  0
M  END
>  <ACTIVITY>
4.29243

>  <set_rl>
2

>  <Min_dist>
0.144444

>  <Avg_dist>
0.619281

>  <PC_uM>
>8

>  <TG_uM>
0.63

>  <RL_uM>
51

$$$$
40-8
  Cerius2 12110214563D 1   1.00000                          
 
 48 50  0  0  0  0  0  0  0  0999 V2000
   -6.1089    0.7879    0.2765 N   0  0  0  0  0  0
   -6.3296   -0.5206    0.3151 C   0  0  0  0  0  0
   -5.3429   -1.3896    0.1473 N   0  0  0  0  0  0
   -4.1114   -0.9668   -0.0636 C   0  0  0  0  0  0
   -3.8032    0.4095   -0.1176 C   0  0  0  0  0  0
   -4.9038    1.2914    0.0701 C   0  0  0  0  0  0
   -4.7153    2.6610    0.0361 N   0  0  0  0  0  0
   -2.4021    0.7126   -0.3570 C   0  0  0  0  0  0
   -1.5303   -0.2949   -0.5046 C   0  0  0  0  0  0
   -2.5436   -1.7514   -0.3303 S   0  0  0  0  0  0
   -0.0469   -0.2154   -0.7582 C   0  0  0  0  0  0
    0.6981   -0.1866    0.5779 C   0  0  0  0  0  0
    2.1814   -0.1071    0.3243 C   0  0  0  0  0  0
    2.7973    1.1258    0.2175 C   0  0  0  0  0  0
    4.1619    1.2033   -0.0162 C   0  0  0  0  0  0
    4.9106    0.0392   -0.1427 C   0  0  0  0  0  0
    4.2876   -1.1984   -0.0342 C   0  0  0  0  0  0
    2.9234   -1.2672    0.2048 C   0  0  0  0  0  0
    5.0158   -2.3404   -0.1575 O   0  0  0  0  0  0
    4.1049   -3.4301    0.0002 C   0  0  0  0  0  0
    6.2501    0.1110   -0.3725 O   0  0  0  0  0  0
    6.8878    0.1351    0.9060 C   0  0  0  0  0  0
    4.7668    2.4167   -0.1221 O   0  0  0  0  0  0
    3.7472    3.4029    0.0506 C   0  0  0  0  0  0
   -1.9348    2.1430   -0.4387 C   0  0  0  0  0  0
   -7.6153   -0.9865    0.5353 N   0  0  0  0  0  0
   -5.4605    3.2483   -0.1655 H   0  0  0  0  0  0
   -3.8379    3.0343    0.2138 H   0  0  0  0  0  0
    0.2707   -1.0856   -1.3326 H   0  0  0  0  0  0
    0.1777    0.6919   -1.3190 H   0  0  0  0  0  0
    0.3805    0.6836    1.1523 H   0  0  0  0  0  0
    0.4734   -1.0939    1.1387 H   0  0  0  0  0  0
    2.2148    2.0299    0.3158 H   0  0  0  0  0  0
    2.4387   -2.2286    0.2896 H   0  0  0  0  0  0
    4.6458   -4.3719   -0.0914 H   0  0  0  0  0  0
    3.6375   -3.3736    0.9832 H   0  0  0  0  0  0
    3.3366   -3.3759   -0.7711 H   0  0  0  0  0  0
    7.9681    0.1927    0.7722 H   0  0  0  0  0  0
    6.5444    1.0043    1.4670 H   0  0  0  0  0  0
    6.6375   -0.7732    1.4541 H   0  0  0  0  0  0
    4.1868    4.3974   -0.0265 H   0  0  0  0  0  0
    2.9884    3.2802   -0.7222 H   0  0  0  0  0  0
    3.2887    3.2835    1.0322 H   0  0  0  0  0  0
   -1.7596    2.5260    0.5666 H   0  0  0  0  0  0
   -1.0091    2.1906   -1.0122 H   0  0  0  0  0  0
   -2.6979    2.7470   -0.9297 H   0  0  0  0  0  0
   -8.3441   -0.3586    0.6596 H   0  0  0  0  0  0
   -7.7868   -1.9408    0.5653 H   0  0  0  0  0  0
  1  2  1  0  0  0
  1  6  2  0  0  0
  2  3  2  0  0  0
  2 26  1  0  0  0
  3  4  1  0  0  0
  4  5  2  0  0  0
  4 10  1  0  0  0
  5  6  1  0  0  0
  5  8  1  0  0  0
  6  7  1  0  0  0
  7 27  1  0  0  0
  7 28  1  0  0  0
  8  9  2  0  0  0
  8 25  1  0  0  0
  9 10  1  0  0  0
  9 11  1  0  0  0
 11 12  1  0  0  0
 11 29  1  0  0  0
 11 30  1  0  0  0
 12 13  1  0  0  0
 12 31  1  0  0  0
 12 32  1  0  0  0
 13 14  1  0  0  0
 13 18  2  0  0  0
 14 15  2  0  0  0
 14 33  1  0  0  0
 15 16  1  0  0  0
 15 23  1  0  0  0
 16 17  2  0  0  0
 16 21  1  0  0  0
 17 18  1  0  0  0
 17 19  1  0  0  0
 18 34  1  0  0  0
 19 20  1  0  0  0
 20 35  1  0  0  0
 20 36  1  0  0  0
 20 37  1  0  0  0
 21 22  1  0  0  0
 22 38  1  0  0  0
 22 39  1  0  0  0
 22 40  1  0  0  0
 23 24  1  0  0  0
 24 41  1  0  0  0
 24 42  1  0  0  0
 24 43  1  0  0  0
 25 44  1  0  0  0
 25 45  1  0  0  0
 25 46  1  0  0  0
 26 47  1  0  0  0
 26 48  1  0  0  0
M  END
>  <ACTIVITY>
4.60206

>  <set_rl>
2

>  <Min_dist>
0.208333

>  <Avg_dist>
0.595482

>  <PC_uM>
>8

>  <TG_uM>
18

>  <RL_uM>
25

$$$$
16-8A
  Cerius2 12110214563D 1   1.00000                          
 
 45 47  0  0  0  0  0  0  0  0999 V2000
   -5.2634   -0.9548    0.9145 N   0  0  0  0  0  0
   -5.2877    0.3435    1.1903 C   0  0  0  0  0  0
   -4.3056    1.1466    0.8062 N   0  0  0  0  0  0
   -3.2755    0.6663    0.1368 C   0  0  0  0  0  0
   -3.1827   -0.7034   -0.1910 C   0  0  0  0  0  0
   -4.2671   -1.5130    0.2481 C   0  0  0  0  0  0
   -4.2785   -2.8699   -0.0186 N   0  0  0  0  0  0
   -1.9879   -1.0747   -0.9305 C   0  0  0  0  0  0
   -1.0893   -0.1293   -1.2399 C   0  0  0  0  0  0
   -1.7928    1.3561   -0.5491 S   0  0  0  0  0  0
    0.2073   -0.2851   -1.9921 C   0  0  0  0  0  0
    1.3401   -0.4491   -1.0119 C   0  0  0  0  0  0
    1.8895    0.6632   -0.4003 C   0  0  0  0  0  0
    2.9323    0.5161    0.5024 C   0  0  0  0  0  0
    3.4245   -0.7509    0.7921 C   0  0  0  0  0  0
    2.8693   -1.8658    0.1757 C   0  0  0  0  0  0
    1.8237   -1.7111   -0.7221 C   0  0  0  0  0  0
    3.3480   -3.1077    0.4558 O   0  0  0  0  0  0
    2.5836   -4.0303   -0.3230 C   0  0  0  0  0  0
    4.4478   -0.8994    1.6769 O   0  0  0  0  0  0
    5.6510   -0.9681    0.9090 C   0  0  0  0  0  0
    3.4728    1.6104    1.1028 O   0  0  0  0  0  0
    2.7421    1.8207    2.3128 C   0  0  0  0  0  0
    1.2186    2.3864   -0.7958 Br  0  0  0  0  0  0
   -1.7617   -2.5060   -1.3443 C   0  0  0  0  0  0
   -6.3599    0.8691    1.8923 N   0  0  0  0  0  0
   -4.8459   -3.4614    0.5003 H   0  0  0  0  0  0
   -3.7193   -3.2302   -0.7245 H   0  0  0  0  0  0
    0.1517   -1.1647   -2.6336 H   0  0  0  0  0  0
    0.3812    0.6002   -2.6037 H   0  0  0  0  0  0
    1.3919   -2.5772   -1.2014 H   0  0  0  0  0  0
    2.9330   -5.0447   -0.1308 H   0  0  0  0  0  0
    1.5311   -3.9509   -0.0508 H   0  0  0  0  0  0
    2.7036   -3.7991   -1.3814 H   0  0  0  0  0  0
    6.4969   -1.1431    1.5739 H   0  0  0  0  0  0
    5.5779   -1.7853    0.1914 H   0  0  0  0  0  0
    5.7961   -0.0285    0.3760 H   0  0  0  0  0  0
    3.0950    2.7314    2.7967 H   0  0  0  0  0  0
    1.6809    1.9186    2.0840 H   0  0  0  0  0  0
    2.8931    0.9725    2.9805 H   0  0  0  0  0  0
   -2.2984   -2.7052   -2.2718 H   0  0  0  0  0  0
   -0.6959   -2.6758   -1.4976 H   0  0  0  0  0  0
   -2.1270   -3.1722   -0.5628 H   0  0  0  0  0  0
   -7.0837    0.2897    2.1774 H   0  0  0  0  0  0
   -6.3870    1.8165    2.0987 H   0  0  0  0  0  0
  1  2  1  0  0  0
  1  6  2  0  0  0
  2  3  2  0  0  0
  2 26  1  0  0  0
  3  4  1  0  0  0
  4  5  2  0  0  0
  4 10  1  0  0  0
  5  6  1  0  0  0
  5  8  1  0  0  0
  6  7  1  0  0  0
  7 27  1  0  0  0
  7 28  1  0  0  0
  8  9  2  0  0  0
  8 25  1  0  0  0
  9 10  1  0  0  0
  9 11  1  0  0  0
 11 12  1  0  0  0
 11 29  1  0  0  0
 11 30  1  0  0  0
 12 13  1  0  0  0
 12 17  2  0  0  0
 13 14  2  0  0  0
 13 24  1  0  0  0
 14 15  1  0  0  0
 14 22  1  0  0  0
 15 16  2  0  0  0
 15 20  1  0  0  0
 16 17  1  0  0  0
 16 18  1  0  0  0
 17 31  1  0  0  0
 18 19  1  0  0  0
 19 32  1  0  0  0
 19 33  1  0  0  0
 19 34  1  0  0  0
 20 21  1  0  0  0
 21 35  1  0  0  0
 21 36  1  0  0  0
 21 37  1  0  0  0
 22 23  1  0  0  0
 23 38  1  0  0  0
 23 39  1  0  0  0
 23 40  1  0  0  0
 25 41  1  0  0  0
 25 42  1  0  0  0
 25 43  1  0  0  0
 26 44  1  0  0  0
 26 45  1  0  0  0
M  END
>  <ACTIVITY>
6.03152

>  <set_rl>
2

>  <Min_dist>
0.22

>  <Avg_dist>
0.645432

>  <PC_uM>
>12

>  <TG_uM>
0.21

>  <RL_uM>
0.93

$$$$
36-6B
  Cerius2 12110214563D 1   1.00000                          
 
 40 42  0  0  0  0  0  0  0  0999 V2000
   -2.8500   -3.0222    0.6164 N   0  0  0  0  0  0
   -4.0865   -2.7132    0.2453 C   0  0  0  0  0  0
   -4.4194   -1.4694   -0.0694 N   0  0  0  0  0  0
   -3.5200   -0.5059   -0.0189 C   0  0  0  0  0  0
   -2.1867   -0.7612    0.3673 C   0  0  0  0  0  0
   -1.8916   -2.1144    0.6921 C   0  0  0  0  0  0
   -0.6155   -2.4765    1.0840 N   0  0  0  0  0  0
   -1.3183    0.4045    0.3725 C   0  0  0  0  0  0
   -1.8224    1.5978    0.0236 C   0  0  0  0  0  0
   -3.5294    1.2374   -0.3437 S   0  0  0  0  0  0
   -0.9341    3.2651   -0.0584 Br  0  0  0  0  0  0
    0.1307    0.2742    0.7655 C   0  0  0  0  0  0
    0.9108   -0.1791   -0.3887 N   0  0  0  0  0  0
    2.2913   -0.3742   -0.2671 C   0  0  0  0  0  0
    3.0345   -0.8054   -1.3640 C   0  0  0  0  0  0
    4.3999   -0.9977   -1.2412 C   0  0  0  0  0  0
    5.0268   -0.7622   -0.0310 C   0  0  0  0  0  0
    4.2900   -0.3335    1.0627 C   0  0  0  0  0  0
    2.9228   -0.1333    0.9436 C   0  0  0  0  0  0
    4.9093   -0.1038    2.2512 O   0  0  0  0  0  0
    6.2959   -0.3890    2.0564 C   0  0  0  0  0  0
    2.4186   -1.0378   -2.5551 O   0  0  0  0  0  0
    3.4323   -1.4623   -3.4684 C   0  0  0  0  0  0
   -5.0471   -3.7097    0.1854 N   0  0  0  0  0  0
   -0.4777   -3.2879    1.5975 H   0  0  0  0  0  0
    0.1417   -1.9192    0.8453 H   0  0  0  0  0  0
    0.5049    1.2419    1.0995 H   0  0  0  0  0  0
    0.2240   -0.4504    1.5744 H   0  0  0  0  0  0
    0.4705   -0.3441   -1.2371 H   0  0  0  0  0  0
    4.9762   -1.3322   -2.0911 H   0  0  0  0  0  0
    6.0922   -0.9129    0.0625 H   0  0  0  0  0  0
    2.3492    0.2006    1.7955 H   0  0  0  0  0  0
    6.8363   -0.2182    2.9875 H   0  0  0  0  0  0
    6.4138   -1.4294    1.7535 H   0  0  0  0  0  0
    6.6953    0.2631    1.2797 H   0  0  0  0  0  0
    2.9841   -1.6613   -4.4419 H   0  0  0  0  0  0
    4.1832   -0.6785   -3.5677 H   0  0  0  0  0  0
    3.9028   -2.3707   -3.0925 H   0  0  0  0  0  0
   -4.8133   -4.6230    0.4134 H   0  0  0  0  0  0
   -5.9534   -3.4940   -0.0846 H   0  0  0  0  0  0
  1  2  1  0  0  0
  1  6  2  0  0  0
  2  3  2  0  0  0
  2 24  1  0  0  0
  3  4  1  0  0  0
  4  5  2  0  0  0
  4 10  1  0  0  0
  5  6  1  0  0  0
  5  8  1  0  0  0
  6  7  1  0  0  0
  7 25  1  0  0  0
  7 26  1  0  0  0
  8  9  2  0  0  0
  8 12  1  0  0  0
  9 10  1  0  0  0
  9 11  1  0  0  0
 12 13  1  0  0  0
 12 27  1  0  0  0
 12 28  1  0  0  0
 13 14  1  0  0  0
 13 29  1  0  0  0
 14 15  1  0  0  0
 14 19  2  0  0  0
 15 16  2  0  0  0
 15 22  1  0  0  0
 16 17  1  0  0  0
 16 30  1  0  0  0
 17 18  2  0  0  0
 17 31  1  0  0  0
 18 19  1  0  0  0
 18 20  1  0  0  0
 19 32  1  0  0  0
 20 21  1  0  0  0
 21 33  1  0  0  0
 21 34  1  0  0  0
 21 35  1  0  0  0
 22 23  1  0  0  0
 23 36  1  0  0  0
 23 37  1  0  0  0
 23 38  1  0  0  0
 24 39  1  0  0  0
 24 40  1  0  0  0
M  END
>  <ACTIVITY>
4.48149

>  <set_rl>
2

>  <Min_dist>
0.121212

>  <Avg_dist>
0.54494

>  <PC_uM>
>100

>  <TG_uM>
>100

>  <RL_uM>
33

$$$$
37-1A
  Cerius2 12110214563D 1   1.00000                          
 
 28 30  0  0  0  0  0  0  0  0999 V2000
   -2.4014   -1.4569    0.1867 N   0  0  0  0  0  0
   -3.3340   -0.5175    0.0903 C   0  0  0  0  0  0
   -3.0395    0.7630   -0.0565 N   0  0  0  0  0  0
   -1.7703    1.1662   -0.1142 C   0  0  0  0  0  0
   -0.7533    0.2020   -0.0158 C   0  0  0  0  0  0
   -1.1101   -1.1449    0.1390 C   0  0  0  0  0  0
   -0.1408   -2.1265    0.2403 N   0  0  0  0  0  0
    0.5166    0.9349   -0.1106 C   0  0  0  0  0  0
    0.1961    2.2439   -0.2546 C   0  0  0  0  0  0
   -1.1658    2.3859   -0.2572 N   0  0  0  0  0  0
   -1.6350    3.2301   -0.3478 H   0  0  0  0  0  0
    1.8805    0.3563   -0.0585 C   0  0  0  0  0  0
    2.7704    0.7512    0.9394 C   0  0  0  0  0  0
    4.0386    0.2088    0.9831 C   0  0  0  0  0  0
    4.4276   -0.7246    0.0391 C   0  0  0  0  0  0
    3.5488   -1.1202   -0.9534 C   0  0  0  0  0  0
    2.2762   -0.5890   -1.0038 C   0  0  0  0  0  0
   -4.6661   -0.8928    0.1450 N   0  0  0  0  0  0
   -0.4002   -3.0551    0.3472 H   0  0  0  0  0  0
    0.7983   -1.8864    0.2044 H   0  0  0  0  0  0
    0.9064    3.0516   -0.3523 H   0  0  0  0  0  0
    2.4681    1.4803    1.6765 H   0  0  0  0  0  0
    4.7289    0.5139    1.7557 H   0  0  0  0  0  0
    5.4213   -1.1458    0.0768 H   0  0  0  0  0  0
    3.8580   -1.8492   -1.6878 H   0  0  0  0  0  0
    1.5910   -0.8985   -1.7791 H   0  0  0  0  0  0
   -4.9026   -1.8274    0.2520 H   0  0  0  0  0  0
   -5.3624   -0.2210    0.0763 H   0  0  0  0  0  0
  1  2  1  0  0  0
  1  6  2  0  0  0
  2  3  2  0  0  0
  2 18  1  0  0  0
  3  4  1  0  0  0
  4  5  2  0  0  0
  4 10  1  0  0  0
  5  6  1  0  0  0
  5  8  1  0  0  0
  6  7  1  0  0  0
  7 19  1  0  0  0
  7 20  1  0  0  0
  8  9  2  0  0  0
  8 12  1  0  0  0
  9 10  1  0  0  0
  9 21  1  0  0  0
 10 11  1  0  0  0
 12 13  1  0  0  0
 12 17  2  0  0  0
 13 14  2  0  0  0
 13 22  1  0  0  0
 14 15  1  0  0  0
 14 23  1  0  0  0
 15 16  2  0  0  0
 15 24  1  0  0  0
 16 17  1  0  0  0
 16 25  1  0  0  0
 17 26  1  0  0  0
 18 27  1  0  0  0
 18 28  1  0  0  0
M  END
>  <ACTIVITY>
5.04096

>  <set_rl>
2

>  <Min_dist>
0.36

>  <Avg_dist>
0.60572

>  <PC_uM>
>186

>  <TG_uM>
12

>  <RL_uM>
9.1

$$$$
37-1B
  Cerius2 12110214563D 1   1.00000                          
 
 28 30  0  0  0  0  0  0  0  0999 V2000
   -3.0442   -1.6120    0.1837 N   0  0  0  0  0  0
   -4.0742   -0.7791    0.1000 C   0  0  0  0  0  0
   -3.9218    0.5267   -0.0394 N   0  0  0  0  0  0
   -2.7045    1.0662   -0.1019 C   0  0  0  0  0  0
   -1.5879    0.2178   -0.0164 C   0  0  0  0  0  0
   -1.7949   -1.1610    0.1305 C   0  0  0  0  0  0
   -0.7239   -2.0318    0.2186 N   0  0  0  0  0  0
   -0.4060    1.0852   -0.1143 C   0  0  0  0  0  0
   -0.8679    2.3523   -0.2474 C   0  0  0  0  0  0
   -2.2374    2.3453   -0.2405 N   0  0  0  0  0  0
   -2.7963    3.1339   -0.3221 H   0  0  0  0  0  0
    1.0131    0.6581   -0.0747 C   0  0  0  0  0  0
    1.8616    1.1416    0.9202 C   0  0  0  0  0  0
    3.1815    0.7406    0.9528 C   0  0  0  0  0  0
    3.6636   -0.1403   -0.0003 C   0  0  0  0  0  0
    2.8254   -0.6230   -0.9907 C   0  0  0  0  0  0
    1.5024   -0.2328   -1.0290 C   0  0  0  0  0  0
    5.3252   -0.6408    0.0464 Cl  0  0  0  0  0  0
   -5.3570   -1.2976    0.1605 N   0  0  0  0  0  0
   -0.8799   -2.9838    0.3201 H   0  0  0  0  0  0
    0.1833   -1.6906    0.1788 H   0  0  0  0  0  0
   -0.2504    3.2331   -0.3437 H   0  0  0  0  0  0
    1.4866    1.8291    1.6640 H   0  0  0  0  0  0
    3.8397    1.1148    1.7229 H   0  0  0  0  0  0
    3.2066   -1.3094   -1.7323 H   0  0  0  0  0  0
    0.8493   -0.6100   -1.8020 H   0  0  0  0  0  0
   -5.4897   -2.2531    0.2622 H   0  0  0  0  0  0
   -6.1229   -0.7052    0.1010 H   0  0  0  0  0  0
  1  2  1  0  0  0
  1  6  2  0  0  0
  2  3  2  0  0  0
  2 19  1  0  0  0
  3  4  1  0  0  0
  4  5  2  0  0  0
  4 10  1  0  0  0
  5  6  1  0  0  0
  5  8  1  0  0  0
  6  7  1  0  0  0
  7 20  1  0  0  0
  7 21  1  0  0  0
  8  9  2  0  0  0
  8 12  1  0  0  0
  9 10  1  0  0  0
  9 22  1  0  0  0
 10 11  1  0  0  0
 12 13  1  0  0  0
 12 17  2  0  0  0
 13 14  2  0  0  0
 13 23  1  0  0  0
 14 15  1  0  0  0
 14 24  1  0  0  0
 15 16  2  0  0  0
 15 18  1  0  0  0
 16 17  1  0  0  0
 16 25  1  0  0  0
 17 26  1  0  0  0
 19 27  1  0  0  0
 19 28  1  0  0  0
M  END
>  <ACTIVITY>
4.20761

>  <set_rl>
2

>  <Min_dist>
0.409836

>  <Avg_dist>
0.591921

>  <PC_uM>
>161

>  <TG_uM>
113

>  <RL_uM>
62

$$$$
38-14
  Cerius2 12110214563D 1   1.00000                          
 
 35 37  0  0  0  0  0  0  0  0999 V2000
   -5.1200   -0.5183   -0.8635 N   0  0  0  0  0  0
   -5.4434   -0.8558    0.3785 C   0  0  0  0  0  0
   -4.6150   -0.6969    1.3974 N   0  0  0  0  0  0
   -3.4018   -0.1824    1.2128 C   0  0  0  0  0  0
   -3.0208    0.1878   -0.0874 C   0  0  0  0  0  0
   -3.9286    0.0029   -1.1401 C   0  0  0  0  0  0
   -3.5926    0.3539   -2.4349 N   0  0  0  0  0  0
   -1.6578    0.7111    0.0339 C   0  0  0  0  0  0
   -1.3393    0.6201    1.3326 C   0  0  0  0  0  0
   -2.3676    0.0938    2.0245 O   0  0  0  0  0  0
   -0.7894    1.2432   -1.0769 C   0  0  0  0  0  0
    0.5013    1.6661   -0.5278 N   0  0  0  0  0  0
    1.5598    0.7570   -0.4517 C   0  0  0  0  0  0
    2.7840    1.1567    0.0687 C   0  0  0  0  0  0
    3.8289    0.2554    0.1432 C   0  0  0  0  0  0
    3.6556   -1.0453   -0.3006 C   0  0  0  0  0  0
    2.4370   -1.4450   -0.8191 C   0  0  0  0  0  0
    1.3878   -0.5492   -0.8909 C   0  0  0  0  0  0
    4.9699   -2.1755   -0.2064 Cl  0  0  0  0  0  0
    5.3597    0.7536    0.7929 Cl  0  0  0  0  0  0
    0.6822    3.0420   -0.0586 C   0  0  0  0  0  0
   -6.6964   -1.3947    0.6170 N   0  0  0  0  0  0
   -4.2295    0.2209   -3.1543 H   0  0  0  0  0  0
   -2.7199    0.7330   -2.6236 H   0  0  0  0  0  0
   -0.3958    0.9241    1.7613 H   0  0  0  0  0  0
   -0.6297    0.4614   -1.8195 H   0  0  0  0  0  0
   -1.2813    2.0951   -1.5463 H   0  0  0  0  0  0
    2.9193    2.1709    0.4144 H   0  0  0  0  0  0
    2.3046   -2.4596   -1.1648 H   0  0  0  0  0  0
    0.4367   -0.8624   -1.2956 H   0  0  0  0  0  0
   -0.2451    3.5980   -0.1969 H   0  0  0  0  0  0
    0.9464    3.0335    0.9989 H   0  0  0  0  0  0
    1.4799    3.5184   -0.6285 H   0  0  0  0  0  0
   -7.3186   -1.5191   -0.1167 H   0  0  0  0  0  0
   -6.9520   -1.6479    1.5179 H   0  0  0  0  0  0
  1  2  1  0  0  0
  1  6  2  0  0  0
  2  3  2  0  0  0
  2 22  1  0  0  0
  3  4  1  0  0  0
  4  5  2  0  0  0
  4 10  1  0  0  0
  5  6  1  0  0  0
  5  8  1  0  0  0
  6  7  1  0  0  0
  7 23  1  0  0  0
  7 24  1  0  0  0
  8  9  2  0  0  0
  8 11  1  0  0  0
  9 10  1  0  0  0
  9 25  1  0  0  0
 11 12  1  0  0  0
 11 26  1  0  0  0
 11 27  1  0  0  0
 12 13  1  0  0  0
 12 21  1  0  0  0
 13 14  1  0  0  0
 13 18  2  0  0  0
 14 15  2  0  0  0
 14 28  1  0  0  0
 15 16  1  0  0  0
 15 20  1  0  0  0
 16 17  2  0  0  0
 16 19  1  0  0  0
 17 18  1  0  0  0
 17 29  1  0  0  0
 18 30  1  0  0  0
 21 31  1  0  0  0
 21 32  1  0  0  0
 21 33  1  0  0  0
 22 34  1  0  0  0
 22 35  1  0  0  0
M  END
>  <ACTIVITY>
3.30103

>  <set_rl>
3

>  <Min_dist>
0.134146

>  <Avg_dist>
0.546767

>  <PC_uM>
44.8

>  <TG_uM>
>27

>  <RL_uM>
>27

$$$$
41-4E
  Cerius2 12110214563D 1   1.00000                          
 
 45 49  0  0  0  0  0  0  0  0999 V2000
   -5.6428   -1.9124   -0.0011 N   0  0  0  0  0  0
   -6.5871   -0.9801   -0.0004 C   0  0  0  0  0  0
   -6.3097    0.3133    0.0006 N   0  0  0  0  0  0
   -5.0486    0.7376    0.0011 C   0  0  0  0  0  0
   -4.0192   -0.2178    0.0004 C   0  0  0  0  0  0
   -4.3557   -1.5792   -0.0007 C   0  0  0  0  0  0
   -3.3724   -2.5517   -0.0010 N   0  0  0  0  0  0
   -2.7697    0.5470    0.0006 C   0  0  0  0  0  0
   -3.1253    1.8393    0.0014 C   0  0  0  0  0  0
   -4.4674    1.9489    0.0017 O   0  0  0  0  0  0
   -1.3682   -0.0070    0.0009 C   0  0  0  0  0  0
   -0.4063    1.0979    0.0011 N   0  0  0  0  0  0
    0.9667    0.8300    0.0013 C   0  0  0  0  0  0
    1.4117   -0.4811    0.0014 C   0  0  0  0  0  0
    2.7736   -0.7546    0.0012 C   0  0  0  0  0  0
    3.6870    0.3087    0.0009 C   0  0  0  0  0  0
    3.2359    1.6258    0.0009 C   0  0  0  0  0  0
    1.8794    1.8863   -0.0043 C   0  0  0  0  0  0
    1.4331    3.1718   -0.0047 O   0  0  0  0  0  0
    2.5899    4.0107    0.0008 C   0  0  0  0  0  0
    5.0247   -0.3137    0.0002 C   0  0  0  0  0  0
    4.8002   -1.6974    0.0001 C   0  0  0  0  0  0
    3.4666   -1.9157    0.0007 O   0  0  0  0  0  0
    5.8897   -2.5601   -0.0005 C   0  0  0  0  0  0
    7.1725   -2.0539   -0.0005 C   0  0  0  0  0  0
    7.3913   -0.6854    0.0000 C   0  0  0  0  0  0
    6.3227    0.1864   -0.0003 C   0  0  0  0  0  0
   -7.9139   -1.3764   -0.0013 N   0  0  0  0  0  0
   -3.6184   -3.4900   -0.0017 H   0  0  0  0  0  0
   -2.4369   -2.2955   -0.0004 H   0  0  0  0  0  0
   -2.4363    2.6709    0.0021 H   0  0  0  0  0  0
   -1.2194   -0.6185    0.8909 H   0  0  0  0  0  0
   -1.2190   -0.6184   -0.8891 H   0  0  0  0  0  0
   -0.7214    2.0153    0.0011 H   0  0  0  0  0  0
    0.6988   -1.2924    0.0019 H   0  0  0  0  0  0
    3.9442    2.4411    0.0007 H   0  0  0  0  0  0
    2.2807    5.0559    0.0006 H   0  0  0  0  0  0
    3.1821    3.8071    0.8929 H   0  0  0  0  0  0
    3.1892    3.8089   -0.8870 H   0  0  0  0  0  0
    5.7315   -3.6284   -0.0005 H   0  0  0  0  0  0
    8.0145   -2.7302   -0.0006 H   0  0  0  0  0  0
    8.4006   -0.3009    0.0007 H   0  0  0  0  0  0
    6.4929    1.2529   -0.0002 H   0  0  0  0  0  0
   -8.1381   -2.3201   -0.0024 H   0  0  0  0  0  0
   -8.6190   -0.7103   -0.0009 H   0  0  0  0  0  0
  1  2  1  0  0  0
  1  6  2  0  0  0
  2  3  2  0  0  0
  2 28  1  0  0  0
  3  4  1  0  0  0
  4  5  2  0  0  0
  4 10  1  0  0  0
  5  6  1  0  0  0
  5  8  1  0  0  0
  6  7  1  0  0  0
  7 29  1  0  0  0
  7 30  1  0  0  0
  8  9  2  0  0  0
  8 11  1  0  0  0
  9 10  1  0  0  0
  9 31  1  0  0  0
 11 12  1  0  0  0
 11 32  1  0  0  0
 11 33  1  0  0  0
 12 13  1  0  0  0
 12 34  1  0  0  0
 13 14  1  0  0  0
 13 18  2  0  0  0
 14 15  2  0  0  0
 14 35  1  0  0  0
 15 16  1  0  0  0
 15 23  1  0  0  0
 16 17  2  0  0  0
 16 21  1  0  0  0
 17 18  1  0  0  0
 17 36  1  0  0  0
 18 19  1  0  0  0
 19 20  1  0  0  0
 20 37  1  0  0  0
 20 38  1  0  0  0
 20 39  1  0  0  0
 21 22  2  0  0  0
 21 27  1  0  0  0
 22 23  1  0  0  0
 22 24  1  0  0  0
 24 25  2  0  0  0
 24 40  1  0  0  0
 25 26  1  0  0  0
 25 41  1  0  0  0
 26 27  2  0  0  0
 26 42  1  0  0  0
 27 43  1  0  0  0
 28 44  1  0  0  0
 28 45  1  0  0  0
M  END
>  <ACTIVITY>
3.30103

>  <set_rl>
3

>  <Min_dist>
0.178571

>  <Avg_dist>
0.549603

>  <PC_uM>
10.3

>  <TG_uM>
>32

>  <RL_uM>
>32

$$$$
41-4I
  Cerius2 12110214563D 1   1.00000                          
 
 42 46  0  0  0  0  0  0  0  0999 V2000
   -5.6522    0.9051    0.0012 N   0  0  0  0  0  0
   -6.1215   -0.3361    0.0001 C   0  0  0  0  0  0
   -5.3299   -1.3958   -0.0010 N   0  0  0  0  0  0
   -4.0066   -1.2554   -0.0012 C   0  0  0  0  0  0
   -3.4697    0.0424   -0.0001 C   0  0  0  0  0  0
   -4.3435    1.1393    0.0011 C   0  0  0  0  0  0
   -3.8556    2.4333    0.0018 N   0  0  0  0  0  0
   -2.0151   -0.1314   -0.0001 C   0  0  0  0  0  0
   -1.7992   -1.4542   -0.0011 C   0  0  0  0  0  0
   -2.9732   -2.1137   -0.0018 O   0  0  0  0  0  0
   -0.9725    0.9568    0.0002 C   0  0  0  0  0  0
    0.3627    0.3539    0.0001 N   0  0  0  0  0  0
    1.4935    1.1664    0.0003 C   0  0  0  0  0  0
    2.7654    0.5940    0.0002 C   0  0  0  0  0  0
    3.8969    1.4257    0.0004 C   0  0  0  0  0  0
    3.7425    2.8072    0.0003 C   0  0  0  0  0  0
    2.4731    3.3640    0.0006 C   0  0  0  0  0  0
    1.3568    2.5542   -0.0052 C   0  0  0  0  0  0
    5.0979    0.5571    0.0000 C   0  0  0  0  0  0
    6.2552    0.9255    0.0006 O   0  0  0  0  0  0
    4.6205   -0.8447   -0.0002 C   0  0  0  0  0  0
    3.2153   -0.8203   -0.0001 C   0  0  0  0  0  0
    2.5106   -2.0174    0.0005 C   0  0  0  0  0  0
    3.1926   -3.2229    0.0009 C   0  0  0  0  0  0
    4.5746   -3.2460    0.0008 C   0  0  0  0  0  0
    5.2923   -2.0625    0.0003 C   0  0  0  0  0  0
   -7.4926   -0.5295    0.0007 N   0  0  0  0  0  0
   -4.4706    3.1835    0.0026 H   0  0  0  0  0  0
   -2.8985    2.5908    0.0014 H   0  0  0  0  0  0
   -0.8260   -1.9226   -0.0017 H   0  0  0  0  0  0
   -1.0922    1.5748   -0.8897 H   0  0  0  0  0  0
   -1.0922    1.5744    0.8903 H   0  0  0  0  0  0
    0.4590   -0.6113   -0.0001 H   0  0  0  0  0  0
    4.6124    3.4472    0.0005 H   0  0  0  0  0  0
    2.3577    4.4378    0.0009 H   0  0  0  0  0  0
    0.3718    2.9971   -0.0050 H   0  0  0  0  0  0
    1.4307   -2.0081    0.0010 H   0  0  0  0  0  0
    2.6407   -4.1513    0.0018 H   0  0  0  0  0  0
    5.0966   -4.1915    0.0011 H   0  0  0  0  0  0
    6.3721   -2.0846   -0.0001 H   0  0  0  0  0  0
   -8.0902    0.2346    0.0019 H   0  0  0  0  0  0
   -7.8556   -1.4290    0.0000 H   0  0  0  0  0  0
  1  2  1  0  0  0
  1  6  2  0  0  0
  2  3  2  0  0  0
  2 27  1  0  0  0
  3  4  1  0  0  0
  4  5  2  0  0  0
  4 10  1  0  0  0
  5  6  1  0  0  0
  5  8  1  0  0  0
  6  7  1  0  0  0
  7 28  1  0  0  0
  7 29  1  0  0  0
  8  9  2  0  0  0
  8 11  1  0  0  0
  9 10  1  0  0  0
  9 30  1  0  0  0
 11 12  1  0  0  0
 11 31  1  0  0  0
 11 32  1  0  0  0
 12 13  1  0  0  0
 12 33  1  0  0  0
 13 14  1  0  0  0
 13 18  2  0  0  0
 14 15  2  0  0  0
 14 22  1  0  0  0
 15 16  1  0  0  0
 15 19  1  0  0  0
 16 17  2  0  0  0
 16 34  1  0  0  0
 17 18  1  0  0  0
 17 35  1  0  0  0
 18 36  1  0  0  0
 19 20  2  0  0  0
 19 21  1  0  0  0
 21 22  2  0  0  0
 21 26  1  0  0  0
 22 23  1  0  0  0
 23 24  2  0  0  0
 23 37  1  0  0  0
 24 25  1  0  0  0
 24 38  1  0  0  0
 25 26  2  0  0  0
 25 39  1  0  0  0
 26 40  1  0  0  0
 27 41  1  0  0  0
 27 42  1  0  0  0
M  END
>  <ACTIVITY>
3.30103

>  <set_rl>
3

>  <Min_dist>
0.153846

>  <Avg_dist>
0.590377

>  <PC_uM>
19.3

>  <TG_uM>
>38

>  <RL_uM>
>38

$$$$
7-2
  Cerius2 12110214563D 1   1.00000                          
 
 51 54  0  0  0  0  0  0  0  0999 V2000
   -6.0652   -0.0270   -0.7385 N   0  0  0  0  0  0
   -5.8025   -1.3155   -0.9164 C   0  0  0  0  0  0
   -4.6149   -1.8393   -0.6626 N   0  0  0  0  0  0
   -3.6190   -1.0823   -0.2110 C   0  0  0  0  0  0
   -3.8553    0.2904   -0.0086 C   0  0  0  0  0  0
   -5.1301    0.8043   -0.2909 C   0  0  0  0  0  0
   -5.4070    2.1468   -0.1080 N   0  0  0  0  0  0
   -2.5954    0.8281    0.4801 C   0  0  0  0  0  0
   -1.7280   -0.2013    0.5341 C   0  0  0  0  0  0
   -2.3392   -1.3246    0.1275 O   0  0  0  0  0  0
   -0.2975   -0.0344    0.9892 C   0  0  0  0  0  0
    0.0703    1.3850    0.8866 N   0  0  0  0  0  0
   -0.9082    2.1639    1.6549 C   0  0  0  0  0  0
   -2.2327    2.2345    0.8792 C   0  0  0  0  0  0
    1.3615    1.5370    1.5705 C   0  0  0  0  0  0
    2.4245    0.7877    0.8091 C   0  0  0  0  0  0
    3.1384    1.4267   -0.1872 C   0  0  0  0  0  0
    4.1170    0.7407   -0.8904 C   0  0  0  0  0  0
    4.3799   -0.5910   -0.5920 C   0  0  0  0  0  0
    3.6602   -1.2296    0.4108 C   0  0  0  0  0  0
    2.6868   -0.5350    1.1128 C   0  0  0  0  0  0
    3.9134   -2.5328    0.7063 O   0  0  0  0  0  0
    3.0245   -2.8966    1.7644 C   0  0  0  0  0  0
    5.3392   -1.2679   -1.2802 O   0  0  0  0  0  0
    6.5653   -1.0827   -0.5699 C   0  0  0  0  0  0
    4.8183    1.3700   -1.8711 O   0  0  0  0  0  0
    4.3239    2.7091   -1.9381 C   0  0  0  0  0  0
   -6.8095   -2.1426   -1.3848 N   0  0  0  0  0  0
   -6.2920    2.4909   -0.3065 H   0  0  0  0  0  0
   -4.7164    2.7444    0.2187 H   0  0  0  0  0  0
   -0.2029   -0.3623    2.0244 H   0  0  0  0  0  0
    0.3595   -0.6287    0.3542 H   0  0  0  0  0  0
   -1.0772    1.6846    2.6192 H   0  0  0  0  0  0
   -0.5259    3.1724    1.8131 H   0  0  0  0  0  0
   -2.1087    2.8519   -0.0104 H   0  0  0  0  0  0
   -3.0130    2.6521    1.5155 H   0  0  0  0  0  0
    1.6252    2.5935    1.6182 H   0  0  0  0  0  0
    1.2869    1.1352    2.5810 H   0  0  0  0  0  0
    2.9335    2.4616   -0.4185 H   0  0  0  0  0  0
    2.1273   -1.0305    1.8925 H   0  0  0  0  0  0
    3.1914   -3.9387    2.0369 H   0  0  0  0  0  0
    3.2103   -2.2605    2.6298 H   0  0  0  0  0  0
    1.9939   -2.7681    1.4335 H   0  0  0  0  0  0
    7.3676   -1.6098   -1.0864 H   0  0  0  0  0  0
    6.8007   -0.0195   -0.5224 H   0  0  0  0  0  0
    6.4629   -1.4777    0.4408 H   0  0  0  0  0  0
    4.8591    3.2556   -2.7147 H   0  0  0  0  0  0
    3.2598    2.6922   -2.1733 H   0  0  0  0  0  0
    4.4759    3.2010   -0.9773 H   0  0  0  0  0  0
   -7.6874   -1.7772   -1.5764 H   0  0  0  0  0  0
   -6.6370   -3.0873   -1.5213 H   0  0  0  0  0  0
  1  2  1  0  0  0
  1  6  2  0  0  0
  2  3  2  0  0  0
  2 28  1  0  0  0
  3  4  1  0  0  0
  4  5  2  0  0  0
  4 10  1  0  0  0
  5  6  1  0  0  0
  5  8  1  0  0  0
  6  7  1  0  0  0
  7 29  1  0  0  0
  7 30  1  0  0  0
  8  9  2  0  0  0
  8 14  1  0  0  0
  9 10  1  0  0  0
  9 11  1  0  0  0
 11 12  1  0  0  0
 11 31  1  0  0  0
 11 32  1  0  0  0
 12 13  1  0  0  0
 12 15  1  0  0  0
 13 14  1  0  0  0
 13 33  1  0  0  0
 13 34  1  0  0  0
 14 35  1  0  0  0
 14 36  1  0  0  0
 15 16  1  0  0  0
 15 37  1  0  0  0
 15 38  1  0  0  0
 16 17  1  0  0  0
 16 21  2  0  0  0
 17 18  2  0  0  0
 17 39  1  0  0  0
 18 19  1  0  0  0
 18 26  1  0  0  0
 19 20  2  0  0  0
 19 24  1  0  0  0
 20 21  1  0  0  0
 20 22  1  0  0  0
 21 40  1  0  0  0
 22 23  1  0  0  0
 23 41  1  0  0  0
 23 42  1  0  0  0
 23 43  1  0  0  0
 24 25  1  0  0  0
 25 44  1  0  0  0
 25 45  1  0  0  0
 25 46  1  0  0  0
 26 27  1  0  0  0
 27 47  1  0  0  0
 27 48  1  0  0  0
 27 49  1  0  0  0
 28 50  1  0  0  0
 28 51  1  0  0  0
M  END
>  <ACTIVITY>
3.30103

>  <set_rl>
3

>  <Min_dist>
0.201923

>  <Avg_dist>
0.619239

>  <PC_uM>
>35

>  <TG_uM>
>35

>  <RL_uM>
>35

$$$$
1-236642
  Cerius2 12110214563D 1   1.00000                          
 
 43 45  0  0  0  0  0  0  0  0999 V2000
    3.8609   -0.2531    0.3056 C   0  0  0  0  0  0
    4.7862   -1.3744    0.4803 C   0  0  0  0  0  0
    6.0594   -1.1768    0.1686 N   0  0  0  0  0  0
    6.4842   -0.0023   -0.2872 C   0  0  0  0  0  0
    5.6944    1.0381   -0.4628 N   0  0  0  0  0  0
    4.3864    0.9681   -0.1848 C   0  0  0  0  0  0
    3.5708    2.0113   -0.3563 N   0  0  0  0  0  0
    2.2924    1.8903   -0.0678 C   0  0  0  0  0  0
    1.7804    0.6862    0.4145 C   0  0  0  0  0  0
    2.5677   -0.3527    0.5960 N   0  0  0  0  0  0
    0.3125    0.5753    0.7369 C   0  0  0  0  0  0
   -0.4164    0.1286   -0.4528 N   0  0  0  0  0  0
   -1.7946   -0.0475   -0.3984 C   0  0  0  0  0  0
   -2.4858   -0.4720   -1.5299 C   0  0  0  0  0  0
   -3.8498   -0.6473   -1.4792 C   0  0  0  0  0  0
   -4.5413   -0.3986   -0.2900 C   0  0  0  0  0  0
   -3.8443    0.0276    0.8444 C   0  0  0  0  0  0
   -2.4796    0.1955    0.7889 C   0  0  0  0  0  0
   -6.0035   -0.5850   -0.2325 C   0  0  0  0  0  0
   -6.5050   -1.5999   -0.6764 O   0  0  0  0  0  0
   -6.7836    0.3696    0.3122 N   0  0  0  0  0  0
   -6.1969    1.6458    0.7285 C   0  0  0  0  0  0
   -8.2183    0.1310    0.4880 C   0  0  0  0  0  0
    7.8249    0.1351   -0.5925 N   0  0  0  0  0  0
    4.3489   -2.5923    0.9528 N   0  0  0  0  0  0
    1.6320    2.7337   -0.2059 H   0  0  0  0  0  0
    0.1708   -0.1458    1.5419 H   0  0  0  0  0  0
   -0.0652    1.5485    1.0503 H   0  0  0  0  0  0
    0.0624   -0.0442   -1.2785 H   0  0  0  0  0  0
   -1.9510   -0.6637   -2.4484 H   0  0  0  0  0  0
   -4.3855   -0.9763   -2.3574 H   0  0  0  0  0  0
   -4.3758    0.2209    1.7645 H   0  0  0  0  0  0
   -1.9405    0.5244    1.6651 H   0  0  0  0  0  0
   -6.9758    2.2859    1.1427 H   0  0  0  0  0  0
   -5.4341    1.4651    1.4859 H   0  0  0  0  0  0
   -5.7441    2.1358   -0.1334 H   0  0  0  0  0  0
   -8.4529   -0.8960    0.2080 H   0  0  0  0  0  0
   -8.4886    0.2939    1.5313 H   0  0  0  0  0  0
   -8.7810    0.8176   -0.1445 H   0  0  0  0  0  0
    8.4289   -0.6144   -0.4725 H   0  0  0  0  0  0
    8.1620    0.9810   -0.9268 H   0  0  0  0  0  0
    4.9764   -3.3238    1.0621 H   0  0  0  0  0  0
    3.4134   -2.7183    1.1761 H   0  0  0  0  0  0
  1  2  1  0  0  0
  1  6  2  0  0  0
  1 10  1  0  0  0
  2  3  2  0  0  0
  2 25  1  0  0  0
  3  4  1  0  0  0
  4  5  2  0  0  0
  4 24  1  0  0  0
  5  6  1  0  0  0
  6  7  1  0  0  0
  7  8  2  0  0  0
  8  9  1  0  0  0
  8 26  1  0  0  0
  9 10  2  0  0  0
  9 11  1  0  0  0
 11 12  1  0  0  0
 11 27  1  0  0  0
 11 28  1  0  0  0
 12 13  1  0  0  0
 12 29  1  0  0  0
 13 14  1  0  0  0
 13 18  2  0  0  0
 14 15  2  0  0  0
 14 30  1  0  0  0
 15 16  1  0  0  0
 15 31  1  0  0  0
 16 17  2  0  0  0
 16 19  1  0  0  0
 17 18  1  0  0  0
 17 32  1  0  0  0
 18 33  1  0  0  0
 19 20  2  0  0  0
 19 21  1  0  0  0
 21 22  1  0  0  0
 21 23  1  0  0  0
 22 34  1  0  0  0
 22 35  1  0  0  0
 22 36  1  0  0  0
 23 37  1  0  0  0
 23 38  1  0  0  0
 23 39  1  0  0  0
 24 40  1  0  0  0
 24 41  1  0  0  0
 25 42  1  0  0  0
 25 43  1  0  0  0
M  END
>  <ACTIVITY>
3.30103

>  <set_rl>
3

>  <Min_dist>
0.077922

>  <Avg_dist>
0.515678

>  <PC_uM>
>5

>  <TG_uM>
N/A

>  <RL_uM>
>10

$$$$
9-12L
  Cerius2 12110214563D 1   1.00000                          
 
 40 42  0  0  0  0  0  0  0  0999 V2000
   -5.0852    0.3684   -1.1475 N   0  0  0  0  0  0
   -5.5264   -0.1364    0.0007 C   0  0  0  0  0  0
   -4.7449   -0.3914    1.0309 N   0  0  0  0  0  0
   -3.4289   -0.1499    0.9770 C   0  0  0  0  0  0
   -2.8859    0.3888   -0.2158 C   0  0  0  0  0  0
   -3.8027    0.6514   -1.3269 C   0  0  0  0  0  0
   -3.3480    1.1739   -2.5178 N   0  0  0  0  0  0
   -1.5835    0.6400   -0.3006 N   0  0  0  0  0  0
   -0.8053    0.3849    0.7297 C   0  0  0  0  0  0
   -1.3346   -0.1452    1.9059 C   0  0  0  0  0  0
   -2.6214   -0.4012    2.0102 N   0  0  0  0  0  0
    0.6719    0.6680    0.6372 C   0  0  0  0  0  0
    1.3655   -0.5180    0.1286 N   0  0  0  0  0  0
    2.7513   -0.4962   -0.0441 C   0  0  0  0  0  0
    3.4725    0.6489    0.2659 C   0  0  0  0  0  0
    4.8473    0.6665    0.0937 C   0  0  0  0  0  0
    5.5001   -0.4599   -0.3881 C   0  0  0  0  0  0
    4.7809   -1.5988   -0.6962 C   0  0  0  0  0  0
    3.4107   -1.6222   -0.5209 C   0  0  0  0  0  0
    2.6296   -2.8663   -0.8575 C   0  0  0  0  0  0
    5.5562    1.7859    0.3958 O   0  0  0  0  0  0
    6.9269    1.4950    0.1155 C   0  0  0  0  0  0
   -6.8761   -0.4076    0.1204 N   0  0  0  0  0  0
   -3.9701    1.3413   -3.2429 H   0  0  0  0  0  0
   -2.4057    1.3745   -2.6311 H   0  0  0  0  0  0
   -0.6807   -0.3481    2.7412 H   0  0  0  0  0  0
    0.8397    1.5054   -0.0401 H   0  0  0  0  0  0
    1.0566    0.9177    1.6260 H   0  0  0  0  0  0
    0.8623   -1.3184   -0.0882 H   0  0  0  0  0  0
    2.9629    1.5245    0.6403 H   0  0  0  0  0  0
    6.5716   -0.4459   -0.5226 H   0  0  0  0  0  0
    5.2914   -2.4736   -1.0711 H   0  0  0  0  0  0
    2.5700   -3.5070    0.0223 H   0  0  0  0  0  0
    1.6240   -2.5893   -1.1741 H   0  0  0  0  0  0
    3.1298   -3.4022   -1.6641 H   0  0  0  0  0  0
    7.5377    2.3685    0.3437 H   0  0  0  0  0  0
    7.2524    0.6540    0.7277 H   0  0  0  0  0  0
    7.0361    1.2407   -0.9388 H   0  0  0  0  0  0
   -7.4743   -0.2294   -0.6220 H   0  0  0  0  0  0
   -7.2252   -0.7763    0.9469 H   0  0  0  0  0  0
  1  2  1  0  0  0
  1  6  2  0  0  0
  2  3  2  0  0  0
  2 23  1  0  0  0
  3  4  1  0  0  0
  4  5  2  0  0  0
  4 11  1  0  0  0
  5  6  1  0  0  0
  5  8  1  0  0  0
  6  7  1  0  0  0
  7 24  1  0  0  0
  7 25  1  0  0  0
  8  9  2  0  0  0
  9 10  1  0  0  0
  9 12  1  0  0  0
 10 11  2  0  0  0
 10 26  1  0  0  0
 12 13  1  0  0  0
 12 27  1  0  0  0
 12 28  1  0  0  0
 13 14  1  0  0  0
 13 29  1  0  0  0
 14 15  1  0  0  0
 14 19  2  0  0  0
 15 16  2  0  0  0
 15 30  1  0  0  0
 16 17  1  0  0  0
 16 21  1  0  0  0
 17 18  2  0  0  0
 17 31  1  0  0  0
 18 19  1  0  0  0
 18 32  1  0  0  0
 19 20  1  0  0  0
 20 33  1  0  0  0
 20 34  1  0  0  0
 20 35  1  0  0  0
 21 22  1  0  0  0
 22 36  1  0  0  0
 22 37  1  0  0  0
 22 38  1  0  0  0
 23 39  1  0  0  0
 23 40  1  0  0  0
M  END
>  <ACTIVITY>
3.30103

>  <set_rl>
3

>  <Min_dist>
0.123457

>  <Avg_dist>
0.468189

>  <PC_uM>
>3

>  <TG_uM>
0.44

>  <RL_uM>
>3

$$$$
1-127977
  Cerius2 12110214563D 1   1.00000                          
 
 60 62  0  0  0  0  0  0  0  0999 V2000
    4.1056   -0.6535    0.7312 C   0  0  0  0  0  0
    3.6971   -2.0552    0.8419 C   0  0  0  0  0  0
    4.6098   -2.9843    0.5946 N   0  0  0  0  0  0
    5.8537   -2.6574    0.2576 C   0  0  0  0  0  0
    6.2729   -1.4131    0.1439 N   0  0  0  0  0  0
    5.4480   -0.3823    0.3674 C   0  0  0  0  0  0
    5.8545    0.8848    0.2572 N   0  0  0  0  0  0
    5.0036    1.8621    0.4878 C   0  0  0  0  0  0
    3.6836    1.5896    0.8455 C   0  0  0  0  0  0
    3.2637    0.3481    0.9650 N   0  0  0  0  0  0
    2.7304    2.7279    1.1039 C   0  0  0  0  0  0
    2.0602    3.0967   -0.1455 N   0  0  0  0  0  0
    0.8643    2.4826   -0.5005 C   0  0  0  0  0  0
    0.2286    2.8342   -1.6882 C   0  0  0  0  0  0
   -0.9551    2.2282   -2.0422 C   0  0  0  0  0  0
   -1.5191    1.2586   -1.2080 C   0  0  0  0  0  0
   -0.8784    0.9078   -0.0161 C   0  0  0  0  0  0
    0.3080    1.5133    0.3297 C   0  0  0  0  0  0
   -2.7882    0.6074   -1.5843 C   0  0  0  0  0  0
   -3.3447    0.9138   -2.6212 O   0  0  0  0  0  0
   -3.3308   -0.3272   -0.7790 N   0  0  0  0  0  0
   -4.5911   -0.9739   -1.1528 C   0  0  0  0  0  0
   -4.3002   -2.2075   -1.9680 C   0  0  0  0  0  0
   -3.2687   -2.8314   -1.7832 O   0  0  0  0  0  0
   -5.0964   -2.5820   -2.8127 O   0  5  0  0  0  0
   -5.3572   -1.3672    0.1119 C   0  0  0  0  0  0
   -5.6525   -0.1148    0.9396 C   0  0  0  0  0  0
   -6.4185   -0.5082    2.2042 C   0  0  0  0  0  0
   -6.7138    0.7443    3.0319 C   0  0  0  0  0  0
   -7.4494    0.3666    4.2461 N   0  3  0  0  0  0
   -7.6441    1.1925    4.7920 H   0  0  0  0  0  0
   -8.3174   -0.0788    3.9887 H   0  0  0  0  0  0
   -6.8918   -0.2734    4.7917 H   0  0  0  0  0  0
    2.6500    4.1126   -1.0209 C   0  0  0  0  0  0
    6.7548   -3.6763    0.0140 N   0  0  0  0  0  0
    2.4090   -2.3967    1.1914 N   0  0  0  0  0  0
    5.3317    2.8872    0.3992 H   0  0  0  0  0  0
    1.9862    2.4191    1.8379 H   0  0  0  0  0  0
    3.2838    3.5856    1.4862 H   0  0  0  0  0  0
    0.6647    3.5835   -2.3321 H   0  0  0  0  0  0
   -1.4479    2.5016   -2.9635 H   0  0  0  0  0  0
   -1.3119    0.1593    0.6307 H   0  0  0  0  0  0
    0.8037    1.2424    1.2502 H   0  0  0  0  0  0
   -2.8869   -0.5716    0.0481 H   0  0  0  0  0  0
   -5.1934   -0.2825   -1.7422 H   0  0  0  0  0  0
   -6.2948   -1.8484   -0.1662 H   0  0  0  0  0  0
   -4.7548   -2.0586    0.7012 H   0  0  0  0  0  0
   -4.7148    0.3664    1.2177 H   0  0  0  0  0  0
   -6.2548    0.5765    0.3502 H   0  0  0  0  0  0
   -7.3562   -0.9894    1.9261 H   0  0  0  0  0  0
   -5.8162   -1.1995    2.7936 H   0  0  0  0  0  0
   -5.7762    1.2254    3.3100 H   0  0  0  0  0  0
   -7.3162    1.4356    2.4425 H   0  0  0  0  0  0
    3.5780    4.4772   -0.5806 H   0  0  0  0  0  0
    2.8586    3.6744   -1.9969 H   0  0  0  0  0  0
    1.9523    4.9420   -1.1366 H   0  0  0  0  0  0
    6.4732   -4.6014    0.0906 H   0  0  0  0  0  0
    7.6688   -3.4664   -0.2337 H   0  0  0  0  0  0
    2.1565   -3.3308    1.2598 H   0  0  0  0  0  0
    1.7546   -1.7031    1.3690 H   0  0  0  0  0  0
  1  2  1  0  0  0
  1  6  2  0  0  0
  1 10  1  0  0  0
  2  3  2  0  0  0
  2 36  1  0  0  0
  3  4  1  0  0  0
  4  5  2  0  0  0
  4 35  1  0  0  0
  5  6  1  0  0  0
  6  7  1  0  0  0
  7  8  2  0  0  0
  8  9  1  0  0  0
  8 37  1  0  0  0
  9 10  2  0  0  0
  9 11  1  0  0  0
 11 12  1  0  0  0
 11 38  1  0  0  0
 11 39  1  0  0  0
 12 13  1  0  0  0
 12 34  1  0  0  0
 13 14  1  0  0  0
 13 18  2  0  0  0
 14 15  2  0  0  0
 14 40  1  0  0  0
 15 16  1  0  0  0
 15 41  1  0  0  0
 16 17  2  0  0  0
 16 19  1  0  0  0
 17 18  1  0  0  0
 17 42  1  0  0  0
 18 43  1  0  0  0
 19 20  2  0  0  0
 19 21  1  0  0  0
 21 22  1  0  0  0
 21 44  1  0  0  0
 22 23  1  0  0  0
 22 26  1  0  0  0
 22 45  1  0  0  0
 23 24  2  0  0  0
 23 25  1  0  0  0
 26 27  1  0  0  0
 26 46  1  0  0  0
 26 47  1  0  0  0
 27 28  1  0  0  0
 27 48  1  0  0  0
 27 49  1  0  0  0
 28 29  1  0  0  0
 28 50  1  0  0  0
 28 51  1  0  0  0
 29 30  1  0  0  0
 29 52  1  0  0  0
 29 53  1  0  0  0
 30 31  1  0  0  0
 30 32  1  0  0  0
 30 33  1  0  0  0
 34 54  1  0  0  0
 34 55  1  0  0  0
 34 56  1  0  0  0
 35 57  1  0  0  0
 35 58  1  0  0  0
 36 59  1  0  0  0
 36 60  1  0  0  0
M  CHG  2  25  -1  30   1
M  END
>  <ACTIVITY>
3.30103

>  <set_rl>
3

>  <Min_dist>
0.037736

>  <Avg_dist>
0.604505

>  <PC_uM>
>8

>  <TG_uM>
>8

>  <RL_uM>
>8

$$$$
1-235776
  Cerius2 12110214563D 1   1.00000                          
 
 33 35  0  0  0  0  0  0  0  0999 V2000
   -4.2577    1.1728   -0.1560 N   0  0  0  0  0  0
   -4.6722   -0.0738   -0.3605 C   0  0  0  0  0  0
   -3.8795   -1.1244   -0.2902 N   0  0  0  0  0  0
   -2.5787   -0.9911   -0.0013 C   0  0  0  0  0  0
   -2.0644    0.3089    0.2294 C   0  0  0  0  0  0
   -2.9925    1.4378    0.1376 C   0  0  0  0  0  0
   -2.5654    2.7304    0.3486 N   0  0  0  0  0  0
   -0.7778    0.4745    0.5188 N   0  0  0  0  0  0
    0.0116   -0.5763    0.5889 C   0  0  0  0  0  0
   -0.4894   -1.8578    0.3627 C   0  0  0  0  0  0
   -1.7602   -2.0433    0.0749 N   0  0  0  0  0  0
    1.4711   -0.3926    0.9162 C   0  0  0  0  0  0
    2.2301   -0.2080   -0.3232 N   0  0  0  0  0  0
    3.6129   -0.0175   -0.2735 C   0  0  0  0  0  0
    4.3341    0.1577   -1.4478 C   0  0  0  0  0  0
    5.7012    0.3462   -1.3950 C   0  0  0  0  0  0
    6.3522    0.3607   -0.1751 C   0  0  0  0  0  0
    5.6373    0.1866    0.9958 C   0  0  0  0  0  0
    4.2693    0.0029    0.9506 C   0  0  0  0  0  0
   -6.0049   -0.2790   -0.6624 N   0  0  0  0  0  0
   -3.1947    3.4658    0.2835 H   0  0  0  0  0  0
   -1.6355    2.9053    0.5622 H   0  0  0  0  0  0
    0.1733   -2.7084    0.4245 H   0  0  0  0  0  0
    1.5934    0.4848    1.5513 H   0  0  0  0  0  0
    1.8398   -1.2745    1.4401 H   0  0  0  0  0  0
    1.7723   -0.2180   -1.1783 H   0  0  0  0  0  0
    3.8263    0.1461   -2.4009 H   0  0  0  0  0  0
    6.2625    0.4822   -2.3076 H   0  0  0  0  0  0
    7.4214    0.5080   -0.1367 H   0  0  0  0  0  0
    6.1488    0.1985    1.9469 H   0  0  0  0  0  0
    3.7115   -0.1327    1.8654 H   0  0  0  0  0  0
   -6.6109    0.4763   -0.7203 H   0  0  0  0  0  0
   -6.3345   -1.1782   -0.8164 H   0  0  0  0  0  0
  1  2  1  0  0  0
  1  6  2  0  0  0
  2  3  2  0  0  0
  2 20  1  0  0  0
  3  4  1  0  0  0
  4  5  2  0  0  0
  4 11  1  0  0  0
  5  6  1  0  0  0
  5  8  1  0  0  0
  6  7  1  0  0  0
  7 21  1  0  0  0
  7 22  1  0  0  0
  8  9  2  0  0  0
  9 10  1  0  0  0
  9 12  1  0  0  0
 10 11  2  0  0  0
 10 23  1  0  0  0
 12 13  1  0  0  0
 12 24  1  0  0  0
 12 25  1  0  0  0
 13 14  1  0  0  0
 13 26  1  0  0  0
 14 15  1  0  0  0
 14 19  2  0  0  0
 15 16  2  0  0  0
 15 27  1  0  0  0
 16 17  1  0  0  0
 16 28  1  0  0  0
 17 18  2  0  0  0
 17 29  1  0  0  0
 18 19  1  0  0  0
 18 30  1  0  0  0
 19 31  1  0  0  0
 20 32  1  0  0  0
 20 33  1  0  0  0
M  END
>  <ACTIVITY>
3.30103

>  <set_rl>
3

>  <Min_dist>
0.031746

>  <Avg_dist>
0.486354

>  <PC_uM>
>1.9

>  <TG_uM>
2.7

>  <RL_uM>
>1.9

$$$$
10-18D
  Cerius2 12110214563D 1   1.00000                          
 
 22 23  0  0  0  0  0  0  0  0999 V2000
   -2.5601    0.7613    0.0001 N   0  0  0  0  0  0
   -2.6826   -0.5627   -0.0001 C   0  0  0  0  0  0
   -1.6551   -1.3880   -0.0004 N   0  0  0  0  0  0
   -0.3979   -0.9269   -0.0005 C   0  0  0  0  0  0
   -0.1888    0.4745   -0.0003 C   0  0  0  0  0  0
   -1.3684    1.3419    0.0000 C   0  0  0  0  0  0
   -1.2442    2.7140   -0.0002 N   0  0  0  0  0  0
    1.0471    0.9635    0.0001 N   0  0  0  0  0  0
    2.0715    0.1373    0.0002 C   0  0  0  0  0  0
    1.8714   -1.2428    0.0000 C   0  0  0  0  0  0
    0.6557   -1.7472   -0.0003 N   0  0  0  0  0  0
    3.4743    0.6878    0.0001 C   0  0  0  0  0  0
    4.4100   -0.3923    0.0003 O   0  0  0  0  0  0
   -3.9549   -1.1019    0.0005 N   0  0  0  0  0  0
   -2.0371    3.2727    0.0000 H   0  0  0  0  0  0
   -0.3638    3.1212   -0.0006 H   0  0  0  0  0  0
    2.7241   -1.9056    0.0002 H   0  0  0  0  0  0
    3.6248    1.2987   -0.8900 H   0  0  0  0  0  0
    3.6248    1.2991    0.8900 H   0  0  0  0  0  0
    5.2927    0.0026    0.0003 H   0  0  0  0  0  0
   -4.7293   -0.5178    0.0010 H   0  0  0  0  0  0
   -4.0736   -2.0646    0.0004 H   0  0  0  0  0  0
  1  2  1  0  0  0
  1  6  2  0  0  0
  2  3  2  0  0  0
  2 14  1  0  0  0
  3  4  1  0  0  0
  4  5  2  0  0  0
  4 11  1  0  0  0
  5  6  1  0  0  0
  5  8  1  0  0  0
  6  7  1  0  0  0
  7 15  1  0  0  0
  7 16  1  0  0  0
  8  9  2  0  0  0
  9 10  1  0  0  0
  9 12  1  0  0  0
 10 11  2  0  0  0
 10 17  1  0  0  0
 12 13  1  0  0  0
 12 18  1  0  0  0
 12 19  1  0  0  0
 13 20  1  0  0  0
 14 21  1  0  0  0
 14 22  1  0  0  0
M  END
>  <ACTIVITY>
3.30103

>  <set_rl>
3

>  <Min_dist>
0.30303

>  <Avg_dist>
0.61794

>  <PC_uM>
>51

>  <TG_uM>
>51

>  <RL_uM>
>51

$$$$
10-17A
  Cerius2 12110214563D 1   1.00000                          
 
 22 23  0  0  0  0  0  0  0  0999 V2000
   -2.7367    0.9105    0.0001 N   0  0  0  0  0  0
   -2.9989   -0.3926   -0.0001 C   0  0  0  0  0  0
   -2.0649   -1.3237   -0.0004 N   0  0  0  0  0  0
   -0.7663   -0.9993   -0.0005 C   0  0  0  0  0  0
   -0.4100    0.3739   -0.0003 C   0  0  0  0  0  0
   -1.4892    1.3618    0.0000 C   0  0  0  0  0  0
   -1.2195    2.7118   -0.0002 N   0  0  0  0  0  0
    0.9324    0.7449    0.0001 C   0  0  0  0  0  0
    1.9112   -0.2447    0.0003 C   0  0  0  0  0  0
    1.5479   -1.6042    0.0001 C   0  0  0  0  0  0
    0.2417   -1.9770   -0.0003 C   0  0  0  0  0  0
    3.3341    0.1328    0.0002 C   0  0  0  0  0  0
    4.1971   -0.7343    0.0004 O   0  0  0  0  0  0
    3.6536    1.3138    0.0000 O   0  5  0  0  0  0
   -4.3207   -0.7931    0.0004 N   0  0  0  0  0  0
   -1.9483    3.3519    0.0000 H   0  0  0  0  0  0
   -0.3008    3.0229   -0.0006 H   0  0  0  0  0  0
    1.2107    1.7884   -0.0001 H   0  0  0  0  0  0
    2.3180   -2.3614   -0.0001 H   0  0  0  0  0  0
   -0.0213   -3.0245   -0.0005 H   0  0  0  0  0  0
   -5.0285   -0.1298    0.0009 H   0  0  0  0  0  0
   -4.5413   -1.7377    0.0003 H   0  0  0  0  0  0
  1  2  1  0  0  0
  1  6  2  0  0  0
  2  3  2  0  0  0
  2 15  1  0  0  0
  3  4  1  0  0  0
  4  5  2  0  0  0
  4 11  1  0  0  0
  5  6  1  0  0  0
  5  8  1  0  0  0
  6  7  1  0  0  0
  7 16  1  0  0  0
  7 17  1  0  0  0
  8  9  2  0  0  0
  8 18  1  0  0  0
  9 10  1  0  0  0
  9 12  1  0  0  0
 10 11  2  0  0  0
 10 19  1  0  0  0
 11 20  1  0  0  0
 12 13  2  0  0  0
 12 14  1  0  0  0
 15 21  1  0  0  0
 15 22  1  0  0  0
M  CHG  1  14  -1
M  END
>  <ACTIVITY>
3.30103

>  <set_rl>
3

>  <Min_dist>
0.166667

>  <Avg_dist>
0.564609

>  <PC_uM>
>32

>  <TG_uM>
>32

>  <RL_uM>
>32

$$$$
10-18B
  Cerius2 12110214563D 1   1.00000                          
 
 23 24  0  0  0  0  0  0  0  0999 V2000
   -2.4490    0.9110    0.0661 N   0  0  0  0  0  0
   -2.7140   -0.3913    0.1169 C   0  0  0  0  0  0
   -1.7740   -1.3159    0.0606 N   0  0  0  0  0  0
   -0.4839   -0.9696   -0.0533 C   0  0  0  0  0  0
   -0.1562    0.4072   -0.1114 C   0  0  0  0  0  0
   -1.2058    1.3566   -0.0462 C   0  0  0  0  0  0
   -0.9412    2.7076   -0.0990 N   0  0  0  0  0  0
    1.1857    0.7879   -0.2298 C   0  0  0  0  0  0
    2.1330   -0.2004   -0.2849 C   0  0  0  0  0  0
    1.7465   -1.5339   -0.2229 C   0  0  0  0  0  0
    0.4848   -1.8842   -0.1117 N   0  0  0  0  0  0
    3.5913    0.1578   -0.4128 C   0  0  0  0  0  0
    4.1623    0.3019    0.8892 O   0  0  0  0  0  0
   -4.0307   -0.7937    0.2343 N   0  0  0  0  0  0
   -1.6696    3.3466   -0.0533 H   0  0  0  0  0  0
   -0.0266    3.0198   -0.1819 H   0  0  0  0  0  0
    1.4660    1.8298   -0.2768 H   0  0  0  0  0  0
    2.5034   -2.3030   -0.2677 H   0  0  0  0  0  0
    4.1133   -0.6318   -0.9532 H   0  0  0  0  0  0
    3.6883    1.0966   -0.9580 H   0  0  0  0  0  0
    5.0933    0.5305    0.7623 H   0  0  0  0  0  0
   -4.7382   -0.1315    0.2778 H   0  0  0  0  0  0
   -4.2475   -1.7383    0.2732 H   0  0  0  0  0  0
  1  2  1  0  0  0
  1  6  2  0  0  0
  2  3  2  0  0  0
  2 14  1  0  0  0
  3  4  1  0  0  0
  4  5  2  0  0  0
  4 11  1  0  0  0
  5  6  1  0  0  0
  5  8  1  0  0  0
  6  7  1  0  0  0
  7 15  1  0  0  0
  7 16  1  0  0  0
  8  9  2  0  0  0
  8 17  1  0  0  0
  9 10  1  0  0  0
  9 12  1  0  0  0
 10 11  2  0  0  0
 10 18  1  0  0  0
 12 13  1  0  0  0
 12 19  1  0  0  0
 12 20  1  0  0  0
 13 21  1  0  0  0
 14 22  1  0  0  0
 14 23  1  0  0  0
M  END
>  <ACTIVITY>
3.30103

>  <set_rl>
3

>  <Min_dist>
0.22

>  <Avg_dist>
0.551668

>  <PC_uM>
>104

>  <TG_uM>
>104

>  <RL_uM>
>104

$$$$
23-7
  Cerius2 12110214563D 1   1.00000                          
 
 53 55  0  0  0  0  0  0  0  0999 V2000
   -4.8760    0.0512    0.5232 N   0  0  0  0  0  0
   -5.1281   -1.2031    0.1766 C   0  0  0  0  0  0
   -4.3182   -1.8823   -0.6214 N   0  0  0  0  0  0
   -3.2126   -1.3231   -1.1103 C   0  0  0  0  0  0
   -2.9179   -0.0070   -0.7696 C   0  0  0  0  0  0
   -3.7892    0.6712    0.0728 C   0  0  0  0  0  0
   -3.5164    1.9797    0.4377 N   0  0  0  0  0  0
   -2.2384    2.4925    0.2583 C   0  0  0  0  0  0
   -1.3704    1.9106   -0.5351 C   0  0  0  0  0  0
   -1.6872    0.6637   -1.3068 C   0  0  0  0  0  0
   -0.5044   -0.3018   -1.2081 C   0  0  0  0  0  0
    0.0008    2.5194   -0.6767 C   0  0  0  0  0  0
    0.8469    2.0814    0.4362 N   0  0  0  0  0  0
    1.7091    0.9894    0.2730 C   0  0  0  0  0  0
    2.7557    1.0618   -0.6360 C   0  0  0  0  0  0
    3.6095   -0.0179   -0.7978 C   0  0  0  0  0  0
    3.4175   -1.1734   -0.0496 C   0  0  0  0  0  0
    2.3693   -1.2449    0.8602 C   0  0  0  0  0  0
    1.5197   -0.1622    1.0245 C   0  0  0  0  0  0
    2.1804   -2.3750    1.5927 O   0  0  0  0  0  0
    0.9919   -2.1757    2.3606 C   0  0  0  0  0  0
    4.2555   -2.2347   -0.2083 O   0  0  0  0  0  0
    5.3257   -2.0587    0.7222 C   0  0  0  0  0  0
    4.6346    0.0531   -1.6886 O   0  0  0  0  0  0
    4.5683    1.3466   -2.2923 C   0  0  0  0  0  0
    0.7958    2.7291    1.6171 C   0  0  0  0  0  0
    1.5610    2.4267    2.5082 O   0  0  0  0  0  0
   -2.3695   -2.0408   -1.9444 N   0  0  0  0  0  0
   -6.2680   -1.8196    0.6619 N   0  0  0  0  0  0
   -4.2154    2.5355    0.8165 H   0  0  0  0  0  0
   -1.9523    3.3915    0.7839 H   0  0  0  0  0  0
   -1.8500    0.9224   -2.3531 H   0  0  0  0  0  0
   -0.5454   -0.8303   -0.2556 H   0  0  0  0  0  0
   -0.5536   -1.0214   -2.0253 H   0  0  0  0  0  0
    0.4283    0.2584   -1.2729 H   0  0  0  0  0  0
    0.4451    2.1988   -1.6190 H   0  0  0  0  0  0
   -0.0812    3.6063   -0.6649 H   0  0  0  0  0  0
    2.9046    1.9596   -1.2175 H   0  0  0  0  0  0
    0.7053   -0.2175    1.7317 H   0  0  0  0  0  0
    0.7725   -3.0780    2.9314 H   0  0  0  0  0  0
    1.1372   -1.3395    3.0446 H   0  0  0  0  0  0
    0.1595   -1.9575    1.6917 H   0  0  0  0  0  0
    6.0261   -2.8889    0.6317 H   0  0  0  0  0  0
    5.8421   -1.1228    0.5091 H   0  0  0  0  0  0
    4.9251   -2.0301    1.7355 H   0  0  0  0  0  0
    5.3750    1.4506   -3.0180 H   0  0  0  0  0  0
    3.6089    1.4636   -2.7963 H   0  0  0  0  0  0
    4.6704    2.1122   -1.5232 H   0  0  0  0  0  0
    0.0735    3.5173    1.7698 H   0  0  0  0  0  0
   -2.1678   -2.9691   -1.7479 H   0  0  0  0  0  0
   -1.9811   -1.6148   -2.7245 H   0  0  0  0  0  0
   -6.4650   -2.7371    0.4165 H   0  0  0  0  0  0
   -6.8700   -1.3342    1.2475 H   0  0  0  0  0  0
  1  2  1  0  0  0
  1  6  2  0  0  0
  2  3  2  0  0  0
  2 29  1  0  0  0
  3  4  1  0  0  0
  4  5  2  0  0  0
  4 28  1  0  0  0
  5  6  1  0  0  0
  5 10  1  0  0  0
  6  7  1  0  0  0
  7  8  1  0  0  0
  7 30  1  0  0  0
  8  9  2  0  0  0
  8 31  1  0  0  0
  9 10  1  0  0  0
  9 12  1  0  0  0
 10 11  1  0  0  0
 10 32  1  0  0  0
 11 33  1  0  0  0
 11 34  1  0  0  0
 11 35  1  0  0  0
 12 13  1  0  0  0
 12 36  1  0  0  0
 12 37  1  0  0  0
 13 14  1  0  0  0
 13 26  1  0  0  0
 14 15  1  0  0  0
 14 19  2  0  0  0
 15 16  2  0  0  0
 15 38  1  0  0  0
 16 17  1  0  0  0
 16 24  1  0  0  0
 17 18  2  0  0  0
 17 22  1  0  0  0
 18 19  1  0  0  0
 18 20  1  0  0  0
 19 39  1  0  0  0
 20 21  1  0  0  0
 21 40  1  0  0  0
 21 41  1  0  0  0
 21 42  1  0  0  0
 22 23  1  0  0  0
 23 43  1  0  0  0
 23 44  1  0  0  0
 23 45  1  0  0  0
 24 25  1  0  0  0
 25 46  1  0  0  0
 25 47  1  0  0  0
 25 48  1  0  0  0
 26 27  2  0  0  0
 26 49  1  0  0  0
 28 50  1  0  0  0
 28 51  1  0  0  0
 29 52  1  0  0  0
 29 53  1  0  0  0
M  END
>  <ACTIVITY>
3.30103

>  <set_rl>
3

>  <Min_dist>
0.283465

>  <Avg_dist>
0.595648

>  <PC_uM>
>2.6

>  <TG_uM>
N/A

>  <RL_uM>
>2.6

$$$$
23-8B
  Cerius2 12110214563D 1   1.00000                          
 
 55 57  0  0  0  0  0  0  0  0999 V2000
   -4.7963   -1.2438    0.7108 N   0  0  0  0  0  0
   -5.7547   -1.0908   -0.1909 C   0  0  0  0  0  0
   -5.6729   -0.1764   -1.1453 N   0  0  0  0  0  0
   -4.6158    0.6284   -1.2305 C   0  0  0  0  0  0
   -3.5896    0.4972   -0.2979 C   0  0  0  0  0  0
   -3.7099   -0.4741    0.6848 C   0  0  0  0  0  0
   -2.7140   -0.6546    1.6331 N   0  0  0  0  0  0
   -1.6817    0.3802    1.7851 C   0  0  0  0  0  0
   -1.2128    0.7892    0.3827 C   0  0  0  0  0  0
   -2.3921    1.4028   -0.3736 C   0  0  0  0  0  0
   -2.0030    1.6063   -1.8393 C   0  0  0  0  0  0
   -0.0868    1.8186    0.4987 C   0  0  0  0  0  0
    1.0356    1.2335    1.2363 N   0  0  0  0  0  0
    2.0471    0.5518    0.5474 C   0  0  0  0  0  0
    3.1262    1.2531    0.0272 C   0  0  0  0  0  0
    4.1277    0.5793   -0.6540 C   0  0  0  0  0  0
    4.0513   -0.7989   -0.8163 C   0  0  0  0  0  0
    2.9705   -1.5002   -0.2951 C   0  0  0  0  0  0
    1.9726   -0.8255    0.3905 C   0  0  0  0  0  0
    2.8947   -2.8488   -0.4533 O   0  0  0  0  0  0
    1.6872   -3.2720    0.1830 C   0  0  0  0  0  0
    5.0344   -1.4615   -1.4858 O   0  0  0  0  0  0
    6.0133   -1.8384   -0.5153 C   0  0  0  0  0  0
    5.1845    1.2667   -1.1640 O   0  0  0  0  0  0
    4.9781    2.6427   -0.8386 C   0  0  0  0  0  0
    1.0951    1.3512    2.5776 C   0  0  0  0  0  0
    2.0051    0.8357    3.1919 O   0  0  0  0  0  0
   -4.5375    1.5827   -2.2328 N   0  0  0  0  0  0
   -6.8701   -1.9079   -0.1343 N   0  0  0  0  0  0
   -2.6993   -1.4507    2.1871 H   0  0  0  0  0  0
   -2.0996    1.2448    2.3009 H   0  0  0  0  0  0
   -0.8412   -0.0182    2.3533 H   0  0  0  0  0  0
   -0.8530   -0.0894   -0.1528 H   0  0  0  0  0  0
   -2.6411    2.3678    0.0680 H   0  0  0  0  0  0
   -2.0914    0.6602   -2.3733 H   0  0  0  0  0  0
   -2.6666    2.3428   -2.2925 H   0  0  0  0  0  0
   -0.9739    1.9608   -1.8961 H   0  0  0  0  0  0
    0.2450    2.1080   -0.4984 H   0  0  0  0  0  0
   -0.4516    2.6978    1.0296 H   0  0  0  0  0  0
    3.1853    2.3241    0.1531 H   0  0  0  0  0  0
    1.1329   -1.3703    0.7959 H   0  0  0  0  0  0
    1.5825   -4.3523    0.0818 H   0  0  0  0  0  0
    1.7215   -3.0078    1.2400 H   0  0  0  0  0  0
    0.8365   -2.7789   -0.2873 H   0  0  0  0  0  0
    6.8247   -2.3749   -1.0071 H   0  0  0  0  0  0
    6.4087   -0.9449   -0.0322 H   0  0  0  0  0  0
    5.5530   -2.4830    0.2336 H   0  0  0  0  0  0
    5.8047    3.2364   -1.2290 H   0  0  0  0  0  0
    4.0434    2.9848   -1.2829 H   0  0  0  0  0  0
    4.9287    2.7566    0.2443 H   0  0  0  0  0  0
    0.3325    1.9046    3.1054 H   0  0  0  0  0  0
   -4.1983    2.4693   -2.0330 H   0  0  0  0  0  0
   -4.8218    1.3640   -3.1340 H   0  0  0  0  0  0
   -7.5793   -1.8066   -0.7883 H   0  0  0  0  0  0
   -6.9428   -2.5821    0.5593 H   0  0  0  0  0  0
  1  2  1  0  0  0
  1  6  2  0  0  0
  2  3  2  0  0  0
  2 29  1  0  0  0
  3  4  1  0  0  0
  4  5  2  0  0  0
  4 28  1  0  0  0
  5  6  1  0  0  0
  5 10  1  0  0  0
  6  7  1  0  0  0
  7  8  1  0  0  0
  7 30  1  0  0  0
  8  9  1  0  0  0
  8 31  1  0  0  0
  8 32  1  0  0  0
  9 10  1  0  0  0
  9 12  1  0  0  0
  9 33  1  0  0  0
 10 11  1  0  0  0
 10 34  1  0  0  0
 11 35  1  0  0  0
 11 36  1  0  0  0
 11 37  1  0  0  0
 12 13  1  0  0  0
 12 38  1  0  0  0
 12 39  1  0  0  0
 13 14  1  0  0  0
 13 26  1  0  0  0
 14 15  1  0  0  0
 14 19  2  0  0  0
 15 16  2  0  0  0
 15 40  1  0  0  0
 16 17  1  0  0  0
 16 24  1  0  0  0
 17 18  2  0  0  0
 17 22  1  0  0  0
 18 19  1  0  0  0
 18 20  1  0  0  0
 19 41  1  0  0  0
 20 21  1  0  0  0
 21 42  1  0  0  0
 21 43  1  0  0  0
 21 44  1  0  0  0
 22 23  1  0  0  0
 23 45  1  0  0  0
 23 46  1  0  0  0
 23 47  1  0  0  0
 24 25  1  0  0  0
 25 48  1  0  0  0
 25 49  1  0  0  0
 25 50  1  0  0  0
 26 27  2  0  0  0
 26 51  1  0  0  0
 28 52  1  0  0  0
 28 53  1  0  0  0
 29 54  1  0  0  0
 29 55  1  0  0  0
M  END
>  <ACTIVITY>
3.30103

>  <set_rl>
3

>  <Min_dist>
0.277778

>  <Avg_dist>
0.58288

>  <PC_uM>
>1.2

>  <TG_uM>
N/A

>  <RL_uM>
>1.2

$$$$
23-8
  Cerius2 12110214563D 1   1.00000                          
 
 53 55  0  0  0  0  0  0  0  0999 V2000
   -5.3961   -1.4604    0.3290 N   0  0  0  0  0  0
   -6.4158   -0.6509    0.0840 C   0  0  0  0  0  0
   -6.2353    0.6305   -0.1974 N   0  0  0  0  0  0
   -5.0118    1.1535   -0.2424 C   0  0  0  0  0  0
   -3.9159    0.3322    0.0118 C   0  0  0  0  0  0
   -4.1450   -1.0050    0.2996 C   0  0  0  0  0  0
   -3.0903   -1.8698    0.5516 N   0  0  0  0  0  0
   -1.7587   -1.3079    0.8174 C   0  0  0  0  0  0
   -1.4961   -0.2057   -0.2171 C   0  0  0  0  0  0
   -2.5276    0.9074   -0.0264 C   0  0  0  0  0  0
   -2.4223    1.8994   -1.1864 C   0  0  0  0  0  0
   -0.0886    0.3600   -0.0172 C   0  0  0  0  0  0
    0.8966   -0.7110   -0.1857 N   0  0  0  0  0  0
    2.2612   -0.4341   -0.0489 C   0  0  0  0  0  0
    3.1946   -1.4493   -0.2086 C   0  0  0  0  0  0
    4.5468   -1.1756   -0.0733 C   0  0  0  0  0  0
    4.9679    0.1152    0.2223 C   0  0  0  0  0  0
    4.0330    1.1309    0.3821 C   0  0  0  0  0  0
    2.6815    0.8569    0.2408 C   0  0  0  0  0  0
    4.4442    2.3945    0.6714 O   0  0  0  0  0  0
    3.2674    3.1988    0.7727 C   0  0  0  0  0  0
    6.2962    0.3847    0.3559 O   0  0  0  0  0  0
    6.7764    0.7473   -0.9402 C   0  0  0  0  0  0
    5.4609   -2.1703   -0.2293 O   0  0  0  0  0  0
    4.7287   -3.3621   -0.5216 C   0  0  0  0  0  0
   -4.8312    2.4957   -0.5382 N   0  0  0  0  0  0
   -7.7030   -1.1576    0.1228 N   0  0  0  0  0  0
   -3.2295   -2.8298    0.5526 H   0  0  0  0  0  0
   -1.7307   -0.8851    1.8216 H   0  0  0  0  0  0
   -1.0038   -2.0886    0.7241 H   0  0  0  0  0  0
   -1.5862   -0.6189   -1.2218 H   0  0  0  0  0  0
   -2.3270    1.4284    0.9097 H   0  0  0  0  0  0
   -1.3721    2.0782   -1.4175 H   0  0  0  0  0  0
   -2.9222    1.4877   -2.0632 H   0  0  0  0  0  0
   -2.8974    2.8392   -0.9051 H   0  0  0  0  0  0
    0.0962    1.1427   -0.7529 H   0  0  0  0  0  0
   -0.0039    0.7771    0.9862 H   0  0  0  0  0  0
    0.6029   -1.6122   -0.3920 H   0  0  0  0  0  0
    2.8671   -2.4526   -0.4380 H   0  0  0  0  0  0
    1.9548    1.6463    0.3646 H   0  0  0  0  0  0
    3.5483    4.2261    1.0048 H   0  0  0  0  0  0
    2.7282    3.1747   -0.1743 H   0  0  0  0  0  0
    2.6281    2.8091    1.5649 H   0  0  0  0  0  0
    7.8412    0.9732   -0.8831 H   0  0  0  0  0  0
    6.6172   -0.0804   -1.6313 H   0  0  0  0  0  0
    6.2372    1.6257   -1.2949 H   0  0  0  0  0  0
    5.4231   -4.1915   -0.6556 H   0  0  0  0  0  0
    4.0521   -3.5844    0.3036 H   0  0  0  0  0  0
    4.1523   -3.2195   -1.4357 H   0  0  0  0  0  0
   -5.3617    2.9146   -1.2339 H   0  0  0  0  0  0
   -4.1744    3.0159   -0.0496 H   0  0  0  0  0  0
   -8.4587   -0.5759   -0.0546 H   0  0  0  0  0  0
   -7.8495   -2.0944    0.3273 H   0  0  0  0  0  0
  1  2  1  0  0  0
  1  6  2  0  0  0
  2  3  2  0  0  0
  2 27  1  0  0  0
  3  4  1  0  0  0
  4  5  2  0  0  0
  4 26  1  0  0  0
  5  6  1  0  0  0
  5 10  1  0  0  0
  6  7  1  0  0  0
  7  8  1  0  0  0
  7 28  1  0  0  0
  8  9  1  0  0  0
  8 29  1  0  0  0
  8 30  1  0  0  0
  9 10  1  0  0  0
  9 12  1  0  0  0
  9 31  1  0  0  0
 10 11  1  0  0  0
 10 32  1  0  0  0
 11 33  1  0  0  0
 11 34  1  0  0  0
 11 35  1  0  0  0
 12 13  1  0  0  0
 12 36  1  0  0  0
 12 37  1  0  0  0
 13 14  1  0  0  0
 13 38  1  0  0  0
 14 15  1  0  0  0
 14 19  2  0  0  0
 15 16  2  0  0  0
 15 39  1  0  0  0
 16 17  1  0  0  0
 16 24  1  0  0  0
 17 18  2  0  0  0
 17 22  1  0  0  0
 18 19  1  0  0  0
 18 20  1  0  0  0
 19 40  1  0  0  0
 20 21  1  0  0  0
 21 41  1  0  0  0
 21 42  1  0  0  0
 21 43  1  0  0  0
 22 23  1  0  0  0
 23 44  1  0  0  0
 23 45  1  0  0  0
 23 46  1  0  0  0
 24 25  1  0  0  0
 25 47  1  0  0  0
 25 48  1  0  0  0
 25 49  1  0  0  0
 26 50  1  0  0  0
 26 51  1  0  0  0
 27 52  1  0  0  0
 27 53  1  0  0  0
M  END
>  <ACTIVITY>
3.30103

>  <set_rl>
3

>  <Min_dist>
0.183486

>  <Avg_dist>
0.534035

>  <PC_uM>
>3700

>  <TG_uM>
N/A

>  <RL_uM>
3700

$$$$
33-3
  Cerius2 12110214563D 1   1.00000                          
 
 44 46  0  0  0  0  0  0  0  0999 V2000
   -5.1949    1.3687   -0.0218 N   0  0  0  0  0  0
   -6.0138    0.3254   -0.0635 C   0  0  0  0  0  0
   -5.5755   -0.9225   -0.0819 N   0  0  0  0  0  0
   -4.2711   -1.1849   -0.0588 C   0  0  0  0  0  0
   -3.3708   -0.1078   -0.0146 C   0  0  0  0  0  0
   -3.8764    1.2001    0.0037 C   0  0  0  0  0  0
   -3.0239    2.2883    0.0467 N   0  0  0  0  0  0
   -2.0351   -0.7093    0.0020 C   0  0  0  0  0  0
   -2.2247   -2.0357   -0.0318 C   0  0  0  0  0  0
   -3.5419   -2.3132   -0.0676 O   0  0  0  0  0  0
   -0.7151    0.0163    0.0471 C   0  0  0  0  0  0
    0.3784   -0.9587    0.0502 N   0  0  0  0  0  0
    1.7064   -0.5203    0.0893 C   0  0  0  0  0  0
    2.7423   -1.4445    0.0922 C   0  0  0  0  0  0
    4.0584   -1.0109    0.1309 C   0  0  0  0  0  0
    4.3407    0.3493    0.1667 C   0  0  0  0  0  0
    3.3032    1.2738    0.1638 C   0  0  0  0  0  0
    1.9878    0.8389    0.1194 C   0  0  0  0  0  0
    3.5786    2.6051    0.1988 O   0  0  0  0  0  0
    2.3228    3.2871    0.1858 C   0  0  0  0  0  0
    5.6334    0.7760    0.2052 O   0  0  0  0  0  0
    6.0564    0.9350   -1.1505 C   0  0  0  0  0  0
    5.0730   -1.9164    0.1342 O   0  0  0  0  0  0
    4.4707   -3.2117    0.0930 C   0  0  0  0  0  0
   -7.3796    0.5516   -0.0883 N   0  0  0  0  0  0
   -3.3863    3.1880    0.0589 H   0  0  0  0  0  0
   -2.0638    2.1518    0.0646 H   0  0  0  0  0  0
   -1.4364   -2.7740   -0.0309 H   0  0  0  0  0  0
   -0.6247    0.6608   -0.8272 H   0  0  0  0  0  0
   -0.6642    0.6221    0.9519 H   0  0  0  0  0  0
    0.1816   -1.9082    0.0252 H   0  0  0  0  0  0
    2.5228   -2.5016    0.0647 H   0  0  0  0  0  0
    1.1814    1.5573    0.1167 H   0  0  0  0  0  0
    2.4935    4.3633    0.2130 H   0  0  0  0  0  0
    1.7783    3.0284   -0.7224 H   0  0  0  0  0  0
    1.7388    2.9897    1.0567 H   0  0  0  0  0  0
    7.0911    1.2773   -1.1705 H   0  0  0  0  0  0
    5.9796   -0.0204   -1.6695 H   0  0  0  0  0  0
    5.4211    1.6695   -1.6455 H   0  0  0  0  0  0
    5.2493   -3.9746    0.0941 H   0  0  0  0  0  0
    3.8319   -3.3433    0.9663 H   0  0  0  0  0  0
    3.8717   -3.3052   -0.8128 H   0  0  0  0  0  0
   -7.7211    1.4594   -0.0751 H   0  0  0  0  0  0
   -7.9949   -0.1977   -0.1188 H   0  0  0  0  0  0
  1  2  1  0  0  0
  1  6  2  0  0  0
  2  3  2  0  0  0
  2 25  1  0  0  0
  3  4  1  0  0  0
  4  5  2  0  0  0
  4 10  1  0  0  0
  5  6  1  0  0  0
  5  8  1  0  0  0
  6  7  1  0  0  0
  7 26  1  0  0  0
  7 27  1  0  0  0
  8  9  2  0  0  0
  8 11  1  0  0  0
  9 10  1  0  0  0
  9 28  1  0  0  0
 11 12  1  0  0  0
 11 29  1  0  0  0
 11 30  1  0  0  0
 12 13  1  0  0  0
 12 31  1  0  0  0
 13 14  1  0  0  0
 13 18  2  0  0  0
 14 15  2  0  0  0
 14 32  1  0  0  0
 15 16  1  0  0  0
 15 23  1  0  0  0
 16 17  2  0  0  0
 16 21  1  0  0  0
 17 18  1  0  0  0
 17 19  1  0  0  0
 18 33  1  0  0  0
 19 20  1  0  0  0
 20 34  1  0  0  0
 20 35  1  0  0  0
 20 36  1  0  0  0
 21 22  1  0  0  0
 22 37  1  0  0  0
 22 38  1  0  0  0
 22 39  1  0  0  0
 23 24  1  0  0  0
 24 40  1  0  0  0
 24 41  1  0  0  0
 24 42  1  0  0  0
 25 43  1  0  0  0
 25 44  1  0  0  0
M  END
>  <ACTIVITY>
3.30103

>  <set_rl>
3

>  <Min_dist>
0.14433

>  <Avg_dist>
0.522468

>  <PC_uM>
>4

>  <TG_uM>
>4

>  <RL_uM>
>37.0

$$$$
33-6
  Cerius2 12110214563D 1   1.00000                          
 
 40 42  0  0  0  0  0  0  0  0999 V2000
   -4.6263    1.5036    0.0010 N   0  0  0  0  0  0
   -5.4395    0.4550    0.0002 C   0  0  0  0  0  0
   -4.9941   -0.7905   -0.0008 N   0  0  0  0  0  0
   -3.6880   -1.0450   -0.0011 C   0  0  0  0  0  0
   -2.7935    0.0379   -0.0004 C   0  0  0  0  0  0
   -3.3065    1.3430    0.0007 C   0  0  0  0  0  0
   -2.4600    2.4366    0.0010 N   0  0  0  0  0  0
   -1.4541   -0.5556   -0.0005 C   0  0  0  0  0  0
   -1.6363   -1.8835   -0.0013 C   0  0  0  0  0  0
   -2.9522   -2.1690   -0.0016 O   0  0  0  0  0  0
   -0.1379    0.1783   -0.0006 C   0  0  0  0  0  0
    0.9613   -0.7902   -0.0007 N   0  0  0  0  0  0
    2.2876   -0.3435   -0.0009 C   0  0  0  0  0  0
    2.5628    1.0160   -0.0009 C   0  0  0  0  0  0
    3.8777    1.4555   -0.0005 C   0  0  0  0  0  0
    4.9171    0.5370   -0.0006 C   0  0  0  0  0  0
    4.6451   -0.8187   -0.0010 C   0  0  0  0  0  0
    3.3337   -1.2633    0.0049 C   0  0  0  0  0  0
    3.0671   -2.5978    0.0048 O   0  0  0  0  0  0
    4.3276   -3.2708   -0.0020 C   0  0  0  0  0  0
    4.1486    2.7880   -0.0005 O   0  0  0  0  0  0
    5.5715    2.9202   -0.0001 C   0  0  0  0  0  0
   -6.8069    0.6729    0.0010 N   0  0  0  0  0  0
   -2.8275    3.3343    0.0018 H   0  0  0  0  0  0
   -1.4989    2.3060    0.0005 H   0  0  0  0  0  0
   -0.8437   -2.6171   -0.0019 H   0  0  0  0  0  0
   -0.0709    0.8040   -0.8906 H   0  0  0  0  0  0
   -0.0707    0.8040    0.8894 H   0  0  0  0  0  0
    0.7698   -1.7411   -0.0007 H   0  0  0  0  0  0
    1.7537    1.7313   -0.0015 H   0  0  0  0  0  0
    5.9407    0.8814   -0.0007 H   0  0  0  0  0  0
    5.4564   -1.5316   -0.0015 H   0  0  0  0  0  0
    4.1641   -4.3485   -0.0023 H   0  0  0  0  0  0
    4.8858   -2.9878   -0.8944 H   0  0  0  0  0  0
    4.8944   -2.9896    0.8856 H   0  0  0  0  0  0
    5.8382    3.9771   -0.0001 H   0  0  0  0  0  0
    5.9806    2.4422    0.8900 H   0  0  0  0  0  0
    5.9811    2.4421   -0.8900 H   0  0  0  0  0  0
   -7.1536    1.5789    0.0021 H   0  0  0  0  0  0
   -7.4181   -0.0803    0.0005 H   0  0  0  0  0  0
  1  2  1  0  0  0
  1  6  2  0  0  0
  2  3  2  0  0  0
  2 23  1  0  0  0
  3  4  1  0  0  0
  4  5  2  0  0  0
  4 10  1  0  0  0
  5  6  1  0  0  0
  5  8  1  0  0  0
  6  7  1  0  0  0
  7 24  1  0  0  0
  7 25  1  0  0  0
  8  9  2  0  0  0
  8 11  1  0  0  0
  9 10  1  0  0  0
  9 26  1  0  0  0
 11 12  1  0  0  0
 11 27  1  0  0  0
 11 28  1  0  0  0
 12 13  1  0  0  0
 12 29  1  0  0  0
 13 14  1  0  0  0
 13 18  2  0  0  0
 14 15  2  0  0  0
 14 30  1  0  0  0
 15 16  1  0  0  0
 15 21  1  0  0  0
 16 17  2  0  0  0
 16 31  1  0  0  0
 17 18  1  0  0  0
 17 32  1  0  0  0
 18 19  1  0  0  0
 19 20  1  0  0  0
 20 33  1  0  0  0
 20 34  1  0  0  0
 20 35  1  0  0  0
 21 22  1  0  0  0
 22 36  1  0  0  0
 22 37  1  0  0  0
 22 38  1  0  0  0
 23 39  1  0  0  0
 23 40  1  0  0  0
M  END
>  <ACTIVITY>
3.30103

>  <set_rl>
3

>  <Min_dist>
0.186813

>  <Avg_dist>
0.527766

>  <PC_uM>
>21

>  <TG_uM>
>21

>  <RL_uM>
>21

$$$$
35-2
  Cerius2 12110214563D 1   1.00000                          
 
 44 46  0  0  0  0  0  0  0  0999 V2000
   -4.3858    1.4504   -0.8729 N   0  0  0  0  0  0
   -5.3067    0.6348   -0.3739 C   0  0  0  0  0  0
   -4.9965   -0.4632    0.2938 N   0  0  0  0  0  0
   -3.7227   -0.7994    0.4945 C   0  0  0  0  0  0
   -2.7158    0.0379   -0.0184 C   0  0  0  0  0  0
   -3.0908    1.1942   -0.7208 C   0  0  0  0  0  0
   -2.1348    2.0466   -1.2423 N   0  0  0  0  0  0
   -1.4429   -0.5789    0.3533 C   0  0  0  0  0  0
   -1.7376   -1.6972    1.0351 C   0  0  0  0  0  0
   -3.0996   -1.8401    1.1264 N   0  0  0  0  0  0
   -3.5535   -2.5717    1.5733 H   0  0  0  0  0  0
   -0.0652   -0.0594    0.0321 C   0  0  0  0  0  0
    0.9438   -0.9726    0.5853 N   0  0  0  0  0  0
    2.1943   -0.4378    0.2553 C   0  0  0  0  0  0
    2.5485    0.8271    0.7008 C   0  0  0  0  0  0
    3.7882    1.3540    0.3726 C   0  0  0  0  0  0
    4.6733    0.6175   -0.4007 C   0  0  0  0  0  0
    4.3221   -0.6434   -0.8463 C   0  0  0  0  0  0
    3.0877   -1.1771   -0.5164 C   0  0  0  0  0  0
    2.7432   -2.4185   -0.9551 O   0  0  0  0  0  0
    3.8471   -2.9074   -1.7197 C   0  0  0  0  0  0
    4.1364    2.5939    0.8088 O   0  0  0  0  0  0
    5.4522    2.8513    0.3144 C   0  0  0  0  0  0
    0.8250   -0.8971    2.0475 C   0  0  0  0  0  0
   -6.6434    0.9464   -0.5595 N   0  0  0  0  0  0
   -2.4065    2.8424   -1.7258 H   0  0  0  0  0  0
   -1.1925    1.8486   -1.1247 H   0  0  0  0  0  0
   -1.0120   -2.3814    1.4496 H   0  0  0  0  0  0
    0.0562    0.0042   -1.0492 H   0  0  0  0  0  0
    0.0612    0.9304    0.4708 H   0  0  0  0  0  0
    1.8592    1.4010    1.3023 H   0  0  0  0  0  0
    5.6384    1.0299   -0.6556 H   0  0  0  0  0  0
    5.0132   -1.2145   -1.4486 H   0  0  0  0  0  0
    3.6163   -3.9047   -2.0942 H   0  0  0  0  0  0
    4.0323   -2.2378   -2.5596 H   0  0  0  0  0  0
    4.7346   -2.9526   -1.0885 H   0  0  0  0  0  0
    5.7760    3.8397    0.6404 H   0  0  0  0  0  0
    6.1392    2.0982    0.7005 H   0  0  0  0  0  0
    5.4451    2.8122   -0.7749 H   0  0  0  0  0  0
    1.5575   -1.5613    2.5063 H   0  0  0  0  0  0
    1.0076    0.1265    2.3746 H   0  0  0  0  0  0
   -0.1782   -1.2006    2.3467 H   0  0  0  0  0  0
   -6.8916    1.7478   -1.0463 H   0  0  0  0  0  0
   -7.3314    0.3631   -0.2025 H   0  0  0  0  0  0
  1  2  1  0  0  0
  1  6  2  0  0  0
  2  3  2  0  0  0
  2 25  1  0  0  0
  3  4  1  0  0  0
  4  5  2  0  0  0
  4 10  1  0  0  0
  5  6  1  0  0  0
  5  8  1  0  0  0
  6  7  1  0  0  0
  7 26  1  0  0  0
  7 27  1  0  0  0
  8  9  2  0  0  0
  8 12  1  0  0  0
  9 10  1  0  0  0
  9 28  1  0  0  0
 10 11  1  0  0  0
 12 13  1  0  0  0
 12 29  1  0  0  0
 12 30  1  0  0  0
 13 14  1  0  0  0
 13 24  1  0  0  0
 14 15  1  0  0  0
 14 19  2  0  0  0
 15 16  2  0  0  0
 15 31  1  0  0  0
 16 17  1  0  0  0
 16 22  1  0  0  0
 17 18  2  0  0  0
 17 32  1  0  0  0
 18 19  1  0  0  0
 18 33  1  0  0  0
 19 20  1  0  0  0
 20 21  1  0  0  0
 21 34  1  0  0  0
 21 35  1  0  0  0
 21 36  1  0  0  0
 22 23  1  0  0  0
 23 37  1  0  0  0
 23 38  1  0  0  0
 23 39  1  0  0  0
 24 40  1  0  0  0
 24 41  1  0  0  0
 24 42  1  0  0  0
 25 43  1  0  0  0
 25 44  1  0  0  0
M  END
>  <ACTIVITY>
3.30103

>  <set_rl>
3

>  <Min_dist>
0.070588

>  <Avg_dist>
0.477316

>  <PC_uM>
>12

>  <TG_uM>
3.4

>  <RL_uM>
>12

$$$$
36-7A
  Cerius2 12110214563D 1   1.00000                          
 
 44 46  0  0  0  0  0  0  0  0999 V2000
   -4.6760   -1.7646    0.1505 N   0  0  0  0  0  0
   -5.7126   -0.9363    0.1088 C   0  0  0  0  0  0
   -5.5417    0.3755    0.0248 N   0  0  0  0  0  0
   -4.3269    0.8876   -0.0189 C   0  0  0  0  0  0
   -3.1789    0.0675    0.0216 C   0  0  0  0  0  0
   -3.4277   -1.3304    0.1113 C   0  0  0  0  0  0
   -2.3748   -2.2258    0.1579 N   0  0  0  0  0  0
   -1.9151    0.7829   -0.0359 C   0  0  0  0  0  0
   -1.9233    2.1207   -0.1202 C   0  0  0  0  0  0
   -3.6593    2.5268   -0.1288 S   0  0  0  0  0  0
   -0.6104    0.0295   -0.0006 C   0  0  0  0  0  0
    0.5021    0.9814    0.0488 N   0  0  0  0  0  0
    1.8208    0.5209   -0.0305 C   0  0  0  0  0  0
    2.8748    1.4233    0.0163 C   0  0  0  0  0  0
    4.1817    0.9678   -0.0622 C   0  0  0  0  0  0
    4.4366   -0.3925   -0.1878 C   0  0  0  0  0  0
    3.3811   -1.2952   -0.2346 C   0  0  0  0  0  0
    2.0749   -0.8387   -0.1503 C   0  0  0  0  0  0
    3.6297   -2.6265   -0.3575 O   0  0  0  0  0  0
    2.3608   -3.2835   -0.3766 C   0  0  0  0  0  0
    5.7203   -0.8407   -0.2654 O   0  0  0  0  0  0
    6.1508   -1.0947    1.0733 C   0  0  0  0  0  0
    5.2140    1.8519   -0.0167 O   0  0  0  0  0  0
    4.6379    3.1532    0.1130 C   0  0  0  0  0  0
   -6.9971   -1.4526    0.1535 N   0  0  0  0  0  0
   -2.5502   -3.1779    0.2190 H   0  0  0  0  0  0
   -1.4610   -1.9018    0.1294 H   0  0  0  0  0  0
   -1.0793    2.7927   -0.1705 H   0  0  0  0  0  0
   -0.5827   -0.6079    0.8832 H   0  0  0  0  0  0
   -0.5222   -0.5864   -0.8956 H   0  0  0  0  0  0
    0.3244    1.9309    0.1365 H   0  0  0  0  0  0
    2.6765    2.4805    0.1136 H   0  0  0  0  0  0
    1.2545   -1.5401   -0.1863 H   0  0  0  0  0  0
    2.5099   -4.3588   -0.4744 H   0  0  0  0  0  0
    1.8288   -3.0733    0.5512 H   0  0  0  0  0  0
    1.7759   -2.9196   -1.2213 H   0  0  0  0  0  0
    7.1786   -1.4574    1.0618 H   0  0  0  0  0  0
    6.0971   -0.1733    1.6532 H   0  0  0  0  0  0
    5.5050   -1.8471    1.5260 H   0  0  0  0  0  0
    5.4313    3.8994    0.1536 H   0  0  0  0  0  0
    3.9949    3.3529   -0.7442 H   0  0  0  0  0  0
    4.0480    3.1998    1.0284 H   0  0  0  0  0  0
   -7.1327   -2.4112    0.2147 H   0  0  0  0  0  0
   -7.7611   -0.8557    0.1237 H   0  0  0  0  0  0
  1  2  1  0  0  0
  1  6  2  0  0  0
  2  3  2  0  0  0
  2 25  1  0  0  0
  3  4  1  0  0  0
  4  5  2  0  0  0
  4 10  1  0  0  0
  5  6  1  0  0  0
  5  8  1  0  0  0
  6  7  1  0  0  0
  7 26  1  0  0  0
  7 27  1  0  0  0
  8  9  2  0  0  0
  8 11  1  0  0  0
  9 10  1  0  0  0
  9 28  1  0  0  0
 11 12  1  0  0  0
 11 29  1  0  0  0
 11 30  1  0  0  0
 12 13  1  0  0  0
 12 31  1  0  0  0
 13 14  1  0  0  0
 13 18  2  0  0  0
 14 15  2  0  0  0
 14 32  1  0  0  0
 15 16  1  0  0  0
 15 23  1  0  0  0
 16 17  2  0  0  0
 16 21  1  0  0  0
 17 18  1  0  0  0
 17 19  1  0  0  0
 18 33  1  0  0  0
 19 20  1  0  0  0
 20 34  1  0  0  0
 20 35  1  0  0  0
 20 36  1  0  0  0
 21 22  1  0  0  0
 22 37  1  0  0  0
 22 38  1  0  0  0
 22 39  1  0  0  0
 23 24  1  0  0  0
 24 40  1  0  0  0
 24 41  1  0  0  0
 24 42  1  0  0  0
 25 43  1  0  0  0
 25 44  1  0  0  0
M  END
>  <ACTIVITY>
3.30103

>  <set_rl>
3

>  <Min_dist>
0.085106

>  <Avg_dist>
0.522023

>  <PC_uM>
>10

>  <TG_uM>
>10

>  <RL_uM>
>10

$$$$
36-7B
  Cerius2 12110214563D 1   1.00000                          
 
 40 42  0  0  0  0  0  0  0  0999 V2000
   -4.1495   -1.8676    0.1404 N   0  0  0  0  0  0
   -5.1729   -1.0262    0.0568 C   0  0  0  0  0  0
   -4.9814    0.2807   -0.0547 N   0  0  0  0  0  0
   -3.7587    0.7746   -0.0845 C   0  0  0  0  0  0
   -2.6237   -0.0601    0.0002 C   0  0  0  0  0  0
   -2.8945   -1.4519    0.1178 C   0  0  0  0  0  0
   -1.8559   -2.3605    0.2083 N   0  0  0  0  0  0
   -1.3488    0.6360   -0.0470 C   0  0  0  0  0  0
   -1.3360    1.9714   -0.1632 C   0  0  0  0  0  0
   -3.0654    2.4013   -0.2189 S   0  0  0  0  0  0
   -0.0562   -0.1344    0.0343 C   0  0  0  0  0  0
    1.0686    0.8028    0.0849 N   0  0  0  0  0  0
    2.3823    0.3222    0.0449 C   0  0  0  0  0  0
    3.4531    1.2125    0.0929 C   0  0  0  0  0  0
    4.7516    0.7345    0.0532 C   0  0  0  0  0  0
    4.9871   -0.6257   -0.0341 C   0  0  0  0  0  0
    3.9238   -1.5143   -0.0826 C   0  0  0  0  0  0
    2.6208   -1.0413   -0.0369 C   0  0  0  0  0  0
    4.1587   -2.8508   -0.1693 O   0  0  0  0  0  0
    5.5775   -3.0202   -0.1908 C   0  0  0  0  0  0
    3.2225    2.5510    0.1784 O   0  0  0  0  0  0
    4.5007    3.1892    0.2092 C   0  0  0  0  0  0
   -6.4654   -1.5234    0.0860 N   0  0  0  0  0  0
   -2.0462   -3.3083    0.2883 H   0  0  0  0  0  0
   -0.9371   -2.0500    0.1918 H   0  0  0  0  0  0
   -0.4815    2.6302   -0.2113 H   0  0  0  0  0  0
   -0.0564   -0.7506    0.9334 H   0  0  0  0  0  0
    0.0421   -0.7729   -0.8437 H   0  0  0  0  0  0
    0.9028    1.7566    0.1461 H   0  0  0  0  0  0
    5.5818    1.4243    0.0901 H   0  0  0  0  0  0
    6.0011   -0.9963   -0.0650 H   0  0  0  0  0  0
    1.7928   -1.7337   -0.0746 H   0  0  0  0  0  0
    5.8156   -4.0816   -0.2601 H   0  0  0  0  0  0
    5.9928   -2.4977   -1.0525 H   0  0  0  0  0  0
    6.0062   -2.6106    0.7238 H   0  0  0  0  0  0
    4.3662    4.2687    0.2777 H   0  0  0  0  0  0
    5.0618    2.8372    1.0748 H   0  0  0  0  0  0
    5.0490    2.9484   -0.7016 H   0  0  0  0  0  0
   -6.6161   -2.4782    0.1670 H   0  0  0  0  0  0
   -7.2199   -0.9168    0.0256 H   0  0  0  0  0  0
  1  2  1  0  0  0
  1  6  2  0  0  0
  2  3  2  0  0  0
  2 23  1  0  0  0
  3  4  1  0  0  0
  4  5  2  0  0  0
  4 10  1  0  0  0
  5  6  1  0  0  0
  5  8  1  0  0  0
  6  7  1  0  0  0
  7 24  1  0  0  0
  7 25  1  0  0  0
  8  9  2  0  0  0
  8 11  1  0  0  0
  9 10  1  0  0  0
  9 26  1  0  0  0
 11 12  1  0  0  0
 11 27  1  0  0  0
 11 28  1  0  0  0
 12 13  1  0  0  0
 12 29  1  0  0  0
 13 14  1  0  0  0
 13 18  2  0  0  0
 14 15  2  0  0  0
 14 21  1  0  0  0
 15 16  1  0  0  0
 15 30  1  0  0  0
 16 17  2  0  0  0
 16 31  1  0  0  0
 17 18  1  0  0  0
 17 19  1  0  0  0
 18 32  1  0  0  0
 19 20  1  0  0  0
 20 33  1  0  0  0
 20 34  1  0  0  0
 20 35  1  0  0  0
 21 22  1  0  0  0
 22 36  1  0  0  0
 22 37  1  0  0  0
 22 38  1  0  0  0
 23 39  1  0  0  0
 23 40  1  0  0  0
M  END
>  <ACTIVITY>
3.30103

>  <set_rl>
3

>  <Min_dist>
0.2

>  <Avg_dist>
0.527423

>  <PC_uM>
>10

>  <TG_uM>
>10

>  <RL_uM>
>10

$$$$
36-7C
  Cerius2 12110214563D 1   1.00000                          
 
 47 49  0  0  0  0  0  0  0  0999 V2000
   -4.8122   -0.6275   -1.0408 N   0  0  0  0  0  0
   -5.3723   -0.6719    0.1620 C   0  0  0  0  0  0
   -4.7249   -0.2477    1.2381 N   0  0  0  0  0  0
   -3.5002    0.2307    1.1333 C   0  0  0  0  0  0
   -2.8425    0.3075   -0.1131 C   0  0  0  0  0  0
   -3.5890   -0.1624   -1.2294 C   0  0  0  0  0  0
   -3.0405   -0.1337   -2.4986 N   0  0  0  0  0  0
   -1.4985    0.8582   -0.0614 C   0  0  0  0  0  0
   -0.9930    1.2415    1.1195 C   0  0  0  0  0  0
   -2.3071    0.8851    2.2704 S   0  0  0  0  0  0
   -0.6824    0.9964   -1.3208 C   0  0  0  0  0  0
    0.6241    1.5737   -0.9952 N   0  0  0  0  0  0
    1.6973    0.7369   -0.6706 C   0  0  0  0  0  0
    2.9353    1.2843   -0.3621 C   0  0  0  0  0  0
    3.9991    0.4558   -0.0404 C   0  0  0  0  0  0
    3.8261   -0.9230   -0.0268 C   0  0  0  0  0  0
    2.5867   -1.4702   -0.3357 C   0  0  0  0  0  0
    1.5223   -0.6402   -0.6516 C   0  0  0  0  0  0
    2.4165   -2.8194   -0.3225 O   0  0  0  0  0  0
    1.0546   -3.0674   -0.6773 C   0  0  0  0  0  0
    4.8710   -1.7376    0.2887 O   0  0  0  0  0  0
    4.8340   -1.9271    1.7046 C   0  0  0  0  0  0
    5.2118    0.9921    0.2613 O   0  0  0  0  0  0
    5.0723    2.4108    0.1616 C   0  0  0  0  0  0
    0.8068    3.0271   -1.0095 C   0  0  0  0  0  0
   -6.6577   -1.1706    0.2949 N   0  0  0  0  0  0
   -3.5538   -0.4552   -3.2562 H   0  0  0  0  0  0
   -2.1424    0.2081   -2.6313 H   0  0  0  0  0  0
   -0.0209    1.6649    1.3249 H   0  0  0  0  0  0
   -0.5433    0.0145   -1.7731 H   0  0  0  0  0  0
   -1.2034    1.6487   -2.0216 H   0  0  0  0  0  0
    3.0696    2.3558   -0.3732 H   0  0  0  0  0  0
    0.5589   -1.0653   -0.8914 H   0  0  0  0  0  0
    0.8697   -4.1416   -0.6801 H   0  0  0  0  0  0
    0.3972   -2.5874    0.0476 H   0  0  0  0  0  0
    0.8583   -2.6623   -1.6700 H   0  0  0  0  0  0
    5.6561   -2.5763    2.0059 H   0  0  0  0  0  0
    4.9311   -0.9626    2.2030 H   0  0  0  0  0  0
    3.8864   -2.3871    1.9850 H   0  0  0  0  0  0
    6.0244    2.8869    0.3960 H   0  0  0  0  0  0
    4.7734    2.6761   -0.8525 H   0  0  0  0  0  0
    4.3127    2.7516    0.8651 H   0  0  0  0  0  0
   -0.1322    3.5087   -1.2826 H   0  0  0  0  0  0
    1.1137    3.3645   -0.0195 H   0  0  0  0  0  0
    1.5748    3.2897   -1.7371 H   0  0  0  0  0  0
   -7.1399   -1.4832   -0.4866 H   0  0  0  0  0  0
   -7.0757   -1.2072    1.1694 H   0  0  0  0  0  0
  1  2  1  0  0  0
  1  6  2  0  0  0
  2  3  2  0  0  0
  2 26  1  0  0  0
  3  4  1  0  0  0
  4  5  2  0  0  0
  4 10  1  0  0  0
  5  6  1  0  0  0
  5  8  1  0  0  0
  6  7  1  0  0  0
  7 27  1  0  0  0
  7 28  1  0  0  0
  8  9  2  0  0  0
  8 11  1  0  0  0
  9 10  1  0  0  0
  9 29  1  0  0  0
 11 12  1  0  0  0
 11 30  1  0  0  0
 11 31  1  0  0  0
 12 13  1  0  0  0
 12 25  1  0  0  0
 13 14  1  0  0  0
 13 18  2  0  0  0
 14 15  2  0  0  0
 14 32  1  0  0  0
 15 16  1  0  0  0
 15 23  1  0  0  0
 16 17  2  0  0  0
 16 21  1  0  0  0
 17 18  1  0  0  0
 17 19  1  0  0  0
 18 33  1  0  0  0
 19 20  1  0  0  0
 20 34  1  0  0  0
 20 35  1  0  0  0
 20 36  1  0  0  0
 21 22  1  0  0  0
 22 37  1  0  0  0
 22 38  1  0  0  0
 22 39  1  0  0  0
 23 24  1  0  0  0
 24 40  1  0  0  0
 24 41  1  0  0  0
 24 42  1  0  0  0
 25 43  1  0  0  0
 25 44  1  0  0  0
 25 45  1  0  0  0
 26 46  1  0  0  0
 26 47  1  0  0  0
M  END
>  <ACTIVITY>
3.30103

>  <set_rl>
3

>  <Min_dist>
0.142857

>  <Avg_dist>
0.529623

>  <PC_uM>
>10

>  <TG_uM>
>10

>  <RL_uM>
>10

$$$$
36-7D
  Cerius2 12110214563D 1   1.00000                          
 
 43 45  0  0  0  0  0  0  0  0999 V2000
   -3.8776   -1.9611    0.6356 N   0  0  0  0  0  0
   -4.9704   -1.2153    0.5265 C   0  0  0  0  0  0
   -4.9010    0.0570    0.1614 N   0  0  0  0  0  0
   -3.7338    0.6117   -0.1026 C   0  0  0  0  0  0
   -2.5309   -0.1205   -0.0070 C   0  0  0  0  0  0
   -2.6711   -1.4798    0.3887 C   0  0  0  0  0  0
   -1.5569   -2.2893    0.5147 N   0  0  0  0  0  0
   -1.3305    0.6324   -0.3303 C   0  0  0  0  0  0
   -1.4411    1.9207   -0.6838 C   0  0  0  0  0  0
   -3.1962    2.2244   -0.6074 S   0  0  0  0  0  0
    0.0229   -0.0275   -0.2685 C   0  0  0  0  0  0
    1.0489    0.9145   -0.7354 N   0  0  0  0  0  0
    2.2829    0.4070   -0.3133 C   0  0  0  0  0  0
    3.0932    1.1584    0.5353 C   0  0  0  0  0  0
    4.3134    0.6541    0.9514 C   0  0  0  0  0  0
    4.7288   -0.5946    0.5256 C   0  0  0  0  0  0
    3.9249   -1.3447   -0.3193 C   0  0  0  0  0  0
    2.6988   -0.8470   -0.7343 C   0  0  0  0  0  0
    4.3367   -2.5716   -0.7368 O   0  0  0  0  0  0
    5.6162   -2.8018   -0.1436 C   0  0  0  0  0  0
    2.6857    2.3873    0.9545 O   0  0  0  0  0  0
    3.7177    2.8984    1.8005 C   0  0  0  0  0  0
    1.0453    0.8494   -2.2029 C   0  0  0  0  0  0
   -6.2067   -1.7776    0.7989 N   0  0  0  0  0  0
   -1.6582   -3.2154    0.7848 H   0  0  0  0  0  0
   -0.6740   -1.9309    0.3329 H   0  0  0  0  0  0
   -0.6542    2.6107   -0.9508 H   0  0  0  0  0  0
    0.2383   -0.3192    0.7594 H   0  0  0  0  0  0
    0.0252   -0.9122   -0.9053 H   0  0  0  0  0  0
    4.9419    1.2364    1.6089 H   0  0  0  0  0  0
    5.6812   -0.9860    0.8515 H   0  0  0  0  0  0
    2.0729   -1.4314   -1.3924 H   0  0  0  0  0  0
    5.9887   -3.7789   -0.4512 H   0  0  0  0  0  0
    6.3121   -2.0287   -0.4693 H   0  0  0  0  0  0
    5.5237   -2.7735    0.9421 H   0  0  0  0  0  0
    3.4345    3.8867    2.1626 H   0  0  0  0  0  0
    3.8583    2.2275    2.6480 H   0  0  0  0  0  0
    4.6475    2.9708    1.2363 H   0  0  0  0  0  0
    1.8653    1.4509   -2.5953 H   0  0  0  0  0  0
    1.1695   -0.1857   -2.5210 H   0  0  0  0  0  0
    0.0985    1.2347   -2.5814 H   0  0  0  0  0  0
   -6.2680   -2.7079    1.0665 H   0  0  0  0  0  0
   -7.0111   -1.2410    0.7221 H   0  0  0  0  0  0
  1  2  1  0  0  0
  1  6  2  0  0  0
  2  3  2  0  0  0
  2 24  1  0  0  0
  3  4  1  0  0  0
  4  5  2  0  0  0
  4 10  1  0  0  0
  5  6  1  0  0  0
  5  8  1  0  0  0
  6  7  1  0  0  0
  7 25  1  0  0  0
  7 26  1  0  0  0
  8  9  2  0  0  0
  8 11  1  0  0  0
  9 10  1  0  0  0
  9 27  1  0  0  0
 11 12  1  0  0  0
 11 28  1  0  0  0
 11 29  1  0  0  0
 12 13  1  0  0  0
 12 23  1  0  0  0
 13 14  1  0  0  0
 13 18  2  0  0  0
 14 15  2  0  0  0
 14 21  1  0  0  0
 15 16  1  0  0  0
 15 30  1  0  0  0
 16 17  2  0  0  0
 16 31  1  0  0  0
 17 18  1  0  0  0
 17 19  1  0  0  0
 18 32  1  0  0  0
 19 20  1  0  0  0
 20 33  1  0  0  0
 20 34  1  0  0  0
 20 35  1  0  0  0
 21 22  1  0  0  0
 22 36  1  0  0  0
 22 37  1  0  0  0
 22 38  1  0  0  0
 23 39  1  0  0  0
 23 40  1  0  0  0
 23 41  1  0  0  0
 24 42  1  0  0  0
 24 43  1  0  0  0
M  END
>  <ACTIVITY>
3.30103

>  <set_rl>
3

>  <Min_dist>
0.25

>  <Avg_dist>
0.534972

>  <PC_uM>
>10

>  <TG_uM>
>10

>  <RL_uM>
>10

$$$$
36-7E
  Cerius2 12110214563D 1   1.00000                          
 
 40 43  0  0  0  0  0  0  0  0999 V2000
   -5.4342   -1.9216    0.0930 N   0  0  0  0  0  0
   -6.5168   -1.1568    0.0200 C   0  0  0  0  0  0
   -6.4221    0.1629   -0.0619 N   0  0  0  0  0  0
   -5.2394    0.7466   -0.0721 C   0  0  0  0  0  0
   -4.0461   -0.0034    0.0029 C   0  0  0  0  0  0
   -4.2135   -1.4137    0.0884 C   0  0  0  0  0  0
   -3.1107   -2.2446    0.1669 N   0  0  0  0  0  0
   -2.8261    0.7862   -0.0200 C   0  0  0  0  0  0
   -2.9118    2.1211   -0.1074 C   0  0  0  0  0  0
   -4.6680    2.4227   -0.1664 S   0  0  0  0  0  0
   -1.4803    0.1121    0.0540 C   0  0  0  0  0  0
   -0.4285    1.1288    0.1330 N   0  0  0  0  0  0
    0.9163    0.7481    0.0923 C   0  0  0  0  0  0
    1.9134    1.7120    0.1672 C   0  0  0  0  0  0
    3.2424    1.3359    0.1265 C   0  0  0  0  0  0
    3.5811   -0.0062    0.0112 C   0  0  0  0  0  0
    2.5838   -0.9702   -0.0632 C   0  0  0  0  0  0
    1.2550   -0.5944   -0.0173 C   0  0  0  0  0  0
    3.0071   -2.6476   -0.2074 Cl  0  0  0  0  0  0
    4.9319   -0.3885   -0.0306 N   0  0  0  0  0  0
    5.5523   -1.2172    0.8592 C   0  0  0  0  0  0
    6.8427   -1.3446    0.4874 C   0  0  0  0  0  0
    7.0268   -0.5672   -0.6733 C   0  0  0  0  0  0
    5.8408    0.0023   -0.9712 C   0  0  0  0  0  0
    4.4887    2.5408    0.2190 Cl  0  0  0  0  0  0
   -7.7689   -1.7489    0.0292 N   0  0  0  0  0  0
   -3.2306   -3.2054    0.2251 H   0  0  0  0  0  0
   -2.2174   -1.8666    0.1638 H   0  0  0  0  0  0
   -2.1084    2.8423   -0.1350 H   0  0  0  0  0  0
   -1.4399   -0.5221    0.9396 H   0  0  0  0  0  0
   -1.3300   -0.4978   -0.8368 H   0  0  0  0  0  0
   -0.6651    2.0660    0.2135 H   0  0  0  0  0  0
    1.6501    2.7556    0.2569 H   0  0  0  0  0  0
    0.4796   -1.3440   -0.0748 H   0  0  0  0  0  0
    5.0900   -1.6889    1.7137 H   0  0  0  0  0  0
    7.5966   -1.9343    0.9876 H   0  0  0  0  0  0
    7.9476   -0.4519   -1.2258 H   0  0  0  0  0  0
    5.6455    0.6590   -1.8060 H   0  0  0  0  0  0
   -7.8487   -2.7138    0.0885 H   0  0  0  0  0  0
   -8.5660   -1.1987   -0.0237 H   0  0  0  0  0  0
  1  2  1  0  0  0
  1  6  2  0  0  0
  2  3  2  0  0  0
  2 26  1  0  0  0
  3  4  1  0  0  0
  4  5  2  0  0  0
  4 10  1  0  0  0
  5  6  1  0  0  0
  5  8  1  0  0  0
  6  7  1  0  0  0
  7 27  1  0  0  0
  7 28  1  0  0  0
  8  9  2  0  0  0
  8 11  1  0  0  0
  9 10  1  0  0  0
  9 29  1  0  0  0
 11 12  1  0  0  0
 11 30  1  0  0  0
 11 31  1  0  0  0
 12 13  1  0  0  0
 12 32  1  0  0  0
 13 14  1  0  0  0
 13 18  2  0  0  0
 14 15  2  0  0  0
 14 33  1  0  0  0
 15 16  1  0  0  0
 15 25  1  0  0  0
 16 17  2  0  0  0
 16 20  1  0  0  0
 17 18  1  0  0  0
 17 19  1  0  0  0
 18 34  1  0  0  0
 20 21  1  0  0  0
 20 24  1  0  0  0
 21 22  2  0  0  0
 21 35  1  0  0  0
 22 23  1  0  0  0
 22 36  1  0  0  0
 23 24  2  0  0  0
 23 37  1  0  0  0
 24 38  1  0  0  0
 26 39  1  0  0  0
 26 40  1  0  0  0
M  END
>  <ACTIVITY>
3.30103

>  <set_rl>
3

>  <Min_dist>
0.221053

>  <Avg_dist>
0.559779

>  <PC_uM>
>10

>  <TG_uM>
>10

>  <RL_uM>
>10

$$$$
38-3
  Cerius2 12110214563D 1   1.00000                          
 
 31 33  0  0  0  0  0  0  0  0999 V2000
   -3.2712   -1.6622    0.0208 N   0  0  0  0  0  0
   -4.2945   -0.8354   -0.1534 C   0  0  0  0  0  0
   -4.1560    0.4800   -0.1423 N   0  0  0  0  0  0
   -2.9620    1.0358    0.0478 C   0  0  0  0  0  0
   -1.8528    0.1951    0.2361 C   0  0  0  0  0  0
   -2.0424   -1.1943    0.2173 C   0  0  0  0  0  0
   -0.9768   -2.0569    0.3992 N   0  0  0  0  0  0
   -0.7054    1.0882    0.4152 C   0  0  0  0  0  0
   -1.1881    2.3353    0.3253 C   0  0  0  0  0  0
   -2.5167    2.3019    0.1090 O   0  0  0  0  0  0
    0.7273    0.6860    0.6531 C   0  0  0  0  0  0
    1.5780    0.5087   -0.9392 S   0  0  0  0  0  0
    3.1836    0.0477   -0.3787 C   0  0  0  0  0  0
    4.1977   -0.1985   -1.2965 C   0  0  0  0  0  0
    5.4547   -0.5596   -0.8535 C   0  0  0  0  0  0
    5.7050   -0.6769    0.5016 C   0  0  0  0  0  0
    4.6981   -0.4332    1.4178 C   0  0  0  0  0  0
    3.4404   -0.0652    0.9825 C   0  0  0  0  0  0
   -5.5557   -1.3703   -0.3551 N   0  0  0  0  0  0
   -1.1212   -3.0160    0.3840 H   0  0  0  0  0  0
   -0.0851   -1.7029    0.5420 H   0  0  0  0  0  0
   -0.5978    3.2354    0.4138 H   0  0  0  0  0  0
    1.2256    1.4516    1.2479 H   0  0  0  0  0  0
    0.7542   -0.2638    1.1872 H   0  0  0  0  0  0
    4.0028   -0.1078   -2.3548 H   0  0  0  0  0  0
    6.2433   -0.7511   -1.5662 H   0  0  0  0  0  0
    6.6890   -0.9599    0.8452 H   0  0  0  0  0  0
    4.8970   -0.5261    2.4753 H   0  0  0  0  0  0
    2.6546    0.1250    1.6985 H   0  0  0  0  0  0
   -5.6782   -2.3325   -0.3670 H   0  0  0  0  0  0
   -6.3166   -0.7828   -0.4844 H   0  0  0  0  0  0
  1  2  1  0  0  0
  1  6  2  0  0  0
  2  3  2  0  0  0
  2 19  1  0  0  0
  3  4  1  0  0  0
  4  5  2  0  0  0
  4 10  1  0  0  0
  5  6  1  0  0  0
  5  8  1  0  0  0
  6  7  1  0  0  0
  7 20  1  0  0  0
  7 21  1  0  0  0
  8  9  2  0  0  0
  8 11  1  0  0  0
  9 10  1  0  0  0
  9 22  1  0  0  0
 11 12  1  0  0  0
 11 23  1  0  0  0
 11 24  1  0  0  0
 12 13  1  0  0  0
 13 14  1  0  0  0
 13 18  2  0  0  0
 14 15  2  0  0  0
 14 25  1  0  0  0
 15 16  1  0  0  0
 15 26  1  0  0  0
 16 17  2  0  0  0
 16 27  1  0  0  0
 17 18  1  0  0  0
 17 28  1  0  0  0
 18 29  1  0  0  0
 19 30  1  0  0  0
 19 31  1  0  0  0
M  END
>  <ACTIVITY>
3.5986

>  <set_rl>
3

>  <Min_dist>
0.097222

>  <Avg_dist>
0.619305

>  <PC_uM>
>26

>  <TG_uM>
>26

>  <RL_uM>
252

$$$$
38-9
  Cerius2 12110214563D 1   1.00000                          
 
 43 46  0  0  0  0  0  0  0  0999 V2000
   -5.7455    0.7140   -0.0629 N   0  0  0  0  0  0
   -6.1905   -0.5358   -0.0359 C   0  0  0  0  0  0
   -5.3787   -1.5792    0.0073 N   0  0  0  0  0  0
   -4.0586   -1.4126    0.0259 C   0  0  0  0  0  0
   -3.5470   -0.1049   -0.0015 C   0  0  0  0  0  0
   -4.4417    0.9740   -0.0472 C   0  0  0  0  0  0
   -3.9790    2.2770   -0.0758 N   0  0  0  0  0  0
   -2.0895   -0.2497    0.0286 C   0  0  0  0  0  0
   -1.8481   -1.5675    0.0697 C   0  0  0  0  0  0
   -3.0089   -2.2499    0.0680 O   0  0  0  0  0  0
   -1.0683    0.8585    0.0151 C   0  0  0  0  0  0
    0.2781    0.2824    0.0556 N   0  0  0  0  0  0
    1.3983    1.1211    0.0516 C   0  0  0  0  0  0
    1.2361    2.4982    0.0094 C   0  0  0  0  0  0
    2.3442    3.3244    0.0055 C   0  0  0  0  0  0
    3.6154    2.7820    0.0436 C   0  0  0  0  0  0
    3.7851    1.4104    0.0857 C   0  0  0  0  0  0
    2.6797    0.5754    0.0957 C   0  0  0  0  0  0
    2.8449   -0.7738    0.1377 O   0  0  0  0  0  0
    4.1791   -1.0094    0.0346 C   0  0  0  0  0  0
    4.9452   -1.1802    1.1789 C   0  0  0  0  0  0
    6.3013   -1.4201    1.0712 C   0  0  0  0  0  0
    6.8955   -1.4897   -0.1754 C   0  0  0  0  0  0
    6.1345   -1.3194   -1.3172 C   0  0  0  0  0  0
    4.7769   -1.0854   -1.2154 C   0  0  0  0  0  0
   -7.5575   -0.7562   -0.0534 N   0  0  0  0  0  0
   -4.6083    3.0145   -0.1073 H   0  0  0  0  0  0
   -3.0253    2.4533   -0.0642 H   0  0  0  0  0  0
   -0.8662   -2.0163    0.0995 H   0  0  0  0  0  0
   -1.1841    1.4482   -0.8942 H   0  0  0  0  0  0
   -1.2158    1.4990    0.8847 H   0  0  0  0  0  0
    0.3930   -0.6803    0.0851 H   0  0  0  0  0  0
    0.2443    2.9246   -0.0208 H   0  0  0  0  0  0
    2.2167    4.3963   -0.0277 H   0  0  0  0  0  0
    4.4783    3.4315    0.0400 H   0  0  0  0  0  0
    4.7795    0.9901    0.1150 H   0  0  0  0  0  0
    4.4817   -1.1253    2.1528 H   0  0  0  0  0  0
    6.8980   -1.5532    1.9615 H   0  0  0  0  0  0
    7.9560   -1.6770   -0.2574 H   0  0  0  0  0  0
    6.6011   -1.3739   -2.2897 H   0  0  0  0  0  0
    4.1830   -0.9525   -2.1076 H   0  0  0  0  0  0
   -8.1696   -0.0044   -0.0847 H   0  0  0  0  0  0
   -7.9029   -1.6624   -0.0342 H   0  0  0  0  0  0
  1  2  1  0  0  0
  1  6  2  0  0  0
  2  3  2  0  0  0
  2 26  1  0  0  0
  3  4  1  0  0  0
  4  5  2  0  0  0
  4 10  1  0  0  0
  5  6  1  0  0  0
  5  8  1  0  0  0
  6  7  1  0  0  0
  7 27  1  0  0  0
  7 28  1  0  0  0
  8  9  2  0  0  0
  8 11  1  0  0  0
  9 10  1  0  0  0
  9 29  1  0  0  0
 11 12  1  0  0  0
 11 30  1  0  0  0
 11 31  1  0  0  0
 12 13  1  0  0  0
 12 32  1  0  0  0
 13 14  1  0  0  0
 13 18  2  0  0  0
 14 15  2  0  0  0
 14 33  1  0  0  0
 15 16  1  0  0  0
 15 34  1  0  0  0
 16 17  2  0  0  0
 16 35  1  0  0  0
 17 18  1  0  0  0
 17 36  1  0  0  0
 18 19  1  0  0  0
 19 20  1  0  0  0
 20 21  1  0  0  0
 20 25  2  0  0  0
 21 22  2  0  0  0
 21 37  1  0  0  0
 22 23  1  0  0  0
 22 38  1  0  0  0
 23 24  2  0  0  0
 23 39  1  0  0  0
 24 25  1  0  0  0
 24 40  1  0  0  0
 25 41  1  0  0  0
 26 42  1  0  0  0
 26 43  1  0  0  0
M  END
>  <ACTIVITY>
3.30103

>  <set_rl>
3

>  <Min_dist>
0.157303

>  <Avg_dist>
0.554585

>  <PC_uM>
>12

>  <TG_uM>
>12

>  <RL_uM>
>12

$$$$
38-16
  Cerius2 12110214563D 1   1.00000                          
 
 36 38  0  0  0  0  0  0  0  0999 V2000
   -4.2823    1.5692    0.0005 N   0  0  0  0  0  0
   -5.1565    0.5708    0.0001 C   0  0  0  0  0  0
   -4.7860   -0.6990   -0.0004 N   0  0  0  0  0  0
   -3.4974   -1.0308   -0.0004 C   0  0  0  0  0  0
   -2.5400   -0.0032    0.0000 C   0  0  0  0  0  0
   -2.9744    1.3302    0.0004 C   0  0  0  0  0  0
   -2.0643    2.3715    0.0004 N   0  0  0  0  0  0
   -1.2383   -0.6754    0.0003 C   0  0  0  0  0  0
   -1.4993   -1.9900    0.0000 C   0  0  0  0  0  0
   -2.8299   -2.1967   -0.0004 O   0  0  0  0  0  0
    0.1193   -0.0211    0.0000 C   0  0  0  0  0  0
    1.1588   -1.0534    0.0004 N   0  0  0  0  0  0
    2.5092   -0.6865    0.0003 C   0  0  0  0  0  0
    3.4949   -1.6646    0.0007 C   0  0  0  0  0  0
    4.8274   -1.3016    0.0005 C   0  0  0  0  0  0
    5.1812    0.0395    0.0005 C   0  0  0  0  0  0
    4.1974    1.0172    0.0006 C   0  0  0  0  0  0
    2.8643    0.6559   -0.0060 C   0  0  0  0  0  0
    6.4937    0.3961    0.0008 O   0  0  0  0  0  0
    6.5335    1.8246    0.0007 C   0  0  0  0  0  0
   -6.5085    0.8698    0.0006 N   0  0  0  0  0  0
   -2.3776    3.2895    0.0007 H   0  0  0  0  0  0
   -1.1126    2.1838    0.0001 H   0  0  0  0  0  0
   -0.7518   -2.7695   -0.0002 H   0  0  0  0  0  0
    0.2235    0.5991   -0.8903 H   0  0  0  0  0  0
    0.2235    0.5998    0.8897 H   0  0  0  0  0  0
    0.9110   -1.9912    0.0008 H   0  0  0  0  0  0
    3.2195   -2.7089    0.0014 H   0  0  0  0  0  0
    5.5941   -2.0622    0.0009 H   0  0  0  0  0  0
    4.4738    2.0612    0.0009 H   0  0  0  0  0  0
    2.0984    1.4173   -0.0063 H   0  0  0  0  0  0
    7.5709    2.1591    0.0010 H   0  0  0  0  0  0
    6.0303    2.2020   -0.8895 H   0  0  0  0  0  0
    6.0298    2.2022    0.8905 H   0  0  0  0  0  0
   -6.8006    1.7948    0.0013 H   0  0  0  0  0  0
   -7.1635    0.1544    0.0003 H   0  0  0  0  0  0
  1  2  1  0  0  0
  1  6  2  0  0  0
  2  3  2  0  0  0
  2 21  1  0  0  0
  3  4  1  0  0  0
  4  5  2  0  0  0
  4 10  1  0  0  0
  5  6  1  0  0  0
  5  8  1  0  0  0
  6  7  1  0  0  0
  7 22  1  0  0  0
  7 23  1  0  0  0
  8  9  2  0  0  0
  8 11  1  0  0  0
  9 10  1  0  0  0
  9 24  1  0  0  0
 11 12  1  0  0  0
 11 25  1  0  0  0
 11 26  1  0  0  0
 12 13  1  0  0  0
 12 27  1  0  0  0
 13 14  1  0  0  0
 13 18  2  0  0  0
 14 15  2  0  0  0
 14 28  1  0  0  0
 15 16  1  0  0  0
 15 29  1  0  0  0
 16 17  2  0  0  0
 16 19  1  0  0  0
 17 18  1  0  0  0
 17 30  1  0  0  0
 18 31  1  0  0  0
 19 20  1  0  0  0
 20 32  1  0  0  0
 20 33  1  0  0  0
 20 34  1  0  0  0
 21 35  1  0  0  0
 21 36  1  0  0  0
M  END
>  <ACTIVITY>
3.30103

>  <set_rl>
3

>  <Min_dist>
0.038462

>  <Avg_dist>
0.522127

>  <PC_uM>
>31.3

>  <TG_uM>
>31.3

>  <RL_uM>
>31.3

$$$$
38-17
  Cerius2 12110214563D 1   1.00000                          
 
 43 45  0  0  0  0  0  0  0  0999 V2000
   -4.3949    1.4465   -0.8776 N   0  0  0  0  0  0
   -5.3043    0.6244   -0.3695 C   0  0  0  0  0  0
   -4.9795   -0.4686    0.3009 N   0  0  0  0  0  0
   -3.7036   -0.7923    0.4955 C   0  0  0  0  0  0
   -2.7101    0.0520   -0.0266 C   0  0  0  0  0  0
   -3.0964    1.2012   -0.7312 C   0  0  0  0  0  0
   -2.1496    2.0585   -1.2616 N   0  0  0  0  0  0
   -1.4333   -0.5617    0.3467 C   0  0  0  0  0  0
   -1.7412   -1.6727    1.0305 C   0  0  0  0  0  0
   -3.0783   -1.8062    1.1167 O   0  0  0  0  0  0
   -0.0531   -0.0484    0.0261 C   0  0  0  0  0  0
    0.9515   -0.9627    0.5853 N   0  0  0  0  0  0
    2.2045   -0.4338    0.2555 C   0  0  0  0  0  0
    3.0949   -1.1775   -0.5162 C   0  0  0  0  0  0
    4.3337   -0.6520   -0.8411 C   0  0  0  0  0  0
    4.6883    0.6102   -0.4005 C   0  0  0  0  0  0
    3.8047    1.3527    0.3680 C   0  0  0  0  0  0
    2.5599    0.8337    0.6913 C   0  0  0  0  0  0
    4.1568    2.5929    0.8004 O   0  0  0  0  0  0
    5.4744    2.8436    0.3073 C   0  0  0  0  0  0
    2.7472   -2.4197   -0.9499 O   0  0  0  0  0  0
    3.8534   -2.9184   -1.7046 C   0  0  0  0  0  0
    0.8301   -0.8805    2.0469 C   0  0  0  0  0  0
   -6.6447    0.9226   -0.5476 N   0  0  0  0  0  0
   -2.4299    2.8502   -1.7469 H   0  0  0  0  0  0
   -1.2053    1.8681   -1.1481 H   0  0  0  0  0  0
   -1.0220   -2.3603    1.4505 H   0  0  0  0  0  0
    0.0706    0.0100   -1.0553 H   0  0  0  0  0  0
    0.0759    0.9429    0.4607 H   0  0  0  0  0  0
    5.0242   -1.2284   -1.4389 H   0  0  0  0  0  0
    5.6554    1.0180   -0.6551 H   0  0  0  0  0  0
    1.8719    1.4122    1.2899 H   0  0  0  0  0  0
    5.8013    3.8320    0.6303 H   0  0  0  0  0  0
    6.1579    2.0894    0.6973 H   0  0  0  0  0  0
    5.4690    2.8006   -0.7818 H   0  0  0  0  0  0
    3.6201   -3.9168   -2.0747 H   0  0  0  0  0  0
    4.0471   -2.2546   -2.5472 H   0  0  0  0  0  0
    4.7367   -2.9642   -1.0677 H   0  0  0  0  0  0
    1.5593   -1.5452    2.5101 H   0  0  0  0  0  0
    1.0156    0.1439    2.3699 H   0  0  0  0  0  0
   -0.1748   -1.1792    2.3454 H   0  0  0  0  0  0
   -6.9036    1.7197   -1.0360 H   0  0  0  0  0  0
   -7.3249    0.3343   -0.1839 H   0  0  0  0  0  0
  1  2  1  0  0  0
  1  6  2  0  0  0
  2  3  2  0  0  0
  2 24  1  0  0  0
  3  4  1  0  0  0
  4  5  2  0  0  0
  4 10  1  0  0  0
  5  6  1  0  0  0
  5  8  1  0  0  0
  6  7  1  0  0  0
  7 25  1  0  0  0
  7 26  1  0  0  0
  8  9  2  0  0  0
  8 11  1  0  0  0
  9 10  1  0  0  0
  9 27  1  0  0  0
 11 12  1  0  0  0
 11 28  1  0  0  0
 11 29  1  0  0  0
 12 13  1  0  0  0
 12 23  1  0  0  0
 13 14  1  0  0  0
 13 18  2  0  0  0
 14 15  2  0  0  0
 14 21  1  0  0  0
 15 16  1  0  0  0
 15 30  1  0  0  0
 16 17  2  0  0  0
 16 31  1  0  0  0
 17 18  1  0  0  0
 17 19  1  0  0  0
 18 32  1  0  0  0
 19 20  1  0  0  0
 20 33  1  0  0  0
 20 34  1  0  0  0
 20 35  1  0  0  0
 21 22  1  0  0  0
 22 36  1  0  0  0
 22 37  1  0  0  0
 22 38  1  0  0  0
 23 39  1  0  0  0
 23 40  1  0  0  0
 23 41  1  0  0  0
 24 42  1  0  0  0
 24 43  1  0  0  0
M  END
>  <ACTIVITY>
3.30103

>  <set_rl>
3

>  <Min_dist>
0.202247

>  <Avg_dist>
0.535296

>  <PC_uM>
>27

>  <TG_uM>
>27

>  <RL_uM>
>27

$$$$
40-TABLE-2-4
  Cerius2 12110214563D 1   1.00000                          
 
 30 32  0  0  0  0  0  0  0  0999 V2000
   -2.5325   -2.1520   -0.0925 N   0  0  0  0  0  0
   -3.7216   -1.5626   -0.0730 C   0  0  0  0  0  0
   -3.8334   -0.2429   -0.0212 N   0  0  0  0  0  0
   -2.7549    0.5167    0.0120 C   0  0  0  0  0  0
   -1.4609   -0.0413   -0.0060 C   0  0  0  0  0  0
   -1.4058   -1.4602   -0.0618 C   0  0  0  0  0  0
   -0.1856   -2.1114   -0.0841 N   0  0  0  0  0  0
   -0.3717    0.9303    0.0349 C   0  0  0  0  0  0
   -0.6759    2.2477    0.0854 C   0  0  0  0  0  0
   -2.4583    2.2636    0.0809 S   0  0  0  0  0  0
    0.2675    3.4219    0.1342 C   0  0  0  0  0  0
    1.0409    0.4817    0.0220 C   0  0  0  0  0  0
    1.8322    0.6942   -1.1062 C   0  0  0  0  0  0
    3.1466    0.2746   -1.1130 C   0  0  0  0  0  0
    3.6801   -0.3566   -0.0022 C   0  0  0  0  0  0
    2.8986   -0.5705    1.1205 C   0  0  0  0  0  0
    1.5849   -0.1493    1.1401 C   0  0  0  0  0  0
    5.3345   -0.8821   -0.0173 Cl  0  0  0  0  0  0
   -4.8668   -2.3410   -0.1076 N   0  0  0  0  0  0
   -0.1433   -3.0677    0.0730 H   0  0  0  0  0  0
    0.6276   -1.6118   -0.2569 H   0  0  0  0  0  0
    0.4983    3.7450   -0.8809 H   0  0  0  0  0  0
   -0.2007    4.2418    0.6789 H   0  0  0  0  0  0
    1.1873    3.1282    0.6399 H   0  0  0  0  0  0
    1.4169    1.1861   -1.9734 H   0  0  0  0  0  0
    3.7602    0.4384   -1.9865 H   0  0  0  0  0  0
    3.3196   -1.0637    1.9842 H   0  0  0  0  0  0
    0.9761   -0.3167    2.0164 H   0  0  0  0  0  0
   -4.7953   -3.3076   -0.1459 H   0  0  0  0  0  0
   -5.7403   -1.9195   -0.0937 H   0  0  0  0  0  0
  1  2  1  0  0  0
  1  6  2  0  0  0
  2  3  2  0  0  0
  2 19  1  0  0  0
  3  4  1  0  0  0
  4  5  2  0  0  0
  4 10  1  0  0  0
  5  6  1  0  0  0
  5  8  1  0  0  0
  6  7  1  0  0  0
  7 20  1  0  0  0
  7 21  1  0  0  0
  8  9  2  0  0  0
  8 12  1  0  0  0
  9 10  1  0  0  0
  9 11  1  0  0  0
 11 22  1  0  0  0
 11 23  1  0  0  0
 11 24  1  0  0  0
 12 13  1  0  0  0
 12 17  2  0  0  0
 13 14  2  0  0  0
 13 25  1  0  0  0
 14 15  1  0  0  0
 14 26  1  0  0  0
 15 16  2  0  0  0
 15 18  1  0  0  0
 16 17  1  0  0  0
 16 27  1  0  0  0
 17 28  1  0  0  0
 19 29  1  0  0  0
 19 30  1  0  0  0
M  END
>  <ACTIVITY>
3.30103

>  <set_rl>
3

>  <Min_dist>
0.115942

>  <Avg_dist>
0.644983

>  <PC_uM>
>100

>  <TG_uM>
>70

>  <RL_uM>
>100

$$$$
40-TABLE-2-5
  Cerius2 12110214563D 1   1.00000                          
 
 33 35  0  0  0  0  0  0  0  0999 V2000
   -2.6032    1.6886   -0.3225 N   0  0  0  0  0  0
   -3.4604    0.9376    0.3584 C   0  0  0  0  0  0
   -3.1674   -0.3118    0.6901 N   0  0  0  0  0  0
   -2.0077   -0.8379    0.3462 C   0  0  0  0  0  0
   -1.0483   -0.0986   -0.3785 C   0  0  0  0  0  0
   -1.4212    1.2353   -0.7040 C   0  0  0  0  0  0
   -0.5565    2.0491   -1.4130 N   0  0  0  0  0  0
    0.1775   -0.8189   -0.6799 C   0  0  0  0  0  0
    0.3103   -2.0870   -0.2661 C   0  0  0  0  0  0
   -1.2279   -2.4142    0.5739 S   0  0  0  0  0  0
    1.4808   -3.0152   -0.4642 C   0  0  0  0  0  0
    1.2862   -0.1481   -1.4492 C   0  0  0  0  0  0
    2.3132    0.3883   -0.4854 C   0  0  0  0  0  0
    3.4594   -0.3381   -0.2217 C   0  0  0  0  0  0
    4.4013    0.1539    0.6623 C   0  0  0  0  0  0
    4.1973    1.3724    1.2824 C   0  0  0  0  0  0
    3.0515    2.0992    1.0180 C   0  0  0  0  0  0
    2.1116    1.6092    0.1307 C   0  0  0  0  0  0
   -4.6841    1.4700    0.7298 N   0  0  0  0  0  0
   -0.9076    2.7640   -1.9667 H   0  0  0  0  0  0
    0.4011    1.9051   -1.3566 H   0  0  0  0  0  0
    2.1746   -2.9082    0.3697 H   0  0  0  0  0  0
    1.1246   -4.0443   -0.5107 H   0  0  0  0  0  0
    1.9899   -2.7645   -1.3948 H   0  0  0  0  0  0
    1.7560   -0.8719   -2.1150 H   0  0  0  0  0  0
    0.8756    0.6731   -2.0367 H   0  0  0  0  0  0
    3.6188   -1.2901   -0.7062 H   0  0  0  0  0  0
    5.2965   -0.4139    0.8688 H   0  0  0  0  0  0
    4.9329    1.7564    1.9736 H   0  0  0  0  0  0
    2.8920    3.0510    1.5027 H   0  0  0  0  0  0
    1.2164    2.1770   -0.0759 H   0  0  0  0  0  0
   -4.9078    2.3835    0.4921 H   0  0  0  0  0  0
   -5.3172    0.9294    1.2275 H   0  0  0  0  0  0
  1  2  1  0  0  0
  1  6  2  0  0  0
  2  3  2  0  0  0
  2 19  1  0  0  0
  3  4  1  0  0  0
  4  5  2  0  0  0
  4 10  1  0  0  0
  5  6  1  0  0  0
  5  8  1  0  0  0
  6  7  1  0  0  0
  7 20  1  0  0  0
  7 21  1  0  0  0
  8  9  2  0  0  0
  8 12  1  0  0  0
  9 10  1  0  0  0
  9 11  1  0  0  0
 11 22  1  0  0  0
 11 23  1  0  0  0
 11 24  1  0  0  0
 12 13  1  0  0  0
 12 25  1  0  0  0
 12 26  1  0  0  0
 13 14  1  0  0  0
 13 18  2  0  0  0
 14 15  2  0  0  0
 14 27  1  0  0  0
 15 16  1  0  0  0
 15 28  1  0  0  0
 16 17  2  0  0  0
 16 29  1  0  0  0
 17 18  1  0  0  0
 17 30  1  0  0  0
 18 31  1  0  0  0
 19 32  1  0  0  0
 19 33  1  0  0  0
M  END
>  <ACTIVITY>
3.30103

>  <set_rl>
3

>  <Min_dist>
0.057143

>  <Avg_dist>
0.619215

>  <PC_uM>
>100

>  <TG_uM>
>100

>  <RL_uM>
>37

$$$$
36-6D
  Cerius2 12110214563D 1   1.00000                          
 
 43 45  0  0  0  0  0  0  0  0999 V2000
   -2.6318    3.0015    0.6097 N   0  0  0  0  0  0
   -3.9122    2.7300    0.3886 C   0  0  0  0  0  0
   -4.3208    1.4927    0.1454 N   0  0  0  0  0  0
   -3.4545    0.4984    0.1178 C   0  0  0  0  0  0
   -2.0780    0.7131    0.3434 C   0  0  0  0  0  0
   -1.7022    2.0612    0.5991 C   0  0  0  0  0  0
   -0.3780    2.3850    0.8334 N   0  0  0  0  0  0
   -1.2546   -0.4830    0.2795 C   0  0  0  0  0  0
   -1.8353   -1.6643    0.0206 C   0  0  0  0  0  0
   -3.5599   -1.2499   -0.1595 S   0  0  0  0  0  0
   -1.0188   -3.3641   -0.1205 Br  0  0  0  0  0  0
    0.2336   -0.3971    0.5010 C   0  0  0  0  0  0
    0.8918    0.0098   -0.7476 N   0  0  0  0  0  0
    2.2082    0.3498   -0.4160 C   0  0  0  0  0  0
    2.6800    1.6374   -0.6632 C   0  0  0  0  0  0
    3.9825    1.9712   -0.3343 C   0  0  0  0  0  0
    4.8159    1.0280    0.2393 C   0  0  0  0  0  0
    4.3497   -0.2543    0.4862 C   0  0  0  0  0  0
    3.0438   -0.5924    0.1643 C   0  0  0  0  0  0
    5.1719   -1.1794    1.0493 O   0  0  0  0  0  0
    6.4297   -0.5367    1.2661 C   0  0  0  0  0  0
    1.8609    2.5660   -1.2279 O   0  0  0  0  0  0
    2.6231    3.7684   -1.3515 C   0  0  0  0  0  0
    0.9659   -1.1876   -1.5954 C   0  0  0  0  0  0
   -4.8392    3.7594    0.4129 N   0  0  0  0  0  0
   -0.1532    3.2214    1.2702 H   0  0  0  0  0  0
    0.3258    1.7758    0.5608 H   0  0  0  0  0  0
    0.4434    0.3375    1.2785 H   0  0  0  0  0  0
    0.6118   -1.3715    0.8103 H   0  0  0  0  0  0
    4.3485    2.9690   -0.5260 H   0  0  0  0  0  0
    5.8318    1.2908    0.4951 H   0  0  0  0  0  0
    2.6809   -1.5913    0.3567 H   0  0  0  0  0  0
    7.1255   -1.2432    1.7187 H   0  0  0  0  0  0
    6.8306   -0.1920    0.3129 H   0  0  0  0  0  0
    6.2924    0.3153    1.9319 H   0  0  0  0  0  0
    2.0053    4.5455   -1.8015 H   0  0  0  0  0  0
    2.9529    4.0926   -0.3644 H   0  0  0  0  0  0
    3.4924    3.5843   -1.9827 H   0  0  0  0  0  0
    1.5306   -0.9585   -2.4991 H   0  0  0  0  0  0
    1.4633   -1.9892   -1.0494 H   0  0  0  0  0  0
   -0.0414   -1.5035   -1.8668 H   0  0  0  0  0  0
   -4.5502    4.6682    0.5903 H   0  0  0  0  0  0
   -5.7772    3.5712    0.2525 H   0  0  0  0  0  0
  1  2  1  0  0  0
  1  6  2  0  0  0
  2  3  2  0  0  0
  2 25  1  0  0  0
  3  4  1  0  0  0
  4  5  2  0  0  0
  4 10  1  0  0  0
  5  6  1  0  0  0
  5  8  1  0  0  0
  6  7  1  0  0  0
  7 26  1  0  0  0
  7 27  1  0  0  0
  8  9  2  0  0  0
  8 12  1  0  0  0
  9 10  1  0  0  0
  9 11  1  0  0  0
 12 13  1  0  0  0
 12 28  1  0  0  0
 12 29  1  0  0  0
 13 14  1  0  0  0
 13 24  1  0  0  0
 14 15  1  0  0  0
 14 19  2  0  0  0
 15 16  2  0  0  0
 15 22  1  0  0  0
 16 17  1  0  0  0
 16 30  1  0  0  0
 17 18  2  0  0  0
 17 31  1  0  0  0
 18 19  1  0  0  0
 18 20  1  0  0  0
 19 32  1  0  0  0
 20 21  1  0  0  0
 21 33  1  0  0  0
 21 34  1  0  0  0
 21 35  1  0  0  0
 22 23  1  0  0  0
 23 36  1  0  0  0
 23 37  1  0  0  0
 23 38  1  0  0  0
 24 39  1  0  0  0
 24 40  1  0  0  0
 24 41  1  0  0  0
 25 42  1  0  0  0
 25 43  1  0  0  0
M  END
>  <ACTIVITY>
3.30103

>  <set_rl>
3

>  <Min_dist>
0.174757

>  <Avg_dist>
0.551858

>  <PC_uM>
>10

>  <TG_uM>
>10

>  <RL_uM>
>10

$$$$
41-4C
  Cerius2 12110214563D 1   1.00000                          
 
 43 47  0  0  0  0  0  0  0  0999 V2000
   -5.7788    0.8581    0.0012 N   0  0  0  0  0  0
   -6.2936   -0.3649    0.0002 C   0  0  0  0  0  0
   -5.5417   -1.4532   -0.0010 N   0  0  0  0  0  0
   -4.2142   -1.3617   -0.0011 C   0  0  0  0  0  0
   -3.6297   -0.0846    0.0000 C   0  0  0  0  0  0
   -4.4623    1.0438    0.0012 C   0  0  0  0  0  0
   -3.9270    2.3189    0.0018 N   0  0  0  0  0  0
   -2.1824   -0.3121    0.0000 C   0  0  0  0  0  0
   -2.0156   -1.6419   -0.0010 C   0  0  0  0  0  0
   -3.2131   -2.2576   -0.0017 O   0  0  0  0  0  0
   -1.1004    0.7369    0.0002 C   0  0  0  0  0  0
    0.2116    0.0850    0.0002 N   0  0  0  0  0  0
    1.3754    0.8577    0.0003 C   0  0  0  0  0  0
    2.6170    0.2424    0.0003 C   0  0  0  0  0  0
    3.7782    1.0079    0.0000 C   0  0  0  0  0  0
    3.6807    2.4013   -0.0003 C   0  0  0  0  0  0
    2.4420    3.0087    0.0003 C   0  0  0  0  0  0
    1.2900    2.2452   -0.0052 C   0  0  0  0  0  0
    4.9610    0.1116    0.0004 C   0  0  0  0  0  0
    4.5375   -1.2149    0.0011 C   0  0  0  0  0  0
    5.4598   -2.2393    0.0009 C   0  0  0  0  0  0
    6.8137   -1.9526    0.0001 C   0  0  0  0  0  0
    7.2441   -0.6383   -0.0001 C   0  0  0  0  0  0
    6.3280    0.3933    0.0003 C   0  0  0  0  0  0
    3.0284   -1.2094    0.0010 C   0  0  0  0  0  0
   -7.6709   -0.5075    0.0007 N   0  0  0  0  0  0
   -4.5138    3.0913    0.0026 H   0  0  0  0  0  0
   -2.9647    2.4409    0.0014 H   0  0  0  0  0  0
   -1.0604   -2.1460   -0.0016 H   0  0  0  0  0  0
   -1.1971    1.3589   -0.8896 H   0  0  0  0  0  0
   -1.1972    1.3585    0.8903 H   0  0  0  0  0  0
    0.2722   -0.8831    0.0000 H   0  0  0  0  0  0
    4.5767    3.0042   -0.0005 H   0  0  0  0  0  0
    2.3722    4.0864    0.0005 H   0  0  0  0  0  0
    0.3232    2.7266   -0.0051 H   0  0  0  0  0  0
    5.1256   -3.2664    0.0018 H   0  0  0  0  0  0
    7.5351   -2.7563    0.0001 H   0  0  0  0  0  0
    8.3016   -0.4186   -0.0004 H   0  0  0  0  0  0
    6.6684    1.4183    0.0004 H   0  0  0  0  0  0
    2.6512   -1.7060    0.8950 H   0  0  0  0  0  0
    2.6513   -1.7068   -0.8926 H   0  0  0  0  0  0
   -8.2398    0.2782    0.0019 H   0  0  0  0  0  0
   -8.0669   -1.3930    0.0000 H   0  0  0  0  0  0
  1  2  1  0  0  0
  1  6  2  0  0  0
  2  3  2  0  0  0
  2 26  1  0  0  0
  3  4  1  0  0  0
  4  5  2  0  0  0
  4 10  1  0  0  0
  5  6  1  0  0  0
  5  8  1  0  0  0
  6  7  1  0  0  0
  7 27  1  0  0  0
  7 28  1  0  0  0
  8  9  2  0  0  0
  8 11  1  0  0  0
  9 10  1  0  0  0
  9 29  1  0  0  0
 11 12  1  0  0  0
 11 30  1  0  0  0
 11 31  1  0  0  0
 12 13  1  0  0  0
 12 32  1  0  0  0
 13 14  1  0  0  0
 13 18  2  0  0  0
 14 15  2  0  0  0
 14 25  1  0  0  0
 15 16  1  0  0  0
 15 19  1  0  0  0
 16 17  2  0  0  0
 16 33  1  0  0  0
 17 18  1  0  0  0
 17 34  1  0  0  0
 18 35  1  0  0  0
 19 20  1  0  0  0
 19 24  2  0  0  0
 20 21  2  0  0  0
 20 25  1  0  0  0
 21 22  1  0  0  0
 21 36  1  0  0  0
 22 23  2  0  0  0
 22 37  1  0  0  0
 23 24  1  0  0  0
 23 38  1  0  0  0
 24 39  1  0  0  0
 25 40  1  0  0  0
 25 41  1  0  0  0
 26 42  1  0  0  0
 26 43  1  0  0  0
M  END
>  <ACTIVITY>
3.30103

>  <set_rl>
3

>  <Min_dist>
0.060241

>  <Avg_dist>
0.585026

>  <PC_uM>
>29

>  <TG_uM>
>29

>  <RL_uM>
>29

$$$$
41-4G
  Cerius2 12110214563D 1   1.00000                          
 
 44 48  0  0  0  0  0  0  0  0999 V2000
   -6.0415    1.4844    0.1154 N   0  0  0  0  0  0
   -6.8494    0.4337    0.0494 C   0  0  0  0  0  0
   -6.3977   -0.8061   -0.0432 N   0  0  0  0  0  0
   -5.0904   -1.0524   -0.0743 C   0  0  0  0  0  0
   -4.2015    0.0329   -0.0067 C   0  0  0  0  0  0
   -4.7210    1.3318    0.0908 C   0  0  0  0  0  0
   -3.8801    2.4276    0.1592 N   0  0  0  0  0  0
   -2.8592   -0.5514   -0.0616 C   0  0  0  0  0  0
   -3.0347   -1.8770   -0.1535 C   0  0  0  0  0  0
   -4.3491   -2.1694   -0.1608 O   0  0  0  0  0  0
   -1.5467    0.1883   -0.0235 C   0  0  0  0  0  0
   -0.4427   -0.7715   -0.1023 N   0  0  0  0  0  0
    0.8775   -0.3195   -0.0844 C   0  0  0  0  0  0
    1.9262   -1.2301   -0.1591 C   0  0  0  0  0  0
    3.2284   -0.7829   -0.1418 C   0  0  0  0  0  0
    3.5041    0.5797   -0.0497 C   0  0  0  0  0  0
    2.4482    1.4909    0.0249 C   0  0  0  0  0  0
    1.1458    1.0416    0.0024 C   0  0  0  0  0  0
    4.9732    0.7870   -0.0502 C   0  0  0  0  0  0
    5.6157   -0.4451   -0.1424 C   0  0  0  0  0  0
    6.9925   -0.5115   -0.1610 C   0  0  0  0  0  0
    7.7432    0.6488   -0.0873 C   0  0  0  0  0  0
    7.1143    1.8771    0.0050 C   0  0  0  0  0  0
    5.7369    1.9533    0.0233 C   0  0  0  0  0  0
    4.5491   -1.5106   -0.2059 C   0  0  0  0  0  0
    4.6752   -2.3999    0.9056 O   0  0  0  0  0  0
   -8.2178    0.6432    0.0790 N   0  0  0  0  0  0
   -4.2521    3.3209    0.2264 H   0  0  0  0  0  0
   -2.9184    2.3028    0.1400 H   0  0  0  0  0  0
   -2.2384   -2.6042   -0.2133 H   0  0  0  0  0  0
   -1.4921    0.8751   -0.8681 H   0  0  0  0  0  0
   -1.4735    0.7506    0.9074 H   0  0  0  0  0  0
   -0.6294   -1.7212   -0.1669 H   0  0  0  0  0  0
    1.7192   -2.2877   -0.2304 H   0  0  0  0  0  0
    2.6527    2.5489    0.0969 H   0  0  0  0  0  0
    0.3312    1.7484    0.0599 H   0  0  0  0  0  0
    7.4856   -1.4697   -0.2326 H   0  0  0  0  0  0
    8.8218    0.5950   -0.1016 H   0  0  0  0  0  0
    7.7038    2.7803    0.0626 H   0  0  0  0  0  0
    5.2498    2.9145    0.0955 H   0  0  0  0  0  0
    4.6273   -2.0647   -1.1413 H   0  0  0  0  0  0
    5.5457   -2.8150    0.8340 H   0  0  0  0  0  0
   -8.5691    1.5449    0.1469 H   0  0  0  0  0  0
   -8.8252   -0.1116    0.0319 H   0  0  0  0  0  0
  1  2  1  0  0  0
  1  6  2  0  0  0
  2  3  2  0  0  0
  2 27  1  0  0  0
  3  4  1  0  0  0
  4  5  2  0  0  0
  4 10  1  0  0  0
  5  6  1  0  0  0
  5  8  1  0  0  0
  6  7  1  0  0  0
  7 28  1  0  0  0
  7 29  1  0  0  0
  8  9  2  0  0  0
  8 11  1  0  0  0
  9 10  1  0  0  0
  9 30  1  0  0  0
 11 12  1  0  0  0
 11 31  1  0  0  0
 11 32  1  0  0  0
 12 13  1  0  0  0
 12 33  1  0  0  0
 13 14  1  0  0  0
 13 18  2  0  0  0
 14 15  2  0  0  0
 14 34  1  0  0  0
 15 16  1  0  0  0
 15 25  1  0  0  0
 16 17  2  0  0  0
 16 19  1  0  0  0
 17 18  1  0  0  0
 17 35  1  0  0  0
 18 36  1  0  0  0
 19 20  1  0  0  0
 19 24  2  0  0  0
 20 21  2  0  0  0
 20 25  1  0  0  0
 21 22  1  0  0  0
 21 37  1  0  0  0
 22 23  2  0  0  0
 22 38  1  0  0  0
 23 24  1  0  0  0
 23 39  1  0  0  0
 24 40  1  0  0  0
 25 26  1  0  0  0
 25 41  1  0  0  0
 26 42  1  0  0  0
 27 43  1  0  0  0
 27 44  1  0  0  0
M  END
>  <ACTIVITY>
3.30103

>  <set_rl>
3

>  <Min_dist>
0.103448

>  <Avg_dist>
0.581341

>  <PC_uM>
>13

>  <TG_uM>
63

>  <RL_uM>
>13

$$$$
41-4H
  Cerius2 12110214563D 1   1.00000                          
 
 42 46  0  0  0  0  0  0  0  0999 V2000
   -6.0180    1.4857    0.0009 N   0  0  0  0  0  0
   -6.8243    0.4317    0.0002 C   0  0  0  0  0  0
   -6.3707   -0.8108   -0.0006 N   0  0  0  0  0  0
   -5.0630   -1.0567   -0.0007 C   0  0  0  0  0  0
   -4.1756    0.0320    0.0000 C   0  0  0  0  0  0
   -4.6972    1.3337    0.0008 C   0  0  0  0  0  0
   -3.8579    2.4329    0.0011 N   0  0  0  0  0  0
   -2.8323   -0.5527    0.0001 C   0  0  0  0  0  0
   -3.0059   -1.8817   -0.0005 C   0  0  0  0  0  0
   -4.3199   -2.1759   -0.0010 O   0  0  0  0  0  0
   -1.5210    0.1899    0.0001 C   0  0  0  0  0  0
   -0.4155   -0.7714    0.0002 N   0  0  0  0  0  0
    0.9039   -0.3174    0.0002 C   0  0  0  0  0  0
    1.9547   -1.2323    0.0004 C   0  0  0  0  0  0
    3.2662   -0.7771    0.0004 C   0  0  0  0  0  0
    3.5303    0.6031    0.0001 C   0  0  0  0  0  0
    2.4737    1.5044    0.0000 C   0  0  0  0  0  0
    1.1680    1.0448   -0.0057 C   0  0  0  0  0  0
    5.0022    0.8043    0.0001 C   0  0  0  0  0  0
    5.6281   -0.4540    0.0004 C   0  0  0  0  0  0
    7.0158   -0.5374    0.0005 C   0  0  0  0  0  0
    7.7765    0.6198    0.0003 C   0  0  0  0  0  0
    7.1619    1.8571    0.0005 C   0  0  0  0  0  0
    5.7794    1.9544   -0.0005 C   0  0  0  0  0  0
    4.5675   -1.4881    0.0005 C   0  0  0  0  0  0
    4.7325   -2.6911    0.0007 O   0  0  0  0  0  0
   -8.1931    0.6408    0.0008 N   0  0  0  0  0  0
   -4.2312    3.3282    0.0016 H   0  0  0  0  0  0
   -2.8959    2.3086    0.0007 H   0  0  0  0  0  0
   -2.2084   -2.6101   -0.0009 H   0  0  0  0  0  0
   -1.4580    0.8159   -0.8900 H   0  0  0  0  0  0
   -1.4580    0.8162    0.8900 H   0  0  0  0  0  0
   -0.6007   -1.7236    0.0004 H   0  0  0  0  0  0
    1.7496   -2.2927    0.0009 H   0  0  0  0  0  0
    2.6713    2.5661    0.0002 H   0  0  0  0  0  0
    0.3503    1.7504   -0.0061 H   0  0  0  0  0  0
    7.4997   -1.5030    0.0011 H   0  0  0  0  0  0
    8.8545    0.5547    0.0004 H   0  0  0  0  0  0
    7.7628    2.7545    0.0007 H   0  0  0  0  0  0
    5.3067    2.9255   -0.0007 H   0  0  0  0  0  0
   -8.5458    1.5444    0.0017 H   0  0  0  0  0  0
   -8.7994   -0.1165    0.0003 H   0  0  0  0  0  0
  1  2  1  0  0  0
  1  6  2  0  0  0
  2  3  2  0  0  0
  2 27  1  0  0  0
  3  4  1  0  0  0
  4  5  2  0  0  0
  4 10  1  0  0  0
  5  6  1  0  0  0
  5  8  1  0  0  0
  6  7  1  0  0  0
  7 28  1  0  0  0
  7 29  1  0  0  0
  8  9  2  0  0  0
  8 11  1  0  0  0
  9 10  1  0  0  0
  9 30  1  0  0  0
 11 12  1  0  0  0
 11 31  1  0  0  0
 11 32  1  0  0  0
 12 13  1  0  0  0
 12 33  1  0  0  0
 13 14  1  0  0  0
 13 18  2  0  0  0
 14 15  2  0  0  0
 14 34  1  0  0  0
 15 16  1  0  0  0
 15 25  1  0  0  0
 16 17  2  0  0  0
 16 19  1  0  0  0
 17 18  1  0  0  0
 17 35  1  0  0  0
 18 36  1  0  0  0
 19 20  1  0  0  0
 19 24  2  0  0  0
 20 21  2  0  0  0
 20 25  1  0  0  0
 21 22  1  0  0  0
 21 37  1  0  0  0
 22 23  2  0  0  0
 22 38  1  0  0  0
 23 24  1  0  0  0
 23 39  1  0  0  0
 24 40  1  0  0  0
 25 26  2  0  0  0
 27 41  1  0  0  0
 27 42  1  0  0  0
M  END
>  <ACTIVITY>
3.30103

>  <set_rl>
3

>  <Min_dist>
0.123595

>  <Avg_dist>
0.585415

>  <PC_uM>
>63

>  <TG_uM>
>63

>  <RL_uM>
>63

$$$$
41-5A
  Cerius2 12110214563D 1   1.00000                          
 
 48 52  0  0  0  0  0  0  0  0999 V2000
   -5.2684   -1.9148    0.8984 N   0  0  0  0  0  0
   -6.3082   -1.2159    0.4608 C   0  0  0  0  0  0
   -6.1743   -0.0603   -0.1688 N   0  0  0  0  0  0
   -4.9683    0.4560   -0.3920 C   0  0  0  0  0  0
   -3.8416   -0.2530    0.0556 C   0  0  0  0  0  0
   -4.0268   -1.4746    0.7189 C   0  0  0  0  0  0
   -2.9440   -2.2036    1.1758 N   0  0  0  0  0  0
   -2.6845    0.5574   -0.3325 C   0  0  0  0  0  0
   -3.1791    1.6377   -0.9528 C   0  0  0  0  0  0
   -4.5238    1.5757   -0.9865 O   0  0  0  0  0  0
   -1.2322    0.2409   -0.0840 C   0  0  0  0  0  0
   -0.3957    1.3157   -0.6343 N   0  0  0  0  0  0
    0.9330    0.9647   -0.3730 C   0  0  0  0  0  0
    1.4467   -0.2142   -0.8861 C   0  0  0  0  0  0
    2.7653   -0.5689   -0.6311 C   0  0  0  0  0  0
    3.5651    0.2780    0.1486 C   0  0  0  0  0  0
    3.0452    1.4627    0.6629 C   0  0  0  0  0  0
    1.7342    1.8082    0.3986 C   0  0  0  0  0  0
    1.2211    2.9651    0.8985 O   0  0  0  0  0  0
    2.2668    3.5931    1.6429 C   0  0  0  0  0  0
    4.8845   -0.3779    0.2260 C   0  0  0  0  0  0
    4.7640   -1.5625   -0.5138 C   0  0  0  0  0  0
    3.5057   -1.6384   -1.0006 O   0  0  0  0  0  0
    5.8627   -2.4062   -0.6246 C   0  0  0  0  0  0
    7.0529   -2.0758   -0.0113 C   0  0  0  0  0  0
    7.1688   -0.9042    0.7198 C   0  0  0  0  0  0
    6.0897   -0.0539    0.8402 C   0  0  0  0  0  0
   -0.5636    1.2764   -2.0931 C   0  0  0  0  0  0
   -7.5822   -1.7158    0.6709 N   0  0  0  0  0  0
   -3.0855   -3.0472    1.6332 H   0  0  0  0  0  0
   -2.0430   -1.8713    1.0388 H   0  0  0  0  0  0
   -2.5859    2.4407   -1.3649 H   0  0  0  0  0  0
   -1.0571    0.1571    0.9886 H   0  0  0  0  0  0
   -0.9778   -0.7018   -0.5684 H   0  0  0  0  0  0
    0.8211   -0.8592   -1.4853 H   0  0  0  0  0  0
    3.6660    2.1113    1.2630 H   0  0  0  0  0  0
    1.9009    4.5291    2.0648 H   0  0  0  0  0  0
    2.5870    2.9321    2.4483 H   0  0  0  0  0  0
    3.1103    3.7971    0.9833 H   0  0  0  0  0  0
    5.7842   -3.3221   -1.1914 H   0  0  0  0  0  0
    7.9026   -2.7364   -0.1013 H   0  0  0  0  0  0
    8.1059   -0.6566    1.1962 H   0  0  0  0  0  0
    6.1798    0.8594    1.4096 H   0  0  0  0  0  0
    0.0411    2.0599   -2.5497 H   0  0  0  0  0  0
   -0.2438    0.3048   -2.4696 H   0  0  0  0  0  0
   -1.6127    1.4353   -2.3425 H   0  0  0  0  0  0
   -7.7017   -2.5617    1.1304 H   0  0  0  0  0  0
   -8.3553   -1.2201    0.3587 H   0  0  0  0  0  0
  1  2  1  0  0  0
  1  6  2  0  0  0
  2  3  2  0  0  0
  2 29  1  0  0  0
  3  4  1  0  0  0
  4  5  2  0  0  0
  4 10  1  0  0  0
  5  6  1  0  0  0
  5  8  1  0  0  0
  6  7  1  0  0  0
  7 30  1  0  0  0
  7 31  1  0  0  0
  8  9  2  0  0  0
  8 11  1  0  0  0
  9 10  1  0  0  0
  9 32  1  0  0  0
 11 12  1  0  0  0
 11 33  1  0  0  0
 11 34  1  0  0  0
 12 13  1  0  0  0
 12 28  1  0  0  0
 13 14  1  0  0  0
 13 18  2  0  0  0
 14 15  2  0  0  0
 14 35  1  0  0  0
 15 16  1  0  0  0
 15 23  1  0  0  0
 16 17  2  0  0  0
 16 21  1  0  0  0
 17 18  1  0  0  0
 17 36  1  0  0  0
 18 19  1  0  0  0
 19 20  1  0  0  0
 20 37  1  0  0  0
 20 38  1  0  0  0
 20 39  1  0  0  0
 21 22  2  0  0  0
 21 27  1  0  0  0
 22 23  1  0  0  0
 22 24  1  0  0  0
 24 25  2  0  0  0
 24 40  1  0  0  0
 25 26  1  0  0  0
 25 41  1  0  0  0
 26 27  2  0  0  0
 26 42  1  0  0  0
 27 43  1  0  0  0
 28 44  1  0  0  0
 28 45  1  0  0  0
 28 46  1  0  0  0
 29 47  1  0  0  0
 29 48  1  0  0  0
M  END
>  <ACTIVITY>
3.61798

>  <set_rl>
3

>  <Min_dist>
0.174419

>  <Avg_dist>
0.55674

>  <PC_uM>
>54

>  <TG_uM>
392

>  <RL_uM>
241

$$$$
42-9
  Cerius2 12110214563D 1   1.00000                          
 
 31 33  0  0  0  0  0  0  0  0999 V2000
   -3.3558   -1.2327    1.4686 N   0  0  0  0  0  0
   -4.0136   -1.6005    0.3320 C   0  0  0  0  0  0
   -3.7847   -1.0234   -0.8252 N   0  0  0  0  0  0
   -2.8842   -0.0358   -0.9432 C   0  0  0  0  0  0
   -2.1778    0.3834    0.1936 C   0  0  0  0  0  0
   -1.2842    1.4571   -0.2474 C   0  0  0  0  0  0
   -1.4956    1.6159   -1.5702 C   0  0  0  0  0  0
   -2.4554    0.7216   -1.9926 N   0  0  0  0  0  0
   -2.7789    0.6427   -2.9036 H   0  0  0  0  0  0
   -0.7914    2.6166   -2.4499 C   0  0  0  0  0  0
   -0.1545    2.3648    0.7548 S   0  0  0  0  0  0
    1.2795    1.3539    0.5918 C   0  0  0  0  0  0
    2.4568    1.7055    1.2419 C   0  0  0  0  0  0
    3.5791    0.9118    1.1126 C   0  0  0  0  0  0
    3.5334   -0.2334    0.3367 C   0  0  0  0  0  0
    2.3622   -0.5866   -0.3128 C   0  0  0  0  0  0
    1.2339    0.2008   -0.1820 C   0  0  0  0  0  0
    2.3094   -2.0231   -1.2860 Cl  0  0  0  0  0  0
    4.9468   -1.2286    0.1768 Cl  0  0  0  0  0  0
   -2.4332   -0.2449    1.4307 C   0  0  0  0  0  0
   -1.8381    0.0942    2.4392 O   0  0  0  0  0  0
   -4.9447   -2.6066    0.3996 N   0  0  0  0  0  0
   -3.5532   -1.6782    2.3073 H   0  0  0  0  0  0
    0.1114    2.1660   -2.8622 H   0  0  0  0  0  0
   -1.4530    2.9141   -3.2635 H   0  0  0  0  0  0
   -0.5233    3.4933   -1.8604 H   0  0  0  0  0  0
    2.4937    2.5990    1.8473 H   0  0  0  0  0  0
    4.4940    1.1850    1.6174 H   0  0  0  0  0  0
    0.3207   -0.0746   -0.6885 H   0  0  0  0  0  0
   -5.4216   -2.8805   -0.3994 H   0  0  0  0  0  0
   -5.1257   -3.0437    1.2464 H   0  0  0  0  0  0
  1  2  1  0  0  0
  1 20  1  0  0  0
  1 23  1  0  0  0
  2  3  2  0  0  0
  2 22  1  0  0  0
  3  4  1  0  0  0
  4  5  2  0  0  0
  4  8  1  0  0  0
  5  6  1  0  0  0
  5 20  1  0  0  0
  6  7  2  0  0  0
  6 11  1  0  0  0
  7  8  1  0  0  0
  7 10  1  0  0  0
  8  9  1  0  0  0
 10 24  1  0  0  0
 10 25  1  0  0  0
 10 26  1  0  0  0
 11 12  1  0  0  0
 12 13  1  0  0  0
 12 17  2  0  0  0
 13 14  2  0  0  0
 13 27  1  0  0  0
 14 15  1  0  0  0
 14 28  1  0  0  0
 15 16  2  0  0  0
 15 19  1  0  0  0
 16 17  1  0  0  0
 16 18  1  0  0  0
 17 29  1  0  0  0
 20 21  2  0  0  0
 22 30  1  0  0  0
 22 31  1  0  0  0
M  END
>  <ACTIVITY>
3.30103

>  <set_rl>
3

>  <Min_dist>
0.392308

>  <Avg_dist>
0.707378

>  <PC_uM>
>20

>  <TG_uM>
11.7

>  <RL_uM>
>20

$$$$
42-10
  Cerius2 12110214563D 1   1.00000                          
 
 33 35  0  0  0  0  0  0  0  0999 V2000
   -3.2196    1.7461   -0.9816 N   0  0  0  0  0  0
   -3.9212    1.6960    0.1787 C   0  0  0  0  0  0
   -3.7348    0.7572    1.0968 N   0  0  0  0  0  0
   -2.8425   -0.2069    0.9440 C   0  0  0  0  0  0
   -2.0610   -0.2340   -0.2425 C   0  0  0  0  0  0
   -1.2084   -1.3391   -0.1524 C   0  0  0  0  0  0
   -1.5095   -1.9818    1.1456 C   0  0  0  0  0  0
   -2.4703   -1.2779    1.7412 N   0  0  0  0  0  0
   -2.8541   -1.4846    2.6077 H   0  0  0  0  0  0
   -0.8456   -3.2172    1.6972 C   0  0  0  0  0  0
   -0.0522   -1.8453   -1.3090 S   0  0  0  0  0  0
    1.3556   -0.9465   -0.7480 C   0  0  0  0  0  0
    2.5729   -1.0602   -1.4207 C   0  0  0  0  0  0
    3.6713   -0.3544   -0.9770 C   0  0  0  0  0  0
    3.5681    0.4659    0.1338 C   0  0  0  0  0  0
    2.3626    0.5826    0.8054 C   0  0  0  0  0  0
    1.2561   -0.1139    0.3674 C   0  0  0  0  0  0
    4.7509    1.2206    0.6055 N   0  3  0  0  0  0
    4.6555    2.0015    1.6617 O   0  0  0  0  0  0
    5.8986    1.1111   -0.0310 O   0  5  0  0  0  0
   -2.2784    0.8098   -1.2463 C   0  0  0  0  0  0
   -1.6373    0.8342   -2.2806 O   0  0  0  0  0  0
   -4.8585    2.6527    0.4111 N   0  0  0  0  0  0
   -3.3954    2.4514   -1.6240 H   0  0  0  0  0  0
    0.0260   -2.9295    2.2851 H   0  0  0  0  0  0
   -1.5498   -3.7559    2.3311 H   0  0  0  0  0  0
   -0.5327   -3.8597    0.8741 H   0  0  0  0  0  0
    2.6546   -1.7000   -2.2870 H   0  0  0  0  0  0
    4.6140   -0.4419   -1.4967 H   0  0  0  0  0  0
    2.2880    1.2236    1.6714 H   0  0  0  0  0  0
    0.3164   -0.0218    0.8917 H   0  0  0  0  0  0
   -5.3729    2.6381    1.2333 H   0  0  0  0  0  0
   -5.0129    3.3500   -0.2453 H   0  0  0  0  0  0
  1  2  1  0  0  0
  1 21  1  0  0  0
  1 24  1  0  0  0
  2  3  2  0  0  0
  2 23  1  0  0  0
  3  4  1  0  0  0
  4  5  2  0  0  0
  4  8  1  0  0  0
  5  6  1  0  0  0
  5 21  1  0  0  0
  6  7  2  0  0  0
  6 11  1  0  0  0
  7  8  1  0  0  0
  7 10  1  0  0  0
  8  9  1  0  0  0
 10 25  1  0  0  0
 10 26  1  0  0  0
 10 27  1  0  0  0
 11 12  1  0  0  0
 12 13  1  0  0  0
 12 17  2  0  0  0
 13 14  2  0  0  0
 13 28  1  0  0  0
 14 15  1  0  0  0
 14 29  1  0  0  0
 15 16  2  0  0  0
 15 18  1  0  0  0
 16 17  1  0  0  0
 16 30  1  0  0  0
 17 31  1  0  0  0
 18 19  2  0  0  0
 18 20  1  0  0  0
 21 22  2  0  0  0
 23 32  1  0  0  0
 23 33  1  0  0  0
M  CHG  2  18   1  20  -1
M  END
>  <ACTIVITY>
3.30103

>  <set_rl>
3

>  <Min_dist>
0.386861

>  <Avg_dist>
0.713806

>  <PC_uM>
>15

>  <TG_uM>
244

>  <RL_uM>
7470

$$$$
42-11
  Cerius2 12110214563D 1   1.00000                          
 
 39 41  0  0  0  0  0  0  0  0999 V2000
   -3.4692    1.2152   -1.4641 N   0  0  0  0  0  0
   -4.3101    1.3294   -0.3966 C   0  0  0  0  0  0
   -4.1300    0.6463    0.7105 N   0  0  0  0  0  0
   -3.1005   -0.2038    0.8428 C   0  0  0  0  0  0
   -2.2037   -0.3615   -0.2240 C   0  0  0  0  0  0
   -1.2059   -1.3395    0.2155 C   0  0  0  0  0  0
   -1.5454   -1.6997    1.4705 C   0  0  0  0  0  0
   -2.6825   -1.0203    1.8514 N   0  0  0  0  0  0
   -3.1212   -1.1097    2.7119 H   0  0  0  0  0  0
   -0.7975   -2.6916    2.3236 C   0  0  0  0  0  0
    0.1697   -1.9304   -0.7136 S   0  0  0  0  0  0
    1.3883   -0.7486   -0.2413 C   0  0  0  0  0  0
    1.0618    0.2695    0.6461 C   0  0  0  0  0  0
    2.0164    1.1971    1.0169 C   0  0  0  0  0  0
    3.3013    1.1139    0.5050 C   0  0  0  0  0  0
    3.6320    0.0954   -0.3836 C   0  0  0  0  0  0
    2.6772   -0.8378   -0.7516 C   0  0  0  0  0  0
    4.8928    0.0137   -0.8866 O   0  0  0  0  0  0
    4.9181   -1.1202   -1.7559 C   0  0  0  0  0  0
    4.2399    2.0288    0.8711 O   0  0  0  0  0  0
    3.6047    2.9320    1.7781 C   0  0  0  0  0  0
   -2.4083    0.3787   -1.4076 C   0  0  0  0  0  0
   -1.6489    0.2666   -2.3546 O   0  0  0  0  0  0
   -5.3789    2.1861   -0.4817 N   0  0  0  0  0  0
   -3.6349    1.7326   -2.2678 H   0  0  0  0  0  0
   -0.0367   -2.1704    2.9045 H   0  0  0  0  0  0
   -1.4942   -3.1877    2.9993 H   0  0  0  0  0  0
   -0.3208   -3.4343    1.6838 H   0  0  0  0  0  0
    0.0609    0.3360    1.0462 H   0  0  0  0  0  0
    1.7606    1.9881    1.7062 H   0  0  0  0  0  0
    2.9320   -1.6290   -1.4412 H   0  0  0  0  0  0
    5.9143   -1.2267   -2.1852 H   0  0  0  0  0  0
    4.6685   -2.0176   -1.1899 H   0  0  0  0  0  0
    4.1908   -0.9810   -2.5558 H   0  0  0  0  0  0
    4.3215    3.6872    2.1005 H   0  0  0  0  0  0
    2.7654    3.4171    1.2796 H   0  0  0  0  0  0
    3.2426    2.3808    2.6459 H   0  0  0  0  0  0
   -5.9868    2.2793    0.2684 H   0  0  0  0  0  0
   -5.5264    2.6985   -1.2920 H   0  0  0  0  0  0
  1  2  1  0  0  0
  1 22  1  0  0  0
  1 25  1  0  0  0
  2  3  2  0  0  0
  2 24  1  0  0  0
  3  4  1  0  0  0
  4  5  2  0  0  0
  4  8  1  0  0  0
  5  6  1  0  0  0
  5 22  1  0  0  0
  6  7  2  0  0  0
  6 11  1  0  0  0
  7  8  1  0  0  0
  7 10  1  0  0  0
  8  9  1  0  0  0
 10 26  1  0  0  0
 10 27  1  0  0  0
 10 28  1  0  0  0
 11 12  1  0  0  0
 12 13  1  0  0  0
 12 17  2  0  0  0
 13 14  2  0  0  0
 13 29  1  0  0  0
 14 15  1  0  0  0
 14 30  1  0  0  0
 15 16  2  0  0  0
 15 20  1  0  0  0
 16 17  1  0  0  0
 16 18  1  0  0  0
 17 31  1  0  0  0
 18 19  1  0  0  0
 19 32  1  0  0  0
 19 33  1  0  0  0
 19 34  1  0  0  0
 20 21  1  0  0  0
 21 35  1  0  0  0
 21 36  1  0  0  0
 21 37  1  0  0  0
 22 23  2  0  0  0
 24 38  1  0  0  0
 24 39  1  0  0  0
M  END
>  <ACTIVITY>
3.30103

>  <set_rl>
3

>  <Min_dist>
0.330827

>  <Avg_dist>
0.689325

>  <PC_uM>
>21

>  <TG_uM>
20

>  <RL_uM>
>21

$$$$
