1
  Cerius2 12110214573D 1   1.00000                          
 
 24 24  0  0  0  0  0  0  0  0999 V2000
   -0.7554    1.3956   -0.2186 C   0  0  0  0  0  0
   -1.6322    0.2800   -0.7918 C   0  0  0  0  0  0
   -1.1442   -1.0678   -0.2485 C   0  0  0  0  0  0
    0.3548   -1.2005   -0.5402 C   0  0  0  0  0  0
    1.0812    0.0272    0.0140 C   0  0  0  0  0  0
    2.5831   -0.1117   -0.2424 C   0  0  0  0  0  0
    3.2627    1.0341    0.2747 O   0  0  0  0  0  0
    0.5976    1.2055   -0.6280 O   0  0  0  0  0  0
    0.8615   -2.3798    0.0878 O   0  0  0  0  0  0
   -1.3650   -1.1243    1.1622 O   0  0  0  0  0  0
   -2.9903    0.4901   -0.4000 O   0  0  0  0  0  0
   -0.8279    1.3710    1.2084 O   0  0  0  0  0  0
   -1.1119    2.3595   -0.5819 H   0  0  0  0  0  0
   -1.5605    0.2822   -1.8795 H   0  0  0  0  0  0
   -1.6853   -1.8772   -0.7385 H   0  0  0  0  0  0
    0.5127   -1.2624   -1.6169 H   0  0  0  0  0  0
    0.9020    0.1007    1.0867 H   0  0  0  0  0  0
    2.9548   -1.0088    0.2529 H   0  0  0  0  0  0
    2.7632   -0.1877   -1.3147 H   0  0  0  0  0  0
    4.2038    0.9066    0.0929 H   0  0  0  0  0  0
    0.3726   -3.1266   -0.2842 H   0  0  0  0  0  0
   -2.3168   -1.0239    1.3004 H   0  0  0  0  0  0
   -3.2539    1.3499   -0.7554 H   0  0  0  0  0  0
   -0.2632    2.0873    1.5293 H   0  0  0  0  0  0
  1  2  1  0  0  0
  1  8  1  0  0  0
  1 12  1  0  0  0
  1 13  1  0  0  0
  2  3  1  0  0  0
  2 11  1  0  0  0
  2 14  1  0  0  0
  3  4  1  0  0  0
  3 10  1  0  0  0
  3 15  1  0  0  0
  4  5  1  0  0  0
  4  9  1  0  0  0
  4 16  1  0  0  0
  5  6  1  0  0  0
  5  8  1  0  0  0
  5 17  1  0  0  0
  6  7  1  0  0  0
  6 18  1  0  0  0
  6 19  1  0  0  0
  7 20  1  0  0  0
  9 21  1  0  0  0
 10 22  1  0  0  0
 11 23  1  0  0  0
 12 24  1  0  0  0
M  END
>  <Activity>
2.8

>  <set>
1

>  <Min_dist>
999.9

>  <Avg_dist>
999.9

$$$$
2
  Cerius2 12110214573D 1   1.00000                          
 
 26 26  0  0  0  0  0  0  0  0999 V2000
   -0.3198   -1.7119   -0.1770 C   0  0  0  0  0  0
   -1.5892   -0.8969    0.0810 C   0  0  0  0  0  0
   -1.3906    0.5223   -0.4631 C   0  0  0  0  0  0
   -0.1074    1.1040    0.1408 C   0  0  0  0  0  0
    1.0498    0.1376   -0.1217 C   0  0  0  0  0  0
    2.3425    0.7253    0.4480 C   0  0  0  0  0  0
    3.4239   -0.1762    0.2035 O   0  0  0  0  0  0
    0.7833   -1.1164    0.5033 O   0  0  0  0  0  0
    0.1769    2.3664   -0.4656 O   0  0  0  0  0  0
   -2.5057    1.3371   -0.0957 O   0  0  0  0  0  0
   -1.8430   -0.8392    1.4861 O   0  0  0  0  0  0
   -0.0331   -1.7447   -1.6795 C   0  0  0  0  0  0
   -0.4627   -2.7298    0.1859 H   0  0  0  0  0  0
   -2.4331   -1.3665   -0.4244 H   0  0  0  0  0  0
   -1.3012    0.4886   -1.5489 H   0  0  0  0  0  0
   -0.2367    1.2349    1.2152 H   0  0  0  0  0  0
    1.1617   -0.0105   -1.1958 H   0  0  0  0  0  0
    2.5502    1.6810   -0.0333 H   0  0  0  0  0  0
    2.2307    0.8760    1.5218 H   0  0  0  0  0  0
    4.2173    0.2311    0.5773 H   0  0  0  0  0  0
   -0.5790    2.9409   -0.2826 H   0  0  0  0  0  0
   -3.2908    0.9281   -0.4848 H   0  0  0  0  0  0
   -1.9541   -1.7511    1.7877 H   0  0  0  0  0  0
   -0.0365   -0.7280   -2.0724 H   0  0  0  0  0  0
    0.9428   -2.1981   -1.8534 H   0  0  0  0  0  0
   -0.8012   -2.3315   -2.1833 H   0  0  0  0  0  0
  1  2  1  0  0  0
  1  8  1  0  0  0
  1 12  1  0  0  0
  1 13  1  0  0  0
  2  3  1  0  0  0
  2 11  1  0  0  0
  2 14  1  0  0  0
  3  4  1  0  0  0
  3 10  1  0  0  0
  3 15  1  0  0  0
  4  5  1  0  0  0
  4  9  1  0  0  0
  4 16  1  0  0  0
  5  6  1  0  0  0
  5  8  1  0  0  0
  5 17  1  0  0  0
  6  7  1  0  0  0
  6 18  1  0  0  0
  6 19  1  0  0  0
  7 20  1  0  0  0
  9 21  1  0  0  0
 10 22  1  0  0  0
 11 23  1  0  0  0
 12 24  1  0  0  0
 12 25  1  0  0  0
 12 26  1  0  0  0
M  END
>  <Activity>
1.3

>  <set>
1

>  <Min_dist>
999.9

>  <Avg_dist>
999.9

$$$$
3
  Cerius2 12110214573D 1   1.00000                          
 
 27 27  0  0  0  0  0  0  0  0999 V2000
   -0.7517    1.1136   -0.6043 C   0  0  0  0  0  0
   -1.6400   -0.0941   -0.9118 C   0  0  0  0  0  0
   -1.1613   -1.2905   -0.0816 C   0  0  0  0  0  0
    0.3354   -1.4986   -0.3391 C   0  0  0  0  0  0
    1.0743   -0.1847   -0.0749 C   0  0  0  0  0  0
    2.5740   -0.3910   -0.2966 C   0  0  0  0  0  0
    3.2651    0.8352   -0.0502 O   0  0  0  0  0  0
    0.5981    0.8245   -0.9633 O   0  0  0  0  0  0
    0.8347   -2.5122    0.5358 O   0  0  0  0  0  0
   -1.3771   -1.0281    1.3064 O   0  0  0  0  0  0
   -2.9947    0.2106   -0.5743 O   0  0  0  0  0  0
   -0.8189    1.4093    0.7922 O   0  0  0  0  0  0
    0.0263    2.5396    1.0161 C   0  0  0  0  0  0
   -1.1015    1.9749   -1.1733 H   0  0  0  0  0  0
   -1.5725   -0.3358   -1.9725 H   0  0  0  0  0  0
   -1.7110   -2.1841   -0.3772 H   0  0  0  0  0  0
    0.4886   -1.8013   -1.3750 H   0  0  0  0  0  0
    0.8998    0.1284    0.9545 H   0  0  0  0  0  0
    2.9400   -1.1579    0.3861 H   0  0  0  0  0  0
    2.7492   -0.7065   -1.3251 H   0  0  0  0  0  0
    4.2044    0.6618   -0.2007 H   0  0  0  0  0  0
    0.3381   -3.3188    0.3412 H   0  0  0  0  0  0
   -2.3275   -0.8907    1.4204 H   0  0  0  0  0  0
   -3.2525    0.9715   -1.1125 H   0  0  0  0  0  0
    0.0072    2.8038    2.0734 H   0  0  0  0  0  0
    1.0466    2.2945    0.7212 H   0  0  0  0  0  0
   -0.3302    3.3828    0.4244 H   0  0  0  0  0  0
  1  2  1  0  0  0
  1  8  1  0  0  0
  1 12  1  0  0  0
  1 14  1  0  0  0
  2  3  1  0  0  0
  2 11  1  0  0  0
  2 15  1  0  0  0
  3  4  1  0  0  0
  3 10  1  0  0  0
  3 16  1  0  0  0
  4  5  1  0  0  0
  4  9  1  0  0  0
  4 17  1  0  0  0
  5  6  1  0  0  0
  5  8  1  0  0  0
  5 18  1  0  0  0
  6  7  1  0  0  0
  6 19  1  0  0  0
  6 20  1  0  0  0
  7 21  1  0  0  0
  9 22  1  0  0  0
 10 23  1  0  0  0
 11 24  1  0  0  0
 12 13  1  0  0  0
 13 25  1  0  0  0
 13 26  1  0  0  0
 13 27  1  0  0  0
M  END
>  <Activity>
1.9

>  <set>
1

>  <Min_dist>
999.9

>  <Avg_dist>
999.9

$$$$
4
  Cerius2 12110214573D 1   1.00000                          
 
 27 27  0  0  0  0  0  0  0  0999 V2000
   -1.0969    0.5668    0.0802 C   0  0  0  0  0  0
   -1.3959   -0.7868   -0.5683 C   0  0  0  0  0  0
   -0.2908   -1.7783   -0.1869 C   0  0  0  0  0  0
    1.0657   -1.1649   -0.5520 C   0  0  0  0  0  0
    1.1784    0.2172    0.0953 C   0  0  0  0  0  0
    2.5435    0.8240   -0.2355 C   0  0  0  0  0  0
    2.6500    2.1147    0.3684 O   0  0  0  0  0  0
    0.1480    1.0690   -0.4018 O   0  0  0  0  0  0
    2.1159   -2.0057   -0.0699 O   0  0  0  0  0  0
   -0.3393   -2.0330    1.2184 O   0  0  0  0  0  0
   -2.6561   -1.2726   -0.1016 O   0  0  0  0  0  0
   -2.1389    1.4894   -0.2441 O   0  0  0  0  0  0
   -1.8051    2.7277    0.3862 C   0  0  0  0  0  0
   -1.0447    0.4465    1.1622 H   0  0  0  0  0  0
   -1.4259   -0.6733   -1.6520 H   0  0  0  0  0  0
   -0.4303   -2.7101   -0.7350 H   0  0  0  0  0  0
    1.1425   -1.0678   -1.6350 H   0  0  0  0  0  0
    1.0772    0.1205    1.1762 H   0  0  0  0  0  0
    3.3316    0.1767    0.1492 H   0  0  0  0  0  0
    2.6466    0.9189   -1.3164 H   0  0  0  0  0  0
    3.5225    2.4609    0.1359 H   0  0  0  0  0  0
    2.0030   -2.8662   -0.4963 H   0  0  0  0  0  0
   -1.2122   -2.4049    1.4051 H   0  0  0  0  0  0
   -3.3199   -0.6169   -0.3556 H   0  0  0  0  0  0
   -2.5754    3.4667    0.1660 H   0  0  0  0  0  0
   -1.7402    2.5807    1.4643 H   0  0  0  0  0  0
   -0.8451    3.0801    0.0091 H   0  0  0  0  0  0
  1  2  1  0  0  0
  1  8  1  0  0  0
  1 12  1  0  0  0
  1 14  1  0  0  0
  2  3  1  0  0  0
  2 11  1  0  0  0
  2 15  1  0  0  0
  3  4  1  0  0  0
  3 10  1  0  0  0
  3 16  1  0  0  0
  4  5  1  0  0  0
  4  9  1  0  0  0
  4 17  1  0  0  0
  5  6  1  0  0  0
  5  8  1  0  0  0
  5 18  1  0  0  0
  6  7  1  0  0  0
  6 19  1  0  0  0
  6 20  1  0  0  0
  7 21  1  0  0  0
  9 22  1  0  0  0
 10 23  1  0  0  0
 11 24  1  0  0  0
 12 13  1  0  0  0
 13 25  1  0  0  0
 13 26  1  0  0  0
 13 27  1  0  0  0
M  END
>  <Activity>
1.6

>  <set>
1

>  <Min_dist>
999.9

>  <Avg_dist>
999.9

$$$$
5
  Cerius2 12110214573D 1   1.00000                          
 
 31 31  0  0  0  0  0  0  0  0999 V2000
   -0.5308   -0.3178    0.0158 C   0  0  0  0  0  0
    0.1170   -1.5555   -0.6091 C   0  0  0  0  0  0
    1.5843   -1.6262   -0.1710 C   0  0  0  0  0  0
    2.2619   -0.2936   -0.5094 C   0  0  0  0  0  0
    1.4518    0.8486    0.1079 C   0  0  0  0  0  0
    2.1389    2.1815   -0.1957 C   0  0  0  0  0  0
    1.3833    3.2490    0.3803 O   0  0  0  0  0  0
    0.1350    0.8583   -0.4401 O   0  0  0  0  0  0
    3.5876   -0.2822    0.0240 O   0  0  0  0  0  0
    1.6536   -1.8553    1.2378 O   0  0  0  0  0  0
   -0.5703   -2.7286   -0.1693 O   0  0  0  0  0  0
   -1.9078   -0.2607   -0.3617 O   0  0  0  0  0  0
   -2.4552    0.9097    0.2489 C   0  0  0  0  0  0
   -3.9358    1.0309   -0.1173 C   0  0  0  0  0  0
   -4.6380   -0.1227    0.3496 O   0  0  0  0  0  0
   -0.4559   -0.3788    1.1015 H   0  0  0  0  0  0
    0.0638   -1.4858   -1.6956 H   0  0  0  0  0  0
    2.0855   -2.4363   -0.7008 H   0  0  0  0  0  0
    2.3017   -0.1691   -1.5916 H   0  0  0  0  0  0
    1.3930    0.7089    1.1874 H   0  0  0  0  0  0
    3.1432    2.1774    0.2279 H   0  0  0  0  0  0
    2.2004    2.3210   -1.2750 H   0  0  0  0  0  0
    1.8495    4.0687    0.1662 H   0  0  0  0  0  0
    4.0598   -1.0204   -0.3851 H   0  0  0  0  0  0
    1.2050   -2.6951    1.4068 H   0  0  0  0  0  0
   -1.4887   -2.6394   -0.4587 H   0  0  0  0  0  0
   -2.3536    0.8360    1.3316 H   0  0  0  0  0  0
   -1.9196    1.7896   -0.1073 H   0  0  0  0  0  0
   -4.3533    1.9236    0.3484 H   0  0  0  0  0  0
   -4.0374    1.1046   -1.2000 H   0  0  0  0  0  0
   -5.5647   -0.0063    0.0990 H   0  0  0  0  0  0
  1  2  1  0  0  0
  1  8  1  0  0  0
  1 12  1  0  0  0
  1 16  1  0  0  0
  2  3  1  0  0  0
  2 11  1  0  0  0
  2 17  1  0  0  0
  3  4  1  0  0  0
  3 10  1  0  0  0
  3 18  1  0  0  0
  4  5  1  0  0  0
  4  9  1  0  0  0
  4 19  1  0  0  0
  5  6  1  0  0  0
  5  8  1  0  0  0
  5 20  1  0  0  0
  6  7  1  0  0  0
  6 21  1  0  0  0
  6 22  1  0  0  0
  7 23  1  0  0  0
  9 24  1  0  0  0
 10 25  1  0  0  0
 11 26  1  0  0  0
 12 13  1  0  0  0
 13 14  1  0  0  0
 13 27  1  0  0  0
 13 28  1  0  0  0
 14 15  1  0  0  0
 14 29  1  0  0  0
 14 30  1  0  0  0
 15 31  1  0  0  0
M  END
>  <Activity>
1.6

>  <set>
1

>  <Min_dist>
999.9

>  <Avg_dist>
999.9

$$$$
6
  Cerius2 12110214573D 1   1.00000                          
 
 28 28  0  0  0  0  0  0  0  0999 V2000
    0.4705   -0.8954    0.7543 C   0  0  0  0  0  0
   -0.8268   -1.6702    0.5121 C   0  0  0  0  0  0
   -1.5980   -1.0069   -0.6347 C   0  0  0  0  0  0
   -1.7769    0.4805   -0.3096 C   0  0  0  0  0  0
   -0.4076    1.0925   -0.0053 C   0  0  0  0  0  0
   -0.5714    2.5852    0.2875 C   0  0  0  0  0  0
    0.7065    3.1579    0.5719 O   0  0  0  0  0  0
    0.1687    0.4473    1.1288 O   0  0  0  0  0  0
   -2.3605    1.1480   -1.4303 O   0  0  0  0  0  0
   -2.8790   -1.6251   -0.7718 O   0  0  0  0  0  0
   -1.6237   -1.6510    1.6981 O   0  0  0  0  0  0
    1.3067   -0.8904   -0.5270 C   0  0  0  0  0  0
    2.5115   -0.0828   -0.3207 N   0  0  0  0  0  0
    3.5274   -0.5508   -0.4312 N   0  0  0  0  0  0
    4.4616   -0.9811   -0.5328 N   0  0  0  0  0  0
    1.0358   -1.3760    1.5528 H   0  0  0  0  0  0
   -0.5919   -2.7007    0.2455 H   0  0  0  0  0  0
   -1.0365   -1.1134   -1.5628 H   0  0  0  0  0  0
   -2.4259    0.5884    0.5594 H   0  0  0  0  0  0
    0.2472    0.9620   -0.8668 H   0  0  0  0  0  0
   -1.0063    3.0802   -0.5808 H   0  0  0  0  0  0
   -1.2281    2.7169    1.1475 H   0  0  0  0  0  0
    0.5586    4.0968    0.7503 H   0  0  0  0  0  0
   -2.4550    2.0781   -1.1834 H   0  0  0  0  0  0
   -3.3283   -1.1781   -1.5022 H   0  0  0  0  0  0
   -2.4290   -2.1490    1.5018 H   0  0  0  0  0  0
    1.5925   -1.9118   -0.7784 H   0  0  0  0  0  0
    0.7201   -0.4663   -1.3420 H   0  0  0  0  0  0
  1  2  1  0  0  0
  1  8  1  0  0  0
  1 12  1  0  0  0
  1 16  1  0  0  0
  2  3  1  0  0  0
  2 11  1  0  0  0
  2 17  1  0  0  0
  3  4  1  0  0  0
  3 10  1  0  0  0
  3 18  1  0  0  0
  4  5  1  0  0  0
  4  9  1  0  0  0
  4 19  1  0  0  0
  5  6  1  0  0  0
  5  8  1  0  0  0
  5 20  1  0  0  0
  6  7  1  0  0  0
  6 21  1  0  0  0
  6 22  1  0  0  0
  7 23  1  0  0  0
  9 24  1  0  0  0
 10 25  1  0  0  0
 11 26  1  0  0  0
 12 13  1  0  0  0
 12 27  1  0  0  0
 12 28  1  0  0  0
 13 14  2  0  0  0
 14 15  3  0  0  0
M  END
>  <Activity>
1.6

>  <set>
1

>  <Min_dist>
999.9

>  <Avg_dist>
999.9

$$$$
7
  Cerius2 12110214573D 1   1.00000                          
 
 28 28  0  0  0  0  0  0  0  0999 V2000
    0.4906   -0.7426   -0.6168 C   0  0  0  0  0  0
   -0.6357   -1.6881   -0.1931 C   0  0  0  0  0  0
   -1.9844   -1.0185   -0.4799 C   0  0  0  0  0  0
   -2.0009    0.3590    0.1924 C   0  0  0  0  0  0
   -0.7713    1.1496   -0.2605 C   0  0  0  0  0  0
   -0.7963    2.5393    0.3791 C   0  0  0  0  0  0
    0.3514    3.2786   -0.0430 O   0  0  0  0  0  0
    0.4159    0.4661    0.1367 O   0  0  0  0  0  0
   -3.1867    1.0612   -0.1853 O   0  0  0  0  0  0
   -3.0410   -1.8226    0.0483 O   0  0  0  0  0  0
   -0.5271   -1.9650    1.2046 O   0  0  0  0  0  0
    1.8414   -1.4158   -0.3657 C   0  0  0  0  0  0
    2.9205   -0.5116   -0.7709 N   0  0  0  0  0  0
    3.6817   -0.1717   -0.0170 N   0  0  0  0  0  0
    4.3816    0.1409    0.6761 N   0  0  0  0  0  0
    0.3922   -0.5146   -1.6781 H   0  0  0  0  0  0
   -0.5629   -2.6179   -0.7572 H   0  0  0  0  0  0
   -2.1133   -0.9018   -1.5560 H   0  0  0  0  0  0
   -1.9772    0.2365    1.2753 H   0  0  0  0  0  0
   -0.7846    1.2499   -1.3457 H   0  0  0  0  0  0
   -1.7004    3.0647    0.0714 H   0  0  0  0  0  0
   -0.7855    2.4400    1.4645 H   0  0  0  0  0  0
    0.2970    4.1457    0.3816 H   0  0  0  0  0  0
   -3.1565    1.9198    0.2586 H   0  0  0  0  0  0
   -3.8685   -1.3650   -0.1541 H   0  0  0  0  0  0
   -1.2537   -2.5624    1.4285 H   0  0  0  0  0  0
    1.9404   -1.6474    0.6948 H   0  0  0  0  0  0
    1.9018   -2.3366   -0.9458 H   0  0  0  0  0  0
  1  2  1  0  0  0
  1  8  1  0  0  0
  1 12  1  0  0  0
  1 16  1  0  0  0
  2  3  1  0  0  0
  2 11  1  0  0  0
  2 17  1  0  0  0
  3  4  1  0  0  0
  3 10  1  0  0  0
  3 18  1  0  0  0
  4  5  1  0  0  0
  4  9  1  0  0  0
  4 19  1  0  0  0
  5  6  1  0  0  0
  5  8  1  0  0  0
  5 20  1  0  0  0
  6  7  1  0  0  0
  6 21  1  0  0  0
  6 22  1  0  0  0
  7 23  1  0  0  0
  9 24  1  0  0  0
 10 25  1  0  0  0
 11 26  1  0  0  0
 12 13  1  0  0  0
 12 27  1  0  0  0
 12 28  1  0  0  0
 13 14  2  0  0  0
 14 15  3  0  0  0
M  END
>  <Activity>
1.8

>  <set>
1

>  <Min_dist>
999.9

>  <Avg_dist>
999.9

$$$$
9
  Cerius2 12110214573D 1   1.00000                          
 
 27 27  0  0  0  0  0  0  0  0999 V2000
    0.8186   -0.5916    0.0121 C   0  0  0  0  0  0
   -0.5647   -1.2410    0.0951 C   0  0  0  0  0  0
   -1.5792   -0.1959    0.5726 C   0  0  0  0  0  0
   -1.4877    1.0304   -0.3427 C   0  0  0  0  0  0
   -0.0346    1.5079   -0.3926 C   0  0  0  0  0  0
    0.4361    1.8532    1.0217 C   0  0  0  0  0  0
    1.7773    2.3439    0.9708 O   0  0  0  0  0  0
    0.7940    0.4789   -0.9301 O   0  0  0  0  0  0
   -1.9208    0.6785   -1.6582 O   0  0  0  0  0  0
   -2.8976   -0.7437    0.5099 O   0  0  0  0  0  0
   -0.5273   -2.3290    1.0209 O   0  0  0  0  0  0
    1.8450   -1.6360   -0.4314 C   0  0  0  0  0  0
    3.1372   -1.0308   -0.5094 O   0  0  0  0  0  0
    1.0969   -0.2051    0.9925 H   0  0  0  0  0  0
   -0.8550   -1.6080   -0.8894 H   0  0  0  0  0  0
   -1.3498    0.0949    1.5977 H   0  0  0  0  0  0
   -2.1200    1.8266    0.0501 H   0  0  0  0  0  0
    0.0341    2.3939   -1.0238 H   0  0  0  0  0  0
   -0.2148    2.6184    1.4446 H   0  0  0  0  0  0
    0.3995    0.9598    1.6451 H   0  0  0  0  0  0
    2.0346    2.5490    1.8801 H   0  0  0  0  0  0
   -1.8472    1.4764   -2.1995 H   0  0  0  0  0  0
   -3.5016   -0.0544    0.8182 H   0  0  0  0  0  0
    0.1270   -2.9578    0.6869 H   0  0  0  0  0  0
    1.8688   -2.4517    0.2911 H   0  0  0  0  0  0
    1.5668   -2.0259   -1.4105 H   0  0  0  0  0  0
    3.7526   -1.7212   -0.7914 H   0  0  0  0  0  0
  1  2  1  0  0  0
  1  8  1  0  0  0
  1 12  1  0  0  0
  1 14  1  0  0  0
  2  3  1  0  0  0
  2 11  1  0  0  0
  2 15  1  0  0  0
  3  4  1  0  0  0
  3 10  1  0  0  0
  3 16  1  0  0  0
  4  5  1  0  0  0
  4  9  1  0  0  0
  4 17  1  0  0  0
  5  6  1  0  0  0
  5  8  1  0  0  0
  5 18  1  0  0  0
  6  7  1  0  0  0
  6 19  1  0  0  0
  6 20  1  0  0  0
  7 21  1  0  0  0
  9 22  1  0  0  0
 10 23  1  0  0  0
 11 24  1  0  0  0
 12 13  1  0  0  0
 12 25  1  0  0  0
 12 26  1  0  0  0
 13 27  1  0  0  0
M  END
>  <Activity>
2.8

>  <set>
1

>  <Min_dist>
999.9

>  <Avg_dist>
999.9

$$$$
10
  Cerius2 12110214573D 1   1.00000                          
 
 27 27  0  0  0  0  0  0  0  0999 V2000
   -1.1654   -0.5554    0.4669 C   0  0  0  0  0  0
   -0.1704   -1.6730    0.1462 C   0  0  0  0  0  0
    1.2370   -1.2201    0.5510 C   0  0  0  0  0  0
    1.5304    0.1271   -0.1189 C   0  0  0  0  0  0
    0.4067    1.1085    0.2219 C   0  0  0  0  0  0
    0.7074    2.4669   -0.4146 C   0  0  0  0  0  0
   -0.3412    3.3844   -0.0971 O   0  0  0  0  0  0
   -0.8344    0.6148   -0.2785 O   0  0  0  0  0  0
    2.7747    0.6393    0.3620 O   0  0  0  0  0  0
    2.1951   -2.1888    0.1198 O   0  0  0  0  0  0
   -0.1986   -1.9507   -1.2553 O   0  0  0  0  0  0
   -2.5785   -1.0109    0.0974 C   0  0  0  0  0  0
   -3.5086    0.0319    0.3964 O   0  0  0  0  0  0
   -1.1255   -0.3295    1.5325 H   0  0  0  0  0  0
   -0.4387   -2.5710    0.7027 H   0  0  0  0  0  0
    1.2880   -1.1088    1.6341 H   0  0  0  0  0  0
    1.5826   -0.0066   -1.1994 H   0  0  0  0  0  0
    0.3405    1.2221    1.3040 H   0  0  0  0  0  0
    1.6528    2.8479   -0.0283 H   0  0  0  0  0  0
    0.7762    2.3540   -1.4966 H   0  0  0  0  0  0
   -0.1131    4.2254   -0.5162 H   0  0  0  0  0  0
    2.9199    1.4850   -0.0838 H   0  0  0  0  0  0
    3.0636   -1.8644    0.3946 H   0  0  0  0  0  0
   -1.1014   -2.2242   -1.4679 H   0  0  0  0  0  0
   -2.6196   -1.2401   -0.9674 H   0  0  0  0  0  0
   -2.8346   -1.9017    0.6710 H   0  0  0  0  0  0
   -4.3843   -0.2953    0.1493 H   0  0  0  0  0  0
  1  2  1  0  0  0
  1  8  1  0  0  0
  1 12  1  0  0  0
  1 14  1  0  0  0
  2  3  1  0  0  0
  2 11  1  0  0  0
  2 15  1  0  0  0
  3  4  1  0  0  0
  3 10  1  0  0  0
  3 16  1  0  0  0
  4  5  1  0  0  0
  4  9  1  0  0  0
  4 17  1  0  0  0
  5  6  1  0  0  0
  5  8  1  0  0  0
  5 18  1  0  0  0
  6  7  1  0  0  0
  6 19  1  0  0  0
  6 20  1  0  0  0
  7 21  1  0  0  0
  9 22  1  0  0  0
 10 23  1  0  0  0
 11 24  1  0  0  0
 12 13  1  0  0  0
 12 25  1  0  0  0
 12 26  1  0  0  0
 13 27  1  0  0  0
M  END
>  <Activity>
1.7

>  <set>
1

>  <Min_dist>
999.9

>  <Avg_dist>
999.9

$$$$
11
  Cerius2 12110214573D 1   1.00000                          
 
 28 28  0  0  0  0  0  0  0  0999 V2000
   -1.0869    0.3217   -0.0706 C   0  0  0  0  0  0
   -1.1146   -1.0693   -0.7081 C   0  0  0  0  0  0
    0.1378   -1.8412   -0.2772 C   0  0  0  0  0  0
    1.3729   -0.9959   -0.6082 C   0  0  0  0  0  0
    1.2124    0.3895    0.0217 C   0  0  0  0  0  0
    2.4560    1.2302   -0.2746 C   0  0  0  0  0  0
    2.3073    2.5242    0.3131 O   0  0  0  0  0  0
    0.0626    1.0364   -0.5203 O   0  0  0  0  0  0
    2.5406   -1.6286   -0.0807 O   0  0  0  0  0  0
    0.0886   -2.0880    1.1294 O   0  0  0  0  0  0
   -2.2815   -1.7709   -0.2744 O   0  0  0  0  0  0
   -2.3500    1.0883   -0.4676 C   0  0  0  0  0  0
   -2.3254    2.3874    0.1271 O   0  0  0  0  0  0
   -1.0390    0.1915    1.3516 O   0  0  0  0  0  0
   -1.1279   -0.9728   -1.7938 H   0  0  0  0  0  0
    0.1873   -2.7877   -0.8156 H   0  0  0  0  0  0
    1.4675   -0.8962   -1.6895 H   0  0  0  0  0  0
    1.0938    0.2856    1.1002 H   0  0  0  0  0  0
    3.3345    0.7395    0.1444 H   0  0  0  0  0  0
    2.5768    1.3326   -1.3530 H   0  0  0  0  0  0
    3.1103    3.0204    0.1033 H   0  0  0  0  0  0
    3.2920   -1.0651   -0.3110 H   0  0  0  0  0  0
    0.8931   -2.5742    1.3562 H   0  0  0  0  0  0
   -2.2591   -2.6397   -0.6985 H   0  0  0  0  0  0
   -2.3899    1.1860   -1.5525 H   0  0  0  0  0  0
   -3.2289    0.5458   -0.1191 H   0  0  0  0  0  0
   -3.1368    2.8360   -0.1475 H   0  0  0  0  0  0
   -1.0228    1.0879    1.7139 H   0  0  0  0  0  0
  1  2  1  0  0  0
  1  8  1  0  0  0
  1 12  1  0  0  0
  1 14  1  0  0  0
  2  3  1  0  0  0
  2 11  1  0  0  0
  2 15  1  0  0  0
  3  4  1  0  0  0
  3 10  1  0  0  0
  3 16  1  0  0  0
  4  5  1  0  0  0
  4  9  1  0  0  0
  4 17  1  0  0  0
  5  6  1  0  0  0
  5  8  1  0  0  0
  5 18  1  0  0  0
  6  7  1  0  0  0
  6 19  1  0  0  0
  6 20  1  0  0  0
  7 21  1  0  0  0
  9 22  1  0  0  0
 10 23  1  0  0  0
 11 24  1  0  0  0
 12 13  1  0  0  0
 12 25  1  0  0  0
 12 26  1  0  0  0
 13 27  1  0  0  0
 14 28  1  0  0  0
M  END
>  <Activity>
1.8

>  <set>
1

>  <Min_dist>
999.9

>  <Avg_dist>
999.9

$$$$
13
  Cerius2 12110214573D 1   1.00000                          
 
 34 34  0  0  0  0  0  0  0  0999 V2000
    0.2820   -0.4556   -0.0129 C   0  0  0  0  0  0
    1.0727   -1.5704   -0.7014 C   0  0  0  0  0  0
    2.5513   -1.4444   -0.3174 C   0  0  0  0  0  0
    3.0206   -0.0198   -0.6341 C   0  0  0  0  0  0
    2.0825    0.9776    0.0494 C   0  0  0  0  0  0
    2.5624    2.4027   -0.2329 C   0  0  0  0  0  0
    1.6871    3.3352    0.4047 O   0  0  0  0  0  0
    0.7569    0.8157   -0.4518 O   0  0  0  0  0  0
    4.3513    0.1645   -0.1471 O   0  0  0  0  0  0
    2.7075   -1.7012    1.0797 O   0  0  0  0  0  0
    0.5753   -2.8413   -0.2776 O   0  0  0  0  0  0
   -1.2011   -0.5930   -0.3630 C   0  0  0  0  0  0
   -1.9406    0.4474    0.2793 O   0  0  0  0  0  0
   -3.3996    0.2538   -0.1082 S   0  0  0  0  0  0
   -3.9320    1.5666    0.0032 O   0  0  0  0  0  0
   -3.3075   -0.4204   -1.3557 O   0  0  0  0  0  0
   -4.0323   -0.8369    1.1959 C   0  0  0  0  0  0
    0.4463   -0.5612    1.4027 O   0  0  0  0  0  0
    0.9675   -1.4781   -1.7823 H   0  0  0  0  0  0
    3.1405   -2.1596   -0.8913 H   0  0  0  0  0  0
    2.9998    0.1398   -1.7121 H   0  0  0  0  0  0
    2.0864    0.8004    1.1248 H   0  0  0  0  0  0
    3.5731    2.5293    0.1550 H   0  0  0  0  0  0
    2.5611    2.5802   -1.3084 H   0  0  0  0  0  0
    2.0244    4.2185    0.2022 H   0  0  0  0  0  0
    4.6062    1.0711   -0.3668 H   0  0  0  0  0  0
    3.6499   -1.6114    1.2767 H   0  0  0  0  0  0
    1.1000   -3.5131   -0.7342 H   0  0  0  0  0  0
   -1.3281   -0.5157   -1.4428 H   0  0  0  0  0  0
   -1.5665   -1.5619   -0.0226 H   0  0  0  0  0  0
   -5.0870   -1.0451    1.0156 H   0  0  0  0  0  0
   -3.4716   -1.7716    1.1916 H   0  0  0  0  0  0
   -3.9186   -0.3495    2.1642 H   0  0  0  0  0  0
   -0.0663    0.1572    1.7980 H   0  0  0  0  0  0
  1  2  1  0  0  0
  1  8  1  0  0  0
  1 12  1  0  0  0
  1 18  1  0  0  0
  2  3  1  0  0  0
  2 11  1  0  0  0
  2 19  1  0  0  0
  3  4  1  0  0  0
  3 10  1  0  0  0
  3 20  1  0  0  0
  4  5  1  0  0  0
  4  9  1  0  0  0
  4 21  1  0  0  0
  5  6  1  0  0  0
  5  8  1  0  0  0
  5 22  1  0  0  0
  6  7  1  0  0  0
  6 23  1  0  0  0
  6 24  1  0  0  0
  7 25  1  0  0  0
  9 26  1  0  0  0
 10 27  1  0  0  0
 11 28  1  0  0  0
 12 13  1  0  0  0
 12 29  1  0  0  0
 12 30  1  0  0  0
 13 14  1  0  0  0
 14 15  2  0  0  0
 14 16  2  0  0  0
 14 17  1  0  0  0
 17 31  1  0  0  0
 17 32  1  0  0  0
 17 33  1  0  0  0
 18 34  1  0  0  0
M  END
>  <Activity>
2.4

>  <set>
1

>  <Min_dist>
999.9

>  <Avg_dist>
999.9

$$$$
14
  Cerius2 12110214573D 1   1.00000                          
 
 29 29  0  0  0  0  0  0  0  0999 V2000
    0.0148   -1.5331    0.3797 C   0  0  0  0  0  0
   -1.4554   -1.1106    0.3320 C   0  0  0  0  0  0
   -1.5923    0.1196   -0.5722 C   0  0  0  0  0  0
   -0.6188    1.1982   -0.0837 C   0  0  0  0  0  0
    0.7881    0.6010   -0.0045 C   0  0  0  0  0  0
    1.7736    1.6795    0.4500 C   0  0  0  0  0  0
    3.0877    1.1231    0.5243 O   0  0  0  0  0  0
    0.8031   -0.4783    0.9278 O   0  0  0  0  0  0
   -0.6217    2.2951   -0.9996 O   0  0  0  0  0  0
   -2.9306    0.6164   -0.5065 O   0  0  0  0  0  0
   -1.9030   -0.7874    1.6500 O   0  0  0  0  0  0
    0.4999   -1.8473   -1.0369 C   0  0  0  0  0  0
    1.9297   -2.1827   -1.0017 N   0  3  0  0  0  0
    2.2497   -2.3900   -1.9359 H   0  0  0  0  0  0
    2.4498   -1.4003   -0.6338 H   0  0  0  0  0  0
    2.0717   -2.9884   -0.4111 H   0  0  0  0  0  0
    0.1162   -2.4222    1.0020 H   0  0  0  0  0  0
   -2.0565   -1.9267   -0.0690 H   0  0  0  0  0  0
   -1.3509   -0.1529   -1.5996 H   0  0  0  0  0  0
   -0.9239    1.5448    0.9036 H   0  0  0  0  0  0
    1.0815    0.2332   -0.9878 H   0  0  0  0  0  0
    1.7672    2.5021   -0.2651 H   0  0  0  0  0  0
    1.4796    2.0496    1.4322 H   0  0  0  0  0  0
    3.6762    1.8338    0.8135 H   0  0  0  0  0  0
    0.0023    2.9485   -0.6550 H   0  0  0  0  0  0
   -2.9714    1.3876   -1.0885 H   0  0  0  0  0  0
   -2.8313   -0.5274    1.5740 H   0  0  0  0  0  0
   -0.0619   -2.6926   -1.4342 H   0  0  0  0  0  0
    0.3466   -0.9769   -1.6749 H   0  0  0  0  0  0
  1  2  1  0  0  0
  1  8  1  0  0  0
  1 12  1  0  0  0
  1 17  1  0  0  0
  2  3  1  0  0  0
  2 11  1  0  0  0
  2 18  1  0  0  0
  3  4  1  0  0  0
  3 10  1  0  0  0
  3 19  1  0  0  0
  4  5  1  0  0  0
  4  9  1  0  0  0
  4 20  1  0  0  0
  5  6  1  0  0  0
  5  8  1  0  0  0
  5 21  1  0  0  0
  6  7  1  0  0  0
  6 22  1  0  0  0
  6 23  1  0  0  0
  7 24  1  0  0  0
  9 25  1  0  0  0
 10 26  1  0  0  0
 11 27  1  0  0  0
 12 13  1  0  0  0
 12 28  1  0  0  0
 12 29  1  0  0  0
 13 14  1  0  0  0
 13 15  1  0  0  0
 13 16  1  0  0  0
M  CHG  1  13   1
M  END
>  <Activity>
1.5

>  <set>
1

>  <Min_dist>
999.9

>  <Avg_dist>
999.9

$$$$
16
  Cerius2 12110214573D 1   1.00000                          
 
 32 32  0  0  0  0  0  0  0  0999 V2000
   -0.8386   -0.5050    0.4589 C   0  0  0  0  0  0
    0.1170   -1.6590    0.1470 C   0  0  0  0  0  0
    1.5373   -1.2569    0.5605 C   0  0  0  0  0  0
    1.8842    0.0772   -0.1101 C   0  0  0  0  0  0
    0.7949    1.0998    0.2212 C   0  0  0  0  0  0
    1.1493    2.4449   -0.4159 C   0  0  0  0  0  0
    0.1329    3.4008   -0.1072 O   0  0  0  0  0  0
   -0.4600    0.6507   -0.2865 O   0  0  0  0  0  0
    3.1432    0.5446    0.3782 O   0  0  0  0  0  0
    2.4621   -2.2609    0.1376 O   0  0  0  0  0  0
    0.0880   -1.9384   -1.2541 O   0  0  0  0  0  0
   -2.2649   -0.9094    0.0808 C   0  0  0  0  0  0
   -3.2214    0.2435    0.3921 C   0  0  0  0  0  0
   -4.5908   -0.1448    0.0291 N   0  3  0  0  0  0
   -5.2216    0.6155    0.2344 H   0  0  0  0  0  0
   -4.6300   -0.3576   -0.9564 H   0  0  0  0  0  0
   -4.8615   -0.9590    0.5600 H   0  0  0  0  0  0
   -0.7976   -0.2784    1.5243 H   0  0  0  0  0  0
   -0.1877   -2.5453    0.7035 H   0  0  0  0  0  0
    1.5851   -1.1451    1.6437 H   0  0  0  0  0  0
    1.9387   -0.0607   -1.1899 H   0  0  0  0  0  0
    0.7257    1.2181    1.3026 H   0  0  0  0  0  0
    2.1054    2.7919   -0.0240 H   0  0  0  0  0  0
    1.2211    2.3272   -1.4971 H   0  0  0  0  0  0
    0.3944    4.2320   -0.5264 H   0  0  0  0  0  0
    3.3222    1.3835   -0.0683 H   0  0  0  0  0  0
    3.3401   -1.9678    0.4175 H   0  0  0  0  0  0
    0.7024   -2.6696   -1.4060 H   0  0  0  0  0  0
   -2.3073   -1.1393   -0.9838 H   0  0  0  0  0  0
   -2.5573   -1.7890    0.6544 H   0  0  0  0  0  0
   -3.1790    0.4734    1.4567 H   0  0  0  0  0  0
   -2.9290    1.1231   -0.1815 H   0  0  0  0  0  0
  1  2  1  0  0  0
  1  8  1  0  0  0
  1 12  1  0  0  0
  1 18  1  0  0  0
  2  3  1  0  0  0
  2 11  1  0  0  0
  2 19  1  0  0  0
  3  4  1  0  0  0
  3 10  1  0  0  0
  3 20  1  0  0  0
  4  5  1  0  0  0
  4  9  1  0  0  0
  4 21  1  0  0  0
  5  6  1  0  0  0
  5  8  1  0  0  0
  5 22  1  0  0  0
  6  7  1  0  0  0
  6 23  1  0  0  0
  6 24  1  0  0  0
  7 25  1  0  0  0
  9 26  1  0  0  0
 10 27  1  0  0  0
 11 28  1  0  0  0
 12 13  1  0  0  0
 12 29  1  0  0  0
 12 30  1  0  0  0
 13 14  1  0  0  0
 13 31  1  0  0  0
 13 32  1  0  0  0
 14 15  1  0  0  0
 14 16  1  0  0  0
 14 17  1  0  0  0
M  CHG  1  14   1
M  END
>  <Activity>
2.3

>  <set>
1

>  <Min_dist>
999.9

>  <Avg_dist>
999.9

$$$$
18
  Cerius2 12110214573D 1   1.00000                          
 
 28 28  0  0  0  0  0  0  0  0999 V2000
   -0.8832   -0.4780   -0.1415 C   0  0  0  0  0  0
   -0.0399   -1.6198   -0.7137 C   0  0  0  0  0  0
    1.4025   -1.4732   -0.2158 C   0  0  0  0  0  0
    1.8975   -0.0627   -0.5550 C   0  0  0  0  0  0
    0.9075    0.9612    0.0051 C   0  0  0  0  0  0
    1.4103    2.3739   -0.2989 C   0  0  0  0  0  0
    0.4867    3.3310    0.2236 O   0  0  0  0  0  0
   -0.3727    0.7741   -0.5952 O   0  0  0  0  0  0
    3.1841    0.1463    0.0307 O   0  0  0  0  0  0
    1.4435   -1.6685    1.1992 O   0  0  0  0  0  0
   -0.5715   -2.8722   -0.2769 O   0  0  0  0  0  0
   -2.3328   -0.6345   -0.6055 C   0  0  0  0  0  0
   -3.1451    0.4631   -0.0559 C   0  0  0  0  0  0
   -3.7720    1.3102    0.3683 N   0  0  0  0  0  0
   -0.8355   -0.5214    1.2860 O   0  0  0  0  0  0
   -0.0562   -1.5749   -1.8026 H   0  0  0  0  0  0
    2.0360   -2.2113   -0.7078 H   0  0  0  0  0  0
    1.9652    0.0497   -1.6370 H   0  0  0  0  0  0
    0.8232    0.8310    1.0841 H   0  0  0  0  0  0
    2.3860    2.5199    0.1645 H   0  0  0  0  0  0
    1.4973    2.5043   -1.3776 H   0  0  0  0  0  0
    0.8403    4.2056    0.0110 H   0  0  0  0  0  0
    3.4570    1.0430   -0.2068 H   0  0  0  0  0  0
    2.3667   -1.5677    1.4686 H   0  0  0  0  0  0
   -0.0119   -3.5620   -0.6592 H   0  0  0  0  0  0
   -2.3709   -0.6047   -1.6945 H   0  0  0  0  0  0
   -2.7258   -1.5885   -0.2542 H   0  0  0  0  0  0
   -1.3780    0.2123    1.6062 H   0  0  0  0  0  0
  1  2  1  0  0  0
  1  8  1  0  0  0
  1 12  1  0  0  0
  1 15  1  0  0  0
  2  3  1  0  0  0
  2 11  1  0  0  0
  2 16  1  0  0  0
  3  4  1  0  0  0
  3 10  1  0  0  0
  3 17  1  0  0  0
  4  5  1  0  0  0
  4  9  1  0  0  0
  4 18  1  0  0  0
  5  6  1  0  0  0
  5  8  1  0  0  0
  5 19  1  0  0  0
  6  7  1  0  0  0
  6 20  1  0  0  0
  6 21  1  0  0  0
  7 22  1  0  0  0
  9 23  1  0  0  0
 10 24  1  0  0  0
 11 25  1  0  0  0
 12 13  1  0  0  0
 12 26  1  0  0  0
 12 27  1  0  0  0
 13 14  3  0  0  0
 15 28  1  0  0  0
M  END
>  <Activity>
2.1

>  <set>
1

>  <Min_dist>
999.9

>  <Avg_dist>
999.9

$$$$
20
  Cerius2 12110214573D 1   1.00000                          
 
 27 27  0  0  0  0  0  0  0  0999 V2000
   -0.7845    0.7492   -1.0291 C   0  0  0  0  0  0
   -1.6165   -0.5191   -0.8260 C   0  0  0  0  0  0
   -1.1120   -1.2528    0.4218 C   0  0  0  0  0  0
    0.3978   -1.4779    0.2815 C   0  0  0  0  0  0
    1.0773   -0.1370   -0.0055 C   0  0  0  0  0  0
    2.5891   -0.3458   -0.1138 C   0  0  0  0  0  0
    3.2249    0.9056   -0.3817 O   0  0  0  0  0  0
    0.5842    0.4022   -1.2304 O   0  0  0  0  0  0
    0.9145   -2.0255    1.4961 O   0  0  0  0  0  0
   -1.3728   -0.4605    1.5821 O   0  0  0  0  0  0
   -1.4805   -1.3680   -1.9675 O   0  0  0  0  0  0
   -0.9047    1.6277    0.1895 C   0  0  0  0  0  0
   -1.9725    1.7396    0.7534 O   0  0  0  0  0  0
    0.1746    2.2889    0.6526 N   0  0  0  0  0  0
   -1.1536    1.2888   -1.9014 H   0  0  0  0  0  0
   -2.6644   -0.2504   -0.6924 H   0  0  0  0  0  0
   -1.6184   -2.2139    0.5108 H   0  0  0  0  0  0
    0.5889   -2.1670   -0.5412 H   0  0  0  0  0  0
    0.8648    0.5581    0.8068 H   0  0  0  0  0  0
    2.9679   -0.7523    0.8240 H   0  0  0  0  0  0
    2.8025   -1.0427   -0.9243 H   0  0  0  0  0  0
    4.1738    0.7297   -0.4422 H   0  0  0  0  0  0
    0.4551   -2.8638    1.6423 H   0  0  0  0  0  0
   -2.3305   -0.3329    1.6239 H   0  0  0  0  0  0
   -1.8016   -0.8659   -2.7290 H   0  0  0  0  0  0
    0.0972    2.8543    1.4369 H   0  0  0  0  0  0
    1.0286    2.1994    0.2015 H   0  0  0  0  0  0
  1  2  1  0  0  0
  1  8  1  0  0  0
  1 12  1  0  0  0
  1 15  1  0  0  0
  2  3  1  0  0  0
  2 11  1  0  0  0
  2 16  1  0  0  0
  3  4  1  0  0  0
  3 10  1  0  0  0
  3 17  1  0  0  0
  4  5  1  0  0  0
  4  9  1  0  0  0
  4 18  1  0  0  0
  5  6  1  0  0  0
  5  8  1  0  0  0
  5 19  1  0  0  0
  6  7  1  0  0  0
  6 20  1  0  0  0
  6 21  1  0  0  0
  7 22  1  0  0  0
  9 23  1  0  0  0
 10 24  1  0  0  0
 11 25  1  0  0  0
 12 13  2  0  0  0
 12 14  1  0  0  0
 14 26  1  0  0  0
 14 27  1  0  0  0
M  END
>  <Activity>
3.4

>  <set>
1

>  <Min_dist>
999.9

>  <Avg_dist>
999.9

$$$$
21
  Cerius2 12110214573D 1   1.00000                          
 
 24 24  0  0  0  0  0  0  0  0999 V2000
   -1.1886    1.3130   -0.1266 C   0  0  0  0  0  0
   -1.7423    0.0318   -0.7518 C   0  0  0  0  0  0
   -1.0783   -1.1878   -0.1191 C   0  0  0  0  0  0
    0.3920   -1.2643   -0.5206 C   0  0  0  0  0  0
    1.1726   -0.1208    0.1291 C   0  0  0  0  0  0
    2.6619   -0.2756   -0.1852 C   0  0  0  0  0  0
    3.3905    0.7932    0.4222 O   0  0  0  0  0  0
    0.5753    1.4620   -0.5295 S   0  0  0  0  0  0
    0.9364   -2.5138   -0.0914 O   0  0  0  0  0  0
   -1.1743   -1.0923    1.3035 O   0  0  0  0  0  0
   -3.1533   -0.0304   -0.5343 O   0  0  0  0  0  0
   -1.3512    1.2607    1.2921 O   0  0  0  0  0  0
   -1.7266    2.1738   -0.5238 H   0  0  0  0  0  0
   -1.5431    0.0369   -1.8234 H   0  0  0  0  0  0
   -1.5900   -2.0902   -0.4538 H   0  0  0  0  0  0
    0.4752   -1.1887   -1.6048 H   0  0  0  0  0  0
    1.0239   -0.1459    1.2087 H   0  0  0  0  0  0
    3.0190   -1.2278    0.2071 H   0  0  0  0  0  0
    2.8101   -0.2489   -1.2648 H   0  0  0  0  0  0
    4.3219    0.6581    0.2001 H   0  0  0  0  0  0
    0.4238   -3.2071   -0.5292 H   0  0  0  0  0  0
   -2.1166   -1.0624    1.5186 H   0  0  0  0  0  0
   -3.5358    0.7512   -0.9561 H   0  0  0  0  0  0
   -0.9901    2.0852    1.6455 H   0  0  0  0  0  0
  1  2  1  0  0  0
  1  8  1  0  0  0
  1 12  1  0  0  0
  1 13  1  0  0  0
  2  3  1  0  0  0
  2 11  1  0  0  0
  2 14  1  0  0  0
  3  4  1  0  0  0
  3 10  1  0  0  0
  3 15  1  0  0  0
  4  5  1  0  0  0
  4  9  1  0  0  0
  4 16  1  0  0  0
  5  6  1  0  0  0
  5  8  1  0  0  0
  5 17  1  0  0  0
  6  7  1  0  0  0
  6 18  1  0  0  0
  6 19  1  0  0  0
  7 20  1  0  0  0
  9 21  1  0  0  0
 10 22  1  0  0  0
 11 23  1  0  0  0
 12 24  1  0  0  0
M  END
>  <Activity>
2.7

>  <set>
1

>  <Min_dist>
999.9

>  <Avg_dist>
999.9

$$$$
24
  Cerius2 12110214573D 1   1.00000                          
 
 38 40  0  0  0  0  0  0  0  0999 V2000
    1.1801   -0.8774   -0.9596 C   0  0  0  0  0  0
    0.6230   -1.2494    0.3026 O   0  0  0  0  0  0
   -0.6949   -0.9296    0.2591 C   0  0  0  0  0  0
   -1.5745   -1.1255    1.2637 C   0  0  0  0  0  0
   -2.8743   -0.6407    0.7949 C   0  0  0  0  0  0
   -4.1472   -0.5741    1.3653 C   0  0  0  0  0  0
   -5.1858   -0.0507    0.6474 C   0  0  0  0  0  0
   -4.9853    0.4153   -0.6444 C   0  0  0  0  0  0
   -3.7369    0.3588   -1.2263 C   0  0  0  0  0  0
   -2.6663   -0.1695   -0.5145 C   0  0  0  0  0  0
   -1.3305   -0.3542   -0.8084 N   0  0  0  0  0  0
    2.6730   -1.2138   -0.9758 C   0  0  0  0  0  0
    3.3669   -0.4610    0.1650 C   0  0  0  0  0  0
    3.0325    1.0300    0.0435 C   0  0  0  0  0  0
    1.5124    1.1967   -0.0174 C   0  0  0  0  0  0
    1.1669    2.6846   -0.1048 C   0  0  0  0  0  0
   -0.2523    2.8415   -0.1618 O   0  0  0  0  0  0
    0.9980    0.5224   -1.1642 O   0  0  0  0  0  0
    3.5449    1.7291    1.1797 O   0  0  0  0  0  0
    2.8990   -0.9566    1.4210 O   0  0  0  0  0  0
    2.8480   -2.6207   -0.7963 O   0  0  0  0  0  0
    0.6762   -1.4274   -1.7544 H   0  0  0  0  0  0
   -1.3604   -1.5578    2.2300 H   0  0  0  0  0  0
   -4.3105   -0.9352    2.3699 H   0  0  0  0  0  0
   -6.1702    0.0004    1.0887 H   0  0  0  0  0  0
   -5.8158    0.8259   -1.1995 H   0  0  0  0  0  0
   -3.5912    0.7237   -2.2323 H   0  0  0  0  0  0
   -0.9057   -0.1134   -1.6465 H   0  0  0  0  0  0
    3.1050   -0.9099   -1.9292 H   0  0  0  0  0  0
    4.4455   -0.6009    0.0928 H   0  0  0  0  0  0
    3.4801    1.4313   -0.8657 H   0  0  0  0  0  0
    1.0651    0.7730    0.8817 H   0  0  0  0  0  0
    1.5545    3.1998    0.7742 H   0  0  0  0  0  0
    1.6159    3.1097   -1.0025 H   0  0  0  0  0  0
   -0.4265    3.7912   -0.2160 H   0  0  0  0  0  0
    4.5021    1.5919    1.1839 H   0  0  0  0  0  0
    3.1181   -1.8980    1.4492 H   0  0  0  0  0  0
    2.3910   -3.0550   -1.5295 H   0  0  0  0  0  0
  1  2  1  0  0  0
  1 12  1  0  0  0
  1 18  1  0  0  0
  1 22  1  0  0  0
  2  3  1  0  0  0
  3  4  2  0  0  0
  3 11  1  0  0  0
  4  5  1  0  0  0
  4 23  1  0  0  0
  5  6  1  0  0  0
  5 10  2  0  0  0
  6  7  2  0  0  0
  6 24  1  0  0  0
  7  8  1  0  0  0
  7 25  1  0  0  0
  8  9  2  0  0  0
  8 26  1  0  0  0
  9 10  1  0  0  0
  9 27  1  0  0  0
 10 11  1  0  0  0
 11 28  1  0  0  0
 12 13  1  0  0  0
 12 21  1  0  0  0
 12 29  1  0  0  0
 13 14  1  0  0  0
 13 20  1  0  0  0
 13 30  1  0  0  0
 14 15  1  0  0  0
 14 19  1  0  0  0
 14 31  1  0  0  0
 15 16  1  0  0  0
 15 18  1  0  0  0
 15 32  1  0  0  0
 16 17  1  0  0  0
 16 33  1  0  0  0
 16 34  1  0  0  0
 17 35  1  0  0  0
 19 36  1  0  0  0
 20 37  1  0  0  0
 21 38  1  0  0  0
M  END
>  <Activity>
2.6

>  <set>
1

>  <Min_dist>
999.9

>  <Avg_dist>
999.9

$$$$
25
  Cerius2 12110214573D 1   1.00000                          
 
 29 29  0  0  0  0  0  0  0  0999 V2000
   -0.5669   -0.5852    1.2515 C   0  0  0  0  0  0
   -1.8952   -0.0810    0.6828 C   0  0  0  0  0  0
   -1.6553    0.4816   -0.7227 C   0  0  0  0  0  0
   -0.5380    1.5284   -0.6478 C   0  0  0  0  0  0
    0.6876    0.9025    0.0216 C   0  0  0  0  0  0
    1.8205    1.9297    0.0706 C   0  0  0  0  0  0
    2.9656    1.3464    0.6955 O   0  0  0  0  0  0
    0.3586    0.4958    1.3485 O   0  0  0  0  0  0
   -0.1954    1.9573   -1.9672 O   0  0  0  0  0  0
   -1.2643   -0.5749   -1.6019 O   0  0  0  0  0  0
   -2.4171    0.9473    1.5268 O   0  0  0  0  0  0
   -0.0035   -1.6470    0.3425 C   0  0  0  0  0  0
   -0.7421   -2.4617   -0.1689 O   0  0  0  0  0  0
    1.3211   -1.6911    0.0978 N   0  0  0  0  0  0
    1.8318   -2.6536   -0.7261 N   0  0  0  0  0  0
   -0.7342   -1.0089    2.2418 H   0  0  0  0  0  0
   -2.6055   -0.9061    0.6291 H   0  0  0  0  0  0
   -2.5692    0.9478   -1.0910 H   0  0  0  0  0  0
   -0.8772    2.3826   -0.0618 H   0  0  0  0  0  0
    1.0104    0.0342   -0.5529 H   0  0  0  0  0  0
    2.0768    2.2367   -0.9434 H   0  0  0  0  0  0
    1.4978    2.7994    0.6429 H   0  0  0  0  0  0
    3.6544    2.0251    0.7061 H   0  0  0  0  0  0
   -0.9959    2.3376   -2.3541 H   0  0  0  0  0  0
   -1.9888   -1.2154   -1.6087 H   0  0  0  0  0  0
   -2.5459    0.5533    2.4005 H   0  0  0  0  0  0
    1.9119   -1.0395    0.5069 H   0  0  0  0  0  0
    2.8284   -2.5013   -0.7670 H   0  0  0  0  0  0
    1.6924   -3.5377   -0.2604 H   0  0  0  0  0  0
  1  2  1  0  0  0
  1  8  1  0  0  0
  1 12  1  0  0  0
  1 16  1  0  0  0
  2  3  1  0  0  0
  2 11  1  0  0  0
  2 17  1  0  0  0
  3  4  1  0  0  0
  3 10  1  0  0  0
  3 18  1  0  0  0
  4  5  1  0  0  0
  4  9  1  0  0  0
  4 19  1  0  0  0
  5  6  1  0  0  0
  5  8  1  0  0  0
  5 20  1  0  0  0
  6  7  1  0  0  0
  6 21  1  0  0  0
  6 22  1  0  0  0
  7 23  1  0  0  0
  9 24  1  0  0  0
 10 25  1  0  0  0
 11 26  1  0  0  0
 12 13  2  0  0  0
 12 14  1  0  0  0
 14 15  1  0  0  0
 14 27  1  0  0  0
 15 28  1  0  0  0
 15 29  1  0  0  0
M  END
>  <Activity>
2.5

>  <set>
1

>  <Min_dist>
999.9

>  <Avg_dist>
999.9

$$$$
26
  Cerius2 12110214573D 1   1.00000                          
 
 31 31  0  0  0  0  0  0  0  0999 V2000
    0.0772   -0.5560    0.0810 C   0  0  0  0  0  0
    1.0099   -1.6351   -0.4736 C   0  0  0  0  0  0
    2.4501   -1.3106   -0.0610 C   0  0  0  0  0  0
    2.7752    0.1216   -0.5000 C   0  0  0  0  0  0
    1.7089    1.0679    0.0566 C   0  0  0  0  0  0
    2.0431    2.5051   -0.3480 C   0  0  0  0  0  0
    1.0481    3.3897    0.1712 O   0  0  0  0  0  0
    0.4293    0.7139   -0.4647 O   0  0  0  0  0  0
    4.0581    0.4970    0.0050 O   0  0  0  0  0  0
    2.5781   -1.4178    1.3582 O   0  0  0  0  0  0
    0.6362   -2.9085    0.0563 O   0  0  0  0  0  0
   -1.6356   -0.9510   -0.3671 S   0  0  0  0  0  0
   -2.4929    0.4532    0.3971 C   0  0  0  0  0  0
   -3.9742    0.3340    0.1468 C   0  0  0  0  0  0
   -4.4088   -0.6057   -0.4849 O   0  0  0  0  0  0
   -4.8160    1.2716    0.6249 N   0  0  0  0  0  0
    0.1680   -0.5216    1.1667 H   0  0  0  0  0  0
    0.9379   -1.6557   -1.5610 H   0  0  0  0  0  0
    3.1351   -2.0061   -0.5460 H   0  0  0  0  0  0
    2.7797    0.1773   -1.5886 H   0  0  0  0  0  0
    1.6896    0.9926    1.1438 H   0  0  0  0  0  0
    3.0183    2.7785    0.0549 H   0  0  0  0  0  0
    2.0649    2.5807   -1.4352 H   0  0  0  0  0  0
    1.2958    4.2824   -0.1058 H   0  0  0  0  0  0
    4.6974   -0.1278   -0.3637 H   0  0  0  0  0  0
    2.3523   -2.3288    1.5912 H   0  0  0  0  0  0
   -0.2764   -3.0693   -0.2201 H   0  0  0  0  0  0
   -2.3047    0.4532    1.4707 H   0  0  0  0  0  0
   -2.1249    1.3831   -0.0363 H   0  0  0  0  0  0
   -5.7695    1.1949    0.4639 H   0  0  0  0  0  0
   -4.4685    2.0232    1.1302 H   0  0  0  0  0  0
  1  2  1  0  0  0
  1  8  1  0  0  0
  1 12  1  0  0  0
  1 17  1  0  0  0
  2  3  1  0  0  0
  2 11  1  0  0  0
  2 18  1  0  0  0
  3  4  1  0  0  0
  3 10  1  0  0  0
  3 19  1  0  0  0
  4  5  1  0  0  0
  4  9  1  0  0  0
  4 20  1  0  0  0
  5  6  1  0  0  0
  5  8  1  0  0  0
  5 21  1  0  0  0
  6  7  1  0  0  0
  6 22  1  0  0  0
  6 23  1  0  0  0
  7 24  1  0  0  0
  9 25  1  0  0  0
 10 26  1  0  0  0
 11 27  1  0  0  0
 12 13  1  0  0  0
 13 14  1  0  0  0
 13 28  1  0  0  0
 13 29  1  0  0  0
 14 15  2  0  0  0
 14 16  1  0  0  0
 16 30  1  0  0  0
 16 31  1  0  0  0
M  END
>  <Activity>
1.7

>  <set>
1

>  <Min_dist>
999.9

>  <Avg_dist>
999.9

$$$$
27
  Cerius2 12110214573D 1   1.00000                          
 
 27 27  0  0  0  0  0  0  0  0999 V2000
   -0.9962    0.0953    0.4221 C   0  0  0  0  0  0
   -0.8802   -1.2731   -0.2533 C   0  0  0  0  0  0
    0.5321   -1.8240   -0.0262 C   0  0  0  0  0  0
    1.5484   -0.7765   -0.4949 C   0  0  0  0  0  0
    1.2487    0.5543    0.1987 C   0  0  0  0  0  0
    2.2788    1.5983   -0.2369 C   0  0  0  0  0  0
    2.0000    2.8415    0.4101 O   0  0  0  0  0  0
   -0.0585    1.0009   -0.1568 O   0  0  0  0  0  0
    2.8685   -1.2059   -0.1557 O   0  0  0  0  0  0
    0.7249   -2.0906    1.3644 O   0  0  0  0  0  0
   -1.1203   -1.1361   -1.6553 O   0  0  0  0  0  0
   -2.3921    0.6308    0.2328 C   0  0  0  0  0  0
   -2.5649    1.6818   -0.3472 O   0  0  0  0  0  0
   -3.4484   -0.0583    0.7080 N   0  0  0  0  0  0
   -0.7901   -0.0078    1.4874 H   0  0  0  0  0  0
   -1.6119   -1.9560    0.1784 H   0  0  0  0  0  0
    0.6629   -2.7423   -0.5987 H   0  0  0  0  0  0
    1.4706   -0.6506   -1.5748 H   0  0  0  0  0  0
    1.3033    0.4202    1.2791 H   0  0  0  0  0  0
    3.2776    1.2606    0.0397 H   0  0  0  0  0  0
    2.2266    1.7313   -1.3175 H   0  0  0  0  0  0
    2.6705    3.4699    0.1089 H   0  0  0  0  0  0
    3.0127   -2.0490   -0.6067 H   0  0  0  0  0  0
    0.0581   -2.7429    1.6190 H   0  0  0  0  0  0
   -2.0144   -0.7807   -1.7524 H   0  0  0  0  0  0
   -4.3468    0.2863    0.5862 H   0  0  0  0  0  0
   -3.3101   -0.8989    1.1719 H   0  0  0  0  0  0
  1  2  1  0  0  0
  1  8  1  0  0  0
  1 12  1  0  0  0
  1 15  1  0  0  0
  2  3  1  0  0  0
  2 11  1  0  0  0
  2 16  1  0  0  0
  3  4  1  0  0  0
  3 10  1  0  0  0
  3 17  1  0  0  0
  4  5  1  0  0  0
  4  9  1  0  0  0
  4 18  1  0  0  0
  5  6  1  0  0  0
  5  8  1  0  0  0
  5 19  1  0  0  0
  6  7  1  0  0  0
  6 20  1  0  0  0
  6 21  1  0  0  0
  7 22  1  0  0  0
  9 23  1  0  0  0
 10 24  1  0  0  0
 11 25  1  0  0  0
 12 13  2  0  0  0
 12 14  1  0  0  0
 14 26  1  0  0  0
 14 27  1  0  0  0
M  END
>  <Activity>
3.4

>  <set>
1

>  <Min_dist>
999.9

>  <Avg_dist>
999.9

$$$$
28
  Cerius2 12110214573D 1   1.00000                          
 
 37 38  0  0  0  0  0  0  0  0999 V2000
    1.2935   -0.9066   -1.2413 C   0  0  0  0  0  0
    2.1916   -1.6754   -0.2695 C   0  0  0  0  0  0
    2.0719   -1.0480    1.1240 C   0  0  0  0  0  0
    2.3644    0.4526    1.0129 C   0  0  0  0  0  0
    1.4533    1.0604   -0.0559 C   0  0  0  0  0  0
    1.7140    2.5651   -0.1507 C   0  0  0  0  0  0
    0.8637    3.1339   -1.1485 O   0  0  0  0  0  0
    1.7180    0.4529   -1.3189 O   0  0  0  0  0  0
    2.1130    1.0831    2.2704 O   0  0  0  0  0  0
    0.7480   -1.2426    1.6254 O   0  0  0  0  0  0
    3.5483   -1.6018   -0.7121 O   0  0  0  0  0  0
   -0.1318   -0.9593   -0.7548 C   0  0  0  0  0  0
   -0.5704   -1.9820   -0.2722 O   0  0  0  0  0  0
   -0.9192    0.1299   -0.8559 N   0  0  0  0  0  0
   -2.2347    0.0887   -0.3810 C   0  0  0  0  0  0
   -2.8051    1.2203    0.1871 C   0  0  0  0  0  0
   -4.1038    1.1764    0.6550 C   0  0  0  0  0  0
   -4.8361    0.0073    0.5582 C   0  0  0  0  0  0
   -4.2708   -1.1213   -0.0066 C   0  0  0  0  0  0
   -2.9746   -1.0821   -0.4819 C   0  0  0  0  0  0
    1.3551   -1.3624   -2.2295 H   0  0  0  0  0  0
    1.8760   -2.7180   -0.2284 H   0  0  0  0  0  0
    2.7925   -1.5123    1.7972 H   0  0  0  0  0  0
    3.4068    0.6011    0.7309 H   0  0  0  0  0  0
    0.4117    0.8896    0.2161 H   0  0  0  0  0  0
    1.5062    3.0312    0.8125 H   0  0  0  0  0  0
    2.7560    2.7370   -0.4203 H   0  0  0  0  0  0
    1.0594    4.0805   -1.1759 H   0  0  0  0  0  0
    2.7012    0.6661    2.9147 H   0  0  0  0  0  0
    0.6023   -2.1977    1.6664 H   0  0  0  0  0  0
    3.5769   -1.9997   -1.5930 H   0  0  0  0  0  0
   -0.5738    0.9423   -1.2579 H   0  0  0  0  0  0
   -2.2337    2.1335    0.2633 H   0  0  0  0  0  0
   -4.5479    2.0559    1.0972 H   0  0  0  0  0  0
   -5.8514   -0.0245    0.9248 H   0  0  0  0  0  0
   -4.8451   -2.0329   -0.0804 H   0  0  0  0  0  0
   -2.5337   -1.9639   -0.9229 H   0  0  0  0  0  0
  1  2  1  0  0  0
  1  8  1  0  0  0
  1 12  1  0  0  0
  1 21  1  0  0  0
  2  3  1  0  0  0
  2 11  1  0  0  0
  2 22  1  0  0  0
  3  4  1  0  0  0
  3 10  1  0  0  0
  3 23  1  0  0  0
  4  5  1  0  0  0
  4  9  1  0  0  0
  4 24  1  0  0  0
  5  6  1  0  0  0
  5  8  1  0  0  0
  5 25  1  0  0  0
  6  7  1  0  0  0
  6 26  1  0  0  0
  6 27  1  0  0  0
  7 28  1  0  0  0
  9 29  1  0  0  0
 10 30  1  0  0  0
 11 31  1  0  0  0
 12 13  2  0  0  0
 12 14  1  0  0  0
 14 15  1  0  0  0
 14 32  1  0  0  0
 15 16  1  0  0  0
 15 20  2  0  0  0
 16 17  2  0  0  0
 16 33  1  0  0  0
 17 18  1  0  0  0
 17 34  1  0  0  0
 18 19  2  0  0  0
 18 35  1  0  0  0
 19 20  1  0  0  0
 19 36  1  0  0  0
 20 37  1  0  0  0
M  END
>  <Activity>
1.9

>  <set>
1

>  <Min_dist>
999.9

>  <Avg_dist>
999.9

$$$$
30
  Cerius2 12110214573D 1   1.00000                          
 
 38 39  0  0  0  0  0  0  0  0999 V2000
   -1.6801   -0.9050    1.2199 C   0  0  0  0  0  0
   -2.5324   -1.6763    0.2096 C   0  0  0  0  0  0
   -2.3500   -1.0511   -1.1781 C   0  0  0  0  0  0
   -2.6486    0.4495   -1.0829 C   0  0  0  0  0  0
   -1.7875    1.0599    0.0252 C   0  0  0  0  0  0
   -2.0535    2.5644    0.1055 C   0  0  0  0  0  0
   -1.2500    3.1357    1.1400 O   0  0  0  0  0  0
   -2.1089    0.4541    1.2759 O   0  0  0  0  0  0
   -2.3407    1.0781   -2.3288 O   0  0  0  0  0  0
   -1.0045   -1.2453   -1.6184 O   0  0  0  0  0  0
   -3.9079   -1.6032    0.5899 O   0  0  0  0  0  0
   -0.2341   -0.9573    0.7988 C   0  0  0  0  0  0
    0.2269   -1.9803    0.3383 O   0  0  0  0  0  0
    0.5469    0.1328    0.9339 N   0  0  0  0  0  0
    1.8845    0.0920    0.5190 C   0  0  0  0  0  0
    2.4780    1.2236   -0.0243 C   0  0  0  0  0  0
    3.7965    1.1828   -0.4326 C   0  0  0  0  0  0
    4.5280    0.0116   -0.3005 C   0  0  0  0  0  0
    3.9355   -1.1195    0.2417 C   0  0  0  0  0  0
    2.6189   -1.0783    0.6561 C   0  0  0  0  0  0
    5.8261   -0.0280   -0.7032 O   0  0  0  0  0  0
   -1.7862   -1.3593    2.2050 H   0  0  0  0  0  0
   -2.2144   -2.7186    0.1846 H   0  0  0  0  0  0
   -3.0389   -1.5171   -1.8826 H   0  0  0  0  0  0
   -3.7028    0.5974   -0.8489 H   0  0  0  0  0  0
   -0.7345    0.8896   -0.1988 H   0  0  0  0  0  0
   -1.8025    3.0292   -0.8480 H   0  0  0  0  0  0
   -3.1069    2.7359    0.3271 H   0  0  0  0  0  0
   -1.4476    4.0821    1.1569 H   0  0  0  0  0  0
   -2.8987    0.6595   -2.9985 H   0  0  0  0  0  0
   -0.8562   -2.2003   -1.6512 H   0  0  0  0  0  0
   -3.9762   -1.9997    1.4692 H   0  0  0  0  0  0
    0.1829    0.9456    1.3183 H   0  0  0  0  0  0
    1.9085    2.1354   -0.1278 H   0  0  0  0  0  0
    4.2583    2.0630   -0.8551 H   0  0  0  0  0  0
    4.5053   -2.0313    0.3436 H   0  0  0  0  0  0
    2.1577   -1.9590    1.0783 H   0  0  0  0  0  0
    6.3631    0.2278    0.0592 H   0  0  0  0  0  0
  1  2  1  0  0  0
  1  8  1  0  0  0
  1 12  1  0  0  0
  1 22  1  0  0  0
  2  3  1  0  0  0
  2 11  1  0  0  0
  2 23  1  0  0  0
  3  4  1  0  0  0
  3 10  1  0  0  0
  3 24  1  0  0  0
  4  5  1  0  0  0
  4  9  1  0  0  0
  4 25  1  0  0  0
  5  6  1  0  0  0
  5  8  1  0  0  0
  5 26  1  0  0  0
  6  7  1  0  0  0
  6 27  1  0  0  0
  6 28  1  0  0  0
  7 29  1  0  0  0
  9 30  1  0  0  0
 10 31  1  0  0  0
 11 32  1  0  0  0
 12 13  2  0  0  0
 12 14  1  0  0  0
 14 15  1  0  0  0
 14 33  1  0  0  0
 15 16  1  0  0  0
 15 20  2  0  0  0
 16 17  2  0  0  0
 16 34  1  0  0  0
 17 18  1  0  0  0
 17 35  1  0  0  0
 18 19  2  0  0  0
 18 21  1  0  0  0
 19 20  1  0  0  0
 19 36  1  0  0  0
 20 37  1  0  0  0
 21 38  1  0  0  0
M  END
>  <Activity>
2.3

>  <set>
1

>  <Min_dist>
999.9

>  <Avg_dist>
999.9

$$$$
31
  Cerius2 12110214573D 1   1.00000                          
 
 29 29  0  0  0  0  0  0  0  0999 V2000
   -0.4778    0.2966   -0.0711 C   0  0  0  0  0  0
    0.0444   -1.1413   -0.1133 C   0  0  0  0  0  0
    1.5142   -1.1263   -0.5483 C   0  0  0  0  0  0
    2.2888   -0.1773    0.3732 C   0  0  0  0  0  0
    1.5968    1.1877    0.3785 C   0  0  0  0  0  0
    1.5490    1.7393   -1.0478 C   0  0  0  0  0  0
    0.9453    3.0345   -1.0377 O   0  0  0  0  0  0
    0.2682    1.0539    0.8799 O   0  0  0  0  0  0
    2.3081   -0.7087    1.6996 O   0  0  0  0  0  0
    2.0580   -2.4438   -0.4461 O   0  0  0  0  0  0
   -0.7233   -1.9015   -1.0485 O   0  0  0  0  0  0
   -1.9322    0.2901    0.3235 C   0  0  0  0  0  0
   -2.2900    0.8698    1.3214 O   0  0  0  0  0  0
   -2.8301   -0.3598   -0.4335 O   0  0  0  0  0  0
   -4.2314   -0.3661   -0.0533 C   0  0  0  0  0  0
   -0.3729    0.7492   -1.0572 H   0  0  0  0  0  0
   -0.0381   -1.5884    0.8774 H   0  0  0  0  0  0
    1.5873   -0.7767   -1.5781 H   0  0  0  0  0  0
    3.3099   -0.0671    0.0081 H   0  0  0  0  0  0
    2.1554    1.8747    1.0142 H   0  0  0  0  0  0
    2.5622    1.8138   -1.4427 H   0  0  0  0  0  0
    0.9622    1.0698   -1.6768 H   0  0  0  0  0  0
    0.9348    3.3451   -1.9533 H   0  0  0  0  0  0
    2.7450   -1.5699    1.6493 H   0  0  0  0  0  0
    1.5339   -3.0086   -1.0304 H   0  0  0  0  0  0
   -1.6400   -1.8787   -0.7416 H   0  0  0  0  0  0
   -4.8032   -0.9396   -0.7828 H   0  0  0  0  0  0
   -4.3386   -0.8211    0.9314 H   0  0  0  0  0  0
   -4.6043    0.6577   -0.0230 H   0  0  0  0  0  0
  1  2  1  0  0  0
  1  8  1  0  0  0
  1 12  1  0  0  0
  1 16  1  0  0  0
  2  3  1  0  0  0
  2 11  1  0  0  0
  2 17  1  0  0  0
  3  4  1  0  0  0
  3 10  1  0  0  0
  3 18  1  0  0  0
  4  5  1  0  0  0
  4  9  1  0  0  0
  4 19  1  0  0  0
  5  6  1  0  0  0
  5  8  1  0  0  0
  5 20  1  0  0  0
  6  7  1  0  0  0
  6 21  1  0  0  0
  6 22  1  0  0  0
  7 23  1  0  0  0
  9 24  1  0  0  0
 10 25  1  0  0  0
 11 26  1  0  0  0
 12 13  2  0  0  0
 12 14  1  0  0  0
 14 15  1  0  0  0
 15 27  1  0  0  0
 15 28  1  0  0  0
 15 29  1  0  0  0
M  END
>  <Activity>
1.6

>  <set>
1

>  <Min_dist>
999.9

>  <Avg_dist>
999.9

$$$$
32
  Cerius2 12110214573D 1   1.00000                          
 
 22 22  0  0  0  0  0  0  0  0999 V2000
   -0.4700   -1.5302    0.2478 C   0  0  0  0  0  0
   -1.5419   -0.4799    0.5476 C   0  0  0  0  0  0
   -1.1864    0.8194   -0.1839 C   0  0  0  0  0  0
    0.2439    1.2199    0.1951 C   0  0  0  0  0  0
    1.1808    0.0410   -0.0780 C   0  0  0  0  0  0
    2.6167    0.4423    0.2654 C   0  0  0  0  0  0
    3.4925   -0.6578    0.0107 O   0  0  0  0  0  0
    0.7968   -1.0764    0.7209 O   0  0  0  0  0  0
    0.6492    2.3441   -0.5885 O   0  0  0  0  0  0
   -2.0930    1.8528    0.2063 O   0  0  0  0  0  0
   -2.7861   -0.9412    0.1043 F   0  0  0  0  0  0
   -0.4014   -1.7437   -1.1332 F   0  0  0  0  0  0
   -0.7291   -2.4647    0.7455 H   0  0  0  0  0  0
   -1.5813   -0.2951    1.6211 H   0  0  0  0  0  0
   -1.2490    0.6620   -1.2606 H   0  0  0  0  0  0
    0.2820    1.4785    1.2533 H   0  0  0  0  0  0
    1.1228   -0.2313   -1.1319 H   0  0  0  0  0  0
    2.9132    1.2925   -0.3490 H   0  0  0  0  0  0
    2.6752    0.7171    1.3185 H   0  0  0  0  0  0
    4.3848   -0.3635    0.2396 H   0  0  0  0  0  0
    0.0294    3.0599   -0.3918 H   0  0  0  0  0  0
   -2.9795    1.5539   -0.0384 H   0  0  0  0  0  0
  1  2  1  0  0  0
  1  8  1  0  0  0
  1 12  1  0  0  0
  1 13  1  0  0  0
  2  3  1  0  0  0
  2 11  1  0  0  0
  2 14  1  0  0  0
  3  4  1  0  0  0
  3 10  1  0  0  0
  3 15  1  0  0  0
  4  5  1  0  0  0
  4  9  1  0  0  0
  4 16  1  0  0  0
  5  6  1  0  0  0
  5  8  1  0  0  0
  5 17  1  0  0  0
  6  7  1  0  0  0
  6 18  1  0  0  0
  6 19  1  0  0  0
  7 20  1  0  0  0
  9 21  1  0  0  0
 10 22  1  0  0  0
M  END
>  <Activity>
3.7

>  <set>
1

>  <Min_dist>
999.9

>  <Avg_dist>
999.9

$$$$
34
  Cerius2 12110214573D 1   1.00000                          
 
 30 30  0  0  0  0  0  0  0  0999 V2000
   -0.7000    0.0308    0.3660 C   0  0  0  0  0  0
   -0.4925   -1.3334   -0.2957 C   0  0  0  0  0  0
    0.9371   -1.8112   -0.0173 C   0  0  0  0  0  0
    1.9149   -0.7163   -0.4587 C   0  0  0  0  0  0
    1.5253    0.6013    0.2153 C   0  0  0  0  0  0
    2.5159    1.6937   -0.1925 C   0  0  0  0  0  0
    2.1531    2.9246    0.4363 O   0  0  0  0  0  0
    0.2102    0.9795   -0.1871 O   0  0  0  0  0  0
    3.2426   -1.0767   -0.0722 O   0  0  0  0  0  0
    1.0957   -2.0606    1.3808 O   0  0  0  0  0  0
   -0.6914   -1.2160   -1.7059 O   0  0  0  0  0  0
   -2.1138    0.4942    0.1261 C   0  0  0  0  0  0
   -2.3194    1.5321   -0.4666 O   0  0  0  0  0  0
   -3.1497   -0.2449    0.5701 N   0  0  0  0  0  0
   -4.5240    0.2056    0.3369 C   0  0  0  0  0  0
   -0.5253   -0.0563    1.4384 H   0  0  0  0  0  0
   -1.2032   -2.0502    0.1158 H   0  0  0  0  0  0
    1.1333   -2.7247   -0.5788 H   0  0  0  0  0  0
    1.8676   -0.5999   -1.5414 H   0  0  0  0  0  0
    1.5498    0.4757    1.2978 H   0  0  0  0  0  0
    3.5204    1.4083    0.1200 H   0  0  0  0  0  0
    2.4938    1.8184   -1.2751 H   0  0  0  0  0  0
    2.8010    3.5844    0.1535 H   0  0  0  0  0  0
    3.4442   -1.9138   -0.5123 H   0  0  0  0  0  0
    0.4542   -2.7444    1.6173 H   0  0  0  0  0  0
   -1.5983   -0.9067   -1.8355 H   0  0  0  0  0  0
   -2.9852   -1.0750    1.0442 H   0  0  0  0  0  0
   -5.2203   -0.5159    0.7645 H   0  0  0  0  0  0
   -4.6728    1.1772    0.8078 H   0  0  0  0  0  0
   -4.7016    0.2904   -0.7352 H   0  0  0  0  0  0
  1  2  1  0  0  0
  1  8  1  0  0  0
  1 12  1  0  0  0
  1 16  1  0  0  0
  2  3  1  0  0  0
  2 11  1  0  0  0
  2 17  1  0  0  0
  3  4  1  0  0  0
  3 10  1  0  0  0
  3 18  1  0  0  0
  4  5  1  0  0  0
  4  9  1  0  0  0
  4 19  1  0  0  0
  5  6  1  0  0  0
  5  8  1  0  0  0
  5 20  1  0  0  0
  6  7  1  0  0  0
  6 21  1  0  0  0
  6 22  1  0  0  0
  7 23  1  0  0  0
  9 24  1  0  0  0
 10 25  1  0  0  0
 11 26  1  0  0  0
 12 13  2  0  0  0
 12 14  1  0  0  0
 14 15  1  0  0  0
 14 27  1  0  0  0
 15 28  1  0  0  0
 15 29  1  0  0  0
 15 30  1  0  0  0
M  END
>  <Activity>
3.7

>  <set>
1

>  <Min_dist>
999.9

>  <Avg_dist>
999.9

$$$$
35
  Cerius2 12110214573D 1   1.00000                          
 
 29 29  0  0  0  0  0  0  0  0999 V2000
   -0.6903    0.0358    0.3532 C   0  0  0  0  0  0
   -0.4832   -1.3297   -0.3060 C   0  0  0  0  0  0
    0.9426   -1.8128   -0.0169 C   0  0  0  0  0  0
    1.9277   -0.7218   -0.4518 C   0  0  0  0  0  0
    1.5382    0.5977    0.2184 C   0  0  0  0  0  0
    2.5359    1.6860   -0.1829 C   0  0  0  0  0  0
    2.1733    2.9187    0.4424 O   0  0  0  0  0  0
    0.2275    0.9806   -0.1939 O   0  0  0  0  0  0
    3.2511   -1.0870   -0.0555 O   0  0  0  0  0  0
    1.0900   -2.0617    1.3825 O   0  0  0  0  0  0
   -0.6713   -1.2125   -1.7178 O   0  0  0  0  0  0
   -2.1005    0.5044    0.1027 C   0  0  0  0  0  0
   -2.2978    1.5427   -0.4922 O   0  0  0  0  0  0
   -3.1424   -0.2304    0.5396 N   0  0  0  0  0  0
   -4.4207    0.1943    0.3125 N   0  0  0  0  0  0
   -0.5238   -0.0512    1.4269 H   0  0  0  0  0  0
   -1.1996   -2.0434    0.1007 H   0  0  0  0  0  0
    1.1394   -2.7273   -0.5763 H   0  0  0  0  0  0
    1.8888   -0.6060   -1.5350 H   0  0  0  0  0  0
    1.5543    0.4727    1.3011 H   0  0  0  0  0  0
    3.5370    1.3970    0.1371 H   0  0  0  0  0  0
    2.5222    1.8100   -1.2657 H   0  0  0  0  0  0
    2.8257    3.5759    0.1640 H   0  0  0  0  0  0
    3.4528   -1.9252   -0.4935 H   0  0  0  0  0  0
    0.4441   -2.7429    1.6147 H   0  0  0  0  0  0
   -1.5761   -0.8998   -1.8542 H   0  0  0  0  0  0
   -2.9846   -1.0609    1.0154 H   0  0  0  0  0  0
   -5.0326   -0.4975    0.7189 H   0  0  0  0  0  0
   -4.5443    1.0408    0.8475 H   0  0  0  0  0  0
  1  2  1  0  0  0
  1  8  1  0  0  0
  1 12  1  0  0  0
  1 16  1  0  0  0
  2  3  1  0  0  0
  2 11  1  0  0  0
  2 17  1  0  0  0
  3  4  1  0  0  0
  3 10  1  0  0  0
  3 18  1  0  0  0
  4  5  1  0  0  0
  4  9  1  0  0  0
  4 19  1  0  0  0
  5  6  1  0  0  0
  5  8  1  0  0  0
  5 20  1  0  0  0
  6  7  1  0  0  0
  6 21  1  0  0  0
  6 22  1  0  0  0
  7 23  1  0  0  0
  9 24  1  0  0  0
 10 25  1  0  0  0
 11 26  1  0  0  0
 12 13  2  0  0  0
 12 14  1  0  0  0
 14 15  1  0  0  0
 14 27  1  0  0  0
 15 28  1  0  0  0
 15 29  1  0  0  0
M  END
>  <Activity>
3.4

>  <set>
1

>  <Min_dist>
999.9

>  <Avg_dist>
999.9

$$$$
36
  Cerius2 12110214573D 1   1.00000                          
 
 30 30  0  0  0  0  0  0  0  0999 V2000
    0.1516   -0.4599   -0.2050 C   0  0  0  0  0  0
    1.0377   -1.6333   -0.6291 C   0  0  0  0  0  0
    2.4244   -1.4657    0.0025 C   0  0  0  0  0  0
    2.9632   -0.0769   -0.3587 C   0  0  0  0  0  0
    1.9314    0.9788    0.0449 C   0  0  0  0  0  0
    2.4745    2.3715   -0.2808 C   0  0  0  0  0  0
    1.5119    3.3583    0.0956 O   0  0  0  0  0  0
    0.7160    0.7647   -0.6702 O   0  0  0  0  0  0
    4.1867    0.1582    0.3413 O   0  0  0  0  0  0
    2.3220   -1.5858    1.4228 O   0  0  0  0  0  0
    0.4540   -2.8589   -0.1829 O   0  0  0  0  0  0
   -1.1863   -0.6280   -0.7778 N   0  0  0  0  0  0
   -2.2627   -0.1394   -0.1305 C   0  0  0  0  0  0
   -2.1238    0.4396    0.9261 O   0  0  0  0  0  0
   -3.6390   -0.3124   -0.7197 C   0  0  0  0  0  0
   -4.8593    0.4429    0.3717 Cl  0  0  0  0  0  0
    0.0787   -0.4353    0.8823 H   0  0  0  0  0  0
    1.1308   -1.6462   -1.7150 H   0  0  0  0  0  0
    3.0973   -2.2311   -0.3841 H   0  0  0  0  0  0
    3.1398   -0.0223   -1.4329 H   0  0  0  0  0  0
    1.7385    0.9063    1.1153 H   0  0  0  0  0  0
    3.4003    2.5384    0.2699 H   0  0  0  0  0  0
    2.6700    2.4442   -1.3507 H   0  0  0  0  0  0
    1.8927    4.2191   -0.1260 H   0  0  0  0  0  0
    4.8045   -0.5320    0.0637 H   0  0  0  0  0  0
    1.9677   -2.4671    1.6039 H   0  0  0  0  0  0
   -0.4176   -2.9205   -0.5971 H   0  0  0  0  0  0
   -1.2974   -1.0911   -1.6228 H   0  0  0  0  0  0
   -3.6788    0.1683   -1.6971 H   0  0  0  0  0  0
   -3.8568   -1.3749   -0.8282 H   0  0  0  0  0  0
  1  2  1  0  0  0
  1  8  1  0  0  0
  1 12  1  0  0  0
  1 17  1  0  0  0
  2  3  1  0  0  0
  2 11  1  0  0  0
  2 18  1  0  0  0
  3  4  1  0  0  0
  3 10  1  0  0  0
  3 19  1  0  0  0
  4  5  1  0  0  0
  4  9  1  0  0  0
  4 20  1  0  0  0
  5  6  1  0  0  0
  5  8  1  0  0  0
  5 21  1  0  0  0
  6  7  1  0  0  0
  6 22  1  0  0  0
  6 23  1  0  0  0
  7 24  1  0  0  0
  9 25  1  0  0  0
 10 26  1  0  0  0
 11 27  1  0  0  0
 12 13  1  0  0  0
 12 28  1  0  0  0
 13 14  2  0  0  0
 13 15  1  0  0  0
 15 16  1  0  0  0
 15 29  1  0  0  0
 15 30  1  0  0  0
M  END
>  <Activity>
4.4

>  <set>
1

>  <Min_dist>
999.9

>  <Avg_dist>
999.9

$$$$
37
  Cerius2 12110214573D 1   1.00000                          
 
 30 30  0  0  0  0  0  0  0  0999 V2000
   -0.6754   -0.2720   -0.1065 C   0  0  0  0  0  0
   -0.0439   -1.5619   -0.6351 C   0  0  0  0  0  0
    1.3940   -1.6640   -0.1139 C   0  0  0  0  0  0
    2.1402   -0.3753   -0.4774 C   0  0  0  0  0  0
    1.3434    0.8248    0.0393 C   0  0  0  0  0  0
    2.0971    2.1152   -0.2891 C   0  0  0  0  0  0
    1.3541    3.2366    0.1929 O   0  0  0  0  0  0
    0.0591    0.8551   -0.5804 O   0  0  0  0  0  0
    3.4349   -0.3856    0.1272 O   0  0  0  0  0  0
    1.3791   -1.8252    1.3059 O   0  0  0  0  0  0
   -0.7989   -2.6859   -0.1785 O   0  0  0  0  0  0
   -2.0612   -0.1814   -0.5731 N   0  0  0  0  0  0
   -2.9832    0.4581    0.1735 C   0  0  0  0  0  0
   -2.6657    0.9585    1.2317 O   0  0  0  0  0  0
   -4.4087    0.5512   -0.3064 C   0  0  0  0  0  0
   -0.6610   -0.2817    0.9834 H   0  0  0  0  0  0
   -0.0364   -1.5442   -1.7249 H   0  0  0  0  0  0
    1.8909   -2.5171   -0.5760 H   0  0  0  0  0  0
    2.2424   -0.3062   -1.5604 H   0  0  0  0  0  0
    1.2217    0.7411    1.1192 H   0  0  0  0  0  0
    3.0764    2.0956    0.1890 H   0  0  0  0  0  0
    2.2214    2.1986   -1.3687 H   0  0  0  0  0  0
    1.8626    4.0272   -0.0339 H   0  0  0  0  0  0
    3.8991   -1.1598   -0.2196 H   0  0  0  0  0  0
    0.8898   -2.6388    1.4897 H   0  0  0  0  0  0
   -1.6964   -2.5779   -0.5221 H   0  0  0  0  0  0
   -2.3151   -0.5817   -1.4193 H   0  0  0  0  0  0
   -5.0029    1.1000    0.4242 H   0  0  0  0  0  0
   -4.4366    1.0729   -1.2631 H   0  0  0  0  0  0
   -4.8176   -0.4519   -0.4275 H   0  0  0  0  0  0
  1  2  1  0  0  0
  1  8  1  0  0  0
  1 12  1  0  0  0
  1 16  1  0  0  0
  2  3  1  0  0  0
  2 11  1  0  0  0
  2 17  1  0  0  0
  3  4  1  0  0  0
  3 10  1  0  0  0
  3 18  1  0  0  0
  4  5  1  0  0  0
  4  9  1  0  0  0
  4 19  1  0  0  0
  5  6  1  0  0  0
  5  8  1  0  0  0
  5 20  1  0  0  0
  6  7  1  0  0  0
  6 21  1  0  0  0
  6 22  1  0  0  0
  7 23  1  0  0  0
  9 24  1  0  0  0
 10 25  1  0  0  0
 11 26  1  0  0  0
 12 13  1  0  0  0
 12 27  1  0  0  0
 13 14  2  0  0  0
 13 15  1  0  0  0
 15 28  1  0  0  0
 15 29  1  0  0  0
 15 30  1  0  0  0
M  END
>  <Activity>
4.5

>  <set>
1

>  <Min_dist>
999.9

>  <Avg_dist>
999.9

$$$$
38
  Cerius2 12110214573D 1   1.00000                          
 
 33 33  0  0  0  0  0  0  0  0999 V2000
   -0.3108   -0.3946   -0.1605 C   0  0  0  0  0  0
    0.4822   -1.6139   -0.6366 C   0  0  0  0  0  0
    1.8994   -1.5455   -0.0565 C   0  0  0  0  0  0
    2.5118   -0.1872   -0.4169 C   0  0  0  0  0  0
    1.5653    0.9241    0.0426 C   0  0  0  0  0  0
    2.1835    2.2854   -0.2824 C   0  0  0  0  0  0
    1.3006    3.3240    0.1462 O   0  0  0  0  0  0
    0.3127    0.7999   -0.6282 O   0  0  0  0  0  0
    3.7732   -0.0424    0.2388 O   0  0  0  0  0  0
    1.8431   -1.6842    1.3646 O   0  0  0  0  0  0
   -0.1613   -2.8080   -0.1871 O   0  0  0  0  0  0
   -1.6772   -0.4678   -0.6836 N   0  0  0  0  0  0
   -2.6952    0.0762    0.0122 C   0  0  0  0  0  0
   -2.4801    0.6263    1.0714 O   0  0  0  0  0  0
   -4.1009    0.0010   -0.5260 C   0  0  0  0  0  0
   -5.0579    0.6895    0.4493 C   0  0  0  0  0  0
   -0.3410   -0.3849    0.9290 H   0  0  0  0  0  0
    0.5333   -1.6133   -1.7254 H   0  0  0  0  0  0
    2.5072   -2.3448   -0.4806 H   0  0  0  0  0  0
    2.6510   -0.1247   -1.4961 H   0  0  0  0  0  0
    1.4085    0.8448    1.1183 H   0  0  0  0  0  0
    3.1381    2.3836    0.2346 H   0  0  0  0  0  0
    2.3429    2.3647   -1.3577 H   0  0  0  0  0  0
    1.7269    4.1629   -0.0767 H   0  0  0  0  0  0
    4.3349   -0.7651   -0.0730 H   0  0  0  0  0  0
    1.4403   -2.5445    1.5457 H   0  0  0  0  0  0
   -1.0500   -2.8071   -0.5682 H   0  0  0  0  0  0
   -1.8493   -0.9077   -1.5308 H   0  0  0  0  0  0
   -4.1467    0.5006   -1.4936 H   0  0  0  0  0  0
   -4.3899   -1.0435   -0.6423 H   0  0  0  0  0  0
   -6.0745    0.6350    0.0601 H   0  0  0  0  0  0
   -5.0120    0.1898    1.4170 H   0  0  0  0  0  0
   -4.7688    1.7340    0.5656 H   0  0  0  0  0  0
  1  2  1  0  0  0
  1  8  1  0  0  0
  1 12  1  0  0  0
  1 17  1  0  0  0
  2  3  1  0  0  0
  2 11  1  0  0  0
  2 18  1  0  0  0
  3  4  1  0  0  0
  3 10  1  0  0  0
  3 19  1  0  0  0
  4  5  1  0  0  0
  4  9  1  0  0  0
  4 20  1  0  0  0
  5  6  1  0  0  0
  5  8  1  0  0  0
  5 21  1  0  0  0
  6  7  1  0  0  0
  6 22  1  0  0  0
  6 23  1  0  0  0
  7 24  1  0  0  0
  9 25  1  0  0  0
 10 26  1  0  0  0
 11 27  1  0  0  0
 12 13  1  0  0  0
 12 28  1  0  0  0
 13 14  2  0  0  0
 13 15  1  0  0  0
 15 16  1  0  0  0
 15 29  1  0  0  0
 15 30  1  0  0  0
 16 31  1  0  0  0
 16 32  1  0  0  0
 16 33  1  0  0  0
M  END
>  <Activity>
4.4

>  <set>
1

>  <Min_dist>
999.9

>  <Avg_dist>
999.9

$$$$
39
  Cerius2 12110214573D 1   1.00000                          
 
 30 30  0  0  0  0  0  0  0  0999 V2000
   -0.9346   -0.5052    0.2451 C   0  0  0  0  0  0
   -1.8886   -1.6421    0.6186 C   0  0  0  0  0  0
   -3.2419   -1.4017   -0.0600 C   0  0  0  0  0  0
   -3.7295    0.0055    0.3031 C   0  0  0  0  0  0
   -2.6362    1.0177   -0.0465 C   0  0  0  0  0  0
   -3.1266    2.4295    0.2811 C   0  0  0  0  0  0
   -2.1066    3.3756   -0.0449 O   0  0  0  0  0  0
   -1.4590    0.7375    0.7086 O   0  0  0  0  0  0
   -4.9143    0.3067   -0.4368 O   0  0  0  0  0  0
   -3.0930   -1.5067   -1.4773 O   0  0  0  0  0  0
   -1.3456   -2.8872    0.1747 O   0  0  0  0  0  0
    0.3722   -0.7432    0.8631 N   0  0  0  0  0  0
    1.4930   -0.2960    0.2628 C   0  0  0  0  0  0
    1.4197    0.3034   -0.7889 O   0  0  0  0  0  0
    2.8372   -0.5408    0.8986 C   0  0  0  0  0  0
    4.2471    0.2367   -0.2297 Br  0  0  0  0  0  0
   -0.8207   -0.4690   -0.8383 H   0  0  0  0  0  0
   -2.0220   -1.6658    1.7001 H   0  0  0  0  0  0
   -3.9629   -2.1404    0.2901 H   0  0  0  0  0  0
   -3.9428    0.0533    1.3710 H   0  0  0  0  0  0
   -2.4076    0.9512   -1.1101 H   0  0  0  0  0  0
   -4.0228    2.6467   -0.3000 H   0  0  0  0  0  0
   -3.3578    2.4963    1.3442 H   0  0  0  0  0  0
   -2.4554    4.2500    0.1762 H   0  0  0  0  0  0
   -5.5729   -0.3579   -0.1926 H   0  0  0  0  0  0
   -2.7729   -2.4009   -1.6593 H   0  0  0  0  0  0
   -0.4936   -2.9949    0.6191 H   0  0  0  0  0  0
    0.4308   -1.2226    1.7043 H   0  0  0  0  0  0
    2.8630   -0.0761    1.8842 H   0  0  0  0  0  0
    3.0020   -1.6136    0.9983 H   0  0  0  0  0  0
  1  2  1  0  0  0
  1  8  1  0  0  0
  1 12  1  0  0  0
  1 17  1  0  0  0
  2  3  1  0  0  0
  2 11  1  0  0  0
  2 18  1  0  0  0
  3  4  1  0  0  0
  3 10  1  0  0  0
  3 19  1  0  0  0
  4  5  1  0  0  0
  4  9  1  0  0  0
  4 20  1  0  0  0
  5  6  1  0  0  0
  5  8  1  0  0  0
  5 21  1  0  0  0
  6  7  1  0  0  0
  6 22  1  0  0  0
  6 23  1  0  0  0
  7 24  1  0  0  0
  9 25  1  0  0  0
 10 26  1  0  0  0
 11 27  1  0  0  0
 12 13  1  0  0  0
 12 28  1  0  0  0
 13 14  2  0  0  0
 13 15  1  0  0  0
 15 16  1  0  0  0
 15 29  1  0  0  0
 15 30  1  0  0  0
M  END
>  <Activity>
4.4

>  <set>
1

>  <Min_dist>
999.9

>  <Avg_dist>
999.9

$$$$
41
  Cerius2 12110214573D 1   1.00000                          
 
 36 36  0  0  0  0  0  0  0  0999 V2000
    0.0748   -0.4260   -0.1541 C   0  0  0  0  0  0
    0.9092   -1.6144   -0.6372 C   0  0  0  0  0  0
    2.3264   -1.4949   -0.0654 C   0  0  0  0  0  0
    2.8862   -0.1144   -0.4265 C   0  0  0  0  0  0
    1.9022    0.9605    0.0407 C   0  0  0  0  0  0
    2.4679    2.3442   -0.2851 C   0  0  0  0  0  0
    1.5499    3.3489    0.1507 O   0  0  0  0  0  0
    0.6510    0.7915   -0.6230 O   0  0  0  0  0  0
    4.1453    0.0757    0.2221 O   0  0  0  0  0  0
    2.2837   -1.6382    1.3558 O   0  0  0  0  0  0
    0.3128   -2.8322   -0.1864 O   0  0  0  0  0  0
   -1.2912   -0.5485   -0.6693 N   0  0  0  0  0  0
   -2.3244   -0.0436    0.0336 C   0  0  0  0  0  0
   -2.1233    0.5121    1.0927 O   0  0  0  0  0  0
   -3.7294   -0.1696   -0.4965 C   0  0  0  0  0  0
   -4.7053    0.4813    0.4858 C   0  0  0  0  0  0
   -6.1318    0.3534   -0.0524 C   0  0  0  0  0  0
    0.0506   -0.4194    0.9357 H   0  0  0  0  0  0
    0.9538   -1.6099   -1.7263 H   0  0  0  0  0  0
    2.9607   -2.2705   -0.4947 H   0  0  0  0  0  0
    3.0166   -0.0448   -1.5065 H   0  0  0  0  0  0
    1.7548    0.8736    1.1172 H   0  0  0  0  0  0
    3.4212    2.4767    0.2265 H   0  0  0  0  0  0
    2.6178    2.4313   -1.3612 H   0  0  0  0  0  0
    1.9436    4.2033   -0.0729 H   0  0  0  0  0  0
    4.7314   -0.6253   -0.0945 H   0  0  0  0  0  0
    1.9139   -2.5131    1.5375 H   0  0  0  0  0  0
   -0.5776   -2.8633   -0.5623 H   0  0  0  0  0  0
   -1.4520   -0.9930   -1.5164 H   0  0  0  0  0  0
   -3.7994    0.3297   -1.4628 H   0  0  0  0  0  0
   -3.9805   -1.2238   -0.6132 H   0  0  0  0  0  0
   -4.6354   -0.0180    1.4521 H   0  0  0  0  0  0
   -4.4542    1.5356    0.6026 H   0  0  0  0  0  0
   -6.8271    0.8172    0.6474 H   0  0  0  0  0  0
   -6.2018    0.8528   -1.0187 H   0  0  0  0  0  0
   -6.3830   -0.7008   -0.1691 H   0  0  0  0  0  0
  1  2  1  0  0  0
  1  8  1  0  0  0
  1 12  1  0  0  0
  1 18  1  0  0  0
  2  3  1  0  0  0
  2 11  1  0  0  0
  2 19  1  0  0  0
  3  4  1  0  0  0
  3 10  1  0  0  0
  3 20  1  0  0  0
  4  5  1  0  0  0
  4  9  1  0  0  0
  4 21  1  0  0  0
  5  6  1  0  0  0
  5  8  1  0  0  0
  5 22  1  0  0  0
  6  7  1  0  0  0
  6 23  1  0  0  0
  6 24  1  0  0  0
  7 25  1  0  0  0
  9 26  1  0  0  0
 10 27  1  0  0  0
 11 28  1  0  0  0
 12 13  1  0  0  0
 12 29  1  0  0  0
 13 14  2  0  0  0
 13 15  1  0  0  0
 15 16  1  0  0  0
 15 30  1  0  0  0
 15 31  1  0  0  0
 16 17  1  0  0  0
 16 32  1  0  0  0
 16 33  1  0  0  0
 17 34  1  0  0  0
 17 35  1  0  0  0
 17 36  1  0  0  0
M  END
>  <Activity>
4

>  <set>
1

>  <Min_dist>
999.9

>  <Avg_dist>
999.9

$$$$
43
  Cerius2 12110214573D 1   1.00000                          
 
 32 32  0  0  0  0  0  0  0  0999 V2000
   -0.2933   -0.3891   -0.1591 C   0  0  0  0  0  0
    0.4929   -1.6112   -0.6393 C   0  0  0  0  0  0
    1.9114   -1.5511   -0.0614 C   0  0  0  0  0  0
    2.5299   -0.1951   -0.4197 C   0  0  0  0  0  0
    1.5896    0.9199    0.0439 C   0  0  0  0  0  0
    2.2140    2.2788   -0.2790 C   0  0  0  0  0  0
    1.3370    3.3209    0.1534 O   0  0  0  0  0  0
    0.3353    0.8034   -0.6251 O   0  0  0  0  0  0
    3.7931   -0.0580    0.2343 O   0  0  0  0  0  0
    1.8567   -1.6928    1.3595 O   0  0  0  0  0  0
   -0.1558   -2.8031   -0.1914 O   0  0  0  0  0  0
   -1.6609   -0.4542   -0.6801 N   0  0  0  0  0  0
   -2.6751    0.0932    0.0186 C   0  0  0  0  0  0
   -2.4554    0.6398    1.0788 O   0  0  0  0  0  0
   -4.0819    0.0261   -0.5173 C   0  0  0  0  0  0
   -4.9960    0.6895    0.4221 N   0  0  0  0  0  0
   -0.3217   -0.3817    0.9305 H   0  0  0  0  0  0
    0.5422   -1.6083   -1.7282 H   0  0  0  0  0  0
    2.5145   -2.3524   -0.4884 H   0  0  0  0  0  0
    2.6676   -0.1308   -1.4990 H   0  0  0  0  0  0
    1.4343    0.8389    1.1197 H   0  0  0  0  0  0
    3.1699    2.3712    0.2367 H   0  0  0  0  0  0
    2.3720    2.3598   -1.3544 H   0  0  0  0  0  0
    1.7670    4.1581   -0.0682 H   0  0  0  0  0  0
    4.3507   -0.7827   -0.0801 H   0  0  0  0  0  0
    1.4500   -2.5515    1.5393 H   0  0  0  0  0  0
   -1.0451   -2.7969   -0.5711 H   0  0  0  0  0  0
   -1.8366   -0.8914   -1.5280 H   0  0  0  0  0  0
   -4.1269    0.5282   -1.4838 H   0  0  0  0  0  0
   -4.3764   -1.0167   -0.6356 H   0  0  0  0  0  0
   -5.9207    0.6205    0.0244 H   0  0  0  0  0  0
   -5.0002    0.1335    1.2640 H   0  0  0  0  0  0
  1  2  1  0  0  0
  1  8  1  0  0  0
  1 12  1  0  0  0
  1 17  1  0  0  0
  2  3  1  0  0  0
  2 11  1  0  0  0
  2 18  1  0  0  0
  3  4  1  0  0  0
  3 10  1  0  0  0
  3 19  1  0  0  0
  4  5  1  0  0  0
  4  9  1  0  0  0
  4 20  1  0  0  0
  5  6  1  0  0  0
  5  8  1  0  0  0
  5 21  1  0  0  0
  6  7  1  0  0  0
  6 22  1  0  0  0
  6 23  1  0  0  0
  7 24  1  0  0  0
  9 25  1  0  0  0
 10 26  1  0  0  0
 11 27  1  0  0  0
 12 13  1  0  0  0
 12 28  1  0  0  0
 13 14  2  0  0  0
 13 15  1  0  0  0
 15 16  1  0  0  0
 15 29  1  0  0  0
 15 30  1  0  0  0
 16 31  1  0  0  0
 16 32  1  0  0  0
M  END
>  <Activity>
3.4

>  <set>
1

>  <Min_dist>
999.9

>  <Avg_dist>
999.9

$$$$
44
  Cerius2 12110214573D 1   1.00000                          
 
 37 38  0  0  0  0  0  0  0  0999 V2000
    0.6329   -0.0821    0.3169 C   0  0  0  0  0  0
    0.9955   -1.4386   -0.2917 C   0  0  0  0  0  0
    2.4564   -1.7612    0.0420 C   0  0  0  0  0  0
    3.3333   -0.5878   -0.4097 C   0  0  0  0  0  0
    2.7937    0.7044    0.2078 C   0  0  0  0  0  0
    3.6826    1.8776   -0.2100 C   0  0  0  0  0  0
    3.1798    3.0848    0.3660 O   0  0  0  0  0  0
    1.4605    0.9355   -0.2433 O   0  0  0  0  0  0
    4.6778   -0.8004    0.0251 O   0  0  0  0  0  0
    2.5961   -1.9493    1.4517 O   0  0  0  0  0  0
    0.8293   -1.3862   -1.7100 O   0  0  0  0  0  0
   -0.8120    0.2289    0.0225 C   0  0  0  0  0  0
   -1.1018    1.2218   -0.6109 O   0  0  0  0  0  0
   -1.7822   -0.5964    0.4632 N   0  0  0  0  0  0
   -3.1270   -0.2503    0.2904 C   0  0  0  0  0  0
   -3.5142    1.0825    0.3384 C   0  0  0  0  0  0
   -4.8423    1.4208    0.1675 C   0  0  0  0  0  0
   -5.7860    0.4341   -0.0512 C   0  0  0  0  0  0
   -5.4038   -0.8940   -0.0991 C   0  0  0  0  0  0
   -4.0764   -1.2384    0.0649 C   0  0  0  0  0  0
    0.7823   -0.1175    1.3960 H   0  0  0  0  0  0
    0.3475   -2.2100    0.1245 H   0  0  0  0  0  0
    2.7598   -2.6674   -0.4822 H   0  0  0  0  0  0
    3.3079   -0.5108   -1.4967 H   0  0  0  0  0  0
    2.7974    0.6159    1.2942 H   0  0  0  0  0  0
    4.7005    1.7046    0.1395 H   0  0  0  0  0  0
    3.6815    1.9654   -1.2965 H   0  0  0  0  0  0
    3.7671    3.7973    0.0786 H   0  0  0  0  0  0
    4.9753   -1.6264   -0.3802 H   0  0  0  0  0  0
    2.0189   -2.6864    1.6938 H   0  0  0  0  0  0
   -0.0995   -1.1739   -1.8749 H   0  0  0  0  0  0
   -1.5483   -1.4302    0.9000 H   0  0  0  0  0  0
   -2.7776    1.8536    0.5095 H   0  0  0  0  0  0
   -5.1441    2.4571    0.2051 H   0  0  0  0  0  0
   -6.8240    0.7012   -0.1845 H   0  0  0  0  0  0
   -6.1433   -1.6624   -0.2697 H   0  0  0  0  0  0
   -3.7784   -2.2758    0.0274 H   0  0  0  0  0  0
  1  2  1  0  0  0
  1  8  1  0  0  0
  1 12  1  0  0  0
  1 21  1  0  0  0
  2  3  1  0  0  0
  2 11  1  0  0  0
  2 22  1  0  0  0
  3  4  1  0  0  0
  3 10  1  0  0  0
  3 23  1  0  0  0
  4  5  1  0  0  0
  4  9  1  0  0  0
  4 24  1  0  0  0
  5  6  1  0  0  0
  5  8  1  0  0  0
  5 25  1  0  0  0
  6  7  1  0  0  0
  6 26  1  0  0  0
  6 27  1  0  0  0
  7 28  1  0  0  0
  9 29  1  0  0  0
 10 30  1  0  0  0
 11 31  1  0  0  0
 12 13  2  0  0  0
 12 14  1  0  0  0
 14 15  1  0  0  0
 14 32  1  0  0  0
 15 16  1  0  0  0
 15 20  2  0  0  0
 16 17  2  0  0  0
 16 33  1  0  0  0
 17 18  1  0  0  0
 17 34  1  0  0  0
 18 19  2  0  0  0
 18 35  1  0  0  0
 19 20  1  0  0  0
 19 36  1  0  0  0
 20 37  1  0  0  0
M  END
>  <Activity>
2.3

>  <set>
1

>  <Min_dist>
999.9

>  <Avg_dist>
999.9

$$$$
45
  Cerius2 12110214573D 1   1.00000                          
 
 35 35  0  0  0  0  0  0  0  0999 V2000
   -0.3155   -0.3814    0.3299 C   0  0  0  0  0  0
   -0.0082   -1.2663   -0.8803 C   0  0  0  0  0  0
    1.4928   -1.1947   -1.1830 C   0  0  0  0  0  0
    1.8934    0.2774   -1.3322 C   0  0  0  0  0  0
    1.4422    1.0455   -0.0877 C   0  0  0  0  0  0
    1.8675    2.5099   -0.2119 C   0  0  0  0  0  0
    1.4467    3.2282    0.9496 O   0  0  0  0  0  0
    0.0232    0.9728    0.0368 O   0  0  0  0  0  0
    3.3127    0.3755   -1.4661 O   0  0  0  0  0  0
    2.2273   -1.7850   -0.1087 O   0  0  0  0  0  0
   -0.3735   -2.6170   -0.5901 O   0  0  0  0  0  0
   -1.7431   -0.4687    0.6470 N   0  0  0  0  0  0
   -2.6457    0.1635   -0.1290 C   0  0  0  0  0  0
   -2.2863    0.7242   -1.1453 O   0  0  0  0  0  0
   -3.9455    0.1737    0.2219 O   0  0  0  0  0  0
   -4.9178    0.8548   -0.6141 C   0  0  0  0  0  0
    0.4890   -0.8541    1.5133 C   0  0  0  0  0  0
    0.8211   -2.0177    1.5950 O   0  0  0  0  0  0
    0.8393    0.0162    2.4809 N   0  0  0  0  0  0
   -0.5716   -0.9120   -1.7436 H   0  0  0  0  0  0
    1.7048   -1.7272   -2.1102 H   0  0  0  0  0  0
    1.4125    0.6986   -2.2150 H   0  0  0  0  0  0
    1.9055    0.6073    0.7963 H   0  0  0  0  0  0
    2.9523    2.5669   -0.3011 H   0  0  0  0  0  0
    1.4066    2.9483   -1.0970 H   0  0  0  0  0  0
    1.7337    4.1440    0.8311 H   0  0  0  0  0  0
    3.5206    1.3155   -1.5570 H   0  0  0  0  0  0
    3.1637   -1.7184   -0.3405 H   0  0  0  0  0  0
   -0.1637   -3.1384   -1.3770 H   0  0  0  0  0  0
   -2.0388   -0.9815    1.4155 H   0  0  0  0  0  0
   -5.9094    0.7559   -0.1724 H   0  0  0  0  0  0
   -4.6569    1.9105   -0.6886 H   0  0  0  0  0  0
   -4.9171    0.4093   -1.6089 H   0  0  0  0  0  0
    1.3603   -0.2873    3.2408 H   0  0  0  0  0  0
    0.5705    0.9460    2.4175 H   0  0  0  0  0  0
  1  2  1  0  0  0
  1  8  1  0  0  0
  1 12  1  0  0  0
  1 17  1  0  0  0
  2  3  1  0  0  0
  2 11  1  0  0  0
  2 20  1  0  0  0
  3  4  1  0  0  0
  3 10  1  0  0  0
  3 21  1  0  0  0
  4  5  1  0  0  0
  4  9  1  0  0  0
  4 22  1  0  0  0
  5  6  1  0  0  0
  5  8  1  0  0  0
  5 23  1  0  0  0
  6  7  1  0  0  0
  6 24  1  0  0  0
  6 25  1  0  0  0
  7 26  1  0  0  0
  9 27  1  0  0  0
 10 28  1  0  0  0
 11 29  1  0  0  0
 12 13  1  0  0  0
 12 30  1  0  0  0
 13 14  2  0  0  0
 13 15  1  0  0  0
 15 16  1  0  0  0
 16 31  1  0  0  0
 16 32  1  0  0  0
 16 33  1  0  0  0
 17 18  2  0  0  0
 17 19  1  0  0  0
 19 34  1  0  0  0
 19 35  1  0  0  0
M  END
>  <Activity>
4.8

>  <set>
1

>  <Min_dist>
999.9

>  <Avg_dist>
999.9

$$$$
49
  Cerius2 12110214573D 1   1.00000                          
 
 34 34  0  0  0  0  0  0  0  0999 V2000
   -0.0598    0.1350    0.1616 C   0  0  0  0  0  0
    0.1106   -1.1975   -0.5714 C   0  0  0  0  0  0
    1.4342   -1.8392   -0.1398 C   0  0  0  0  0  0
    2.5639   -0.8260   -0.3561 C   0  0  0  0  0  0
    2.2078    0.4784    0.3606 C   0  0  0  0  0  0
    3.3453    1.4855    0.1790 C   0  0  0  0  0  0
    3.0139    2.7040    0.8479 O   0  0  0  0  0  0
    1.0056    1.0174   -0.1858 O   0  0  0  0  0  0
    3.7826   -1.3475    0.1777 O   0  0  0  0  0  0
    1.3666   -2.1941    1.2427 O   0  0  0  0  0  0
    0.1279   -0.9685   -1.9819 O   0  0  0  0  0  0
   -1.3746    0.7582   -0.2310 C   0  0  0  0  0  0
   -1.3943    1.8483   -0.7623 O   0  0  0  0  0  0
   -2.5285    0.1041    0.0082 N   0  0  0  0  0  0
   -3.8066    0.7099   -0.3736 C   0  0  0  0  0  0
   -4.9510   -0.2319    0.0062 C   0  0  0  0  0  0
   -4.9335   -0.4580    1.4171 O   0  0  0  0  0  0
   -0.0496   -0.0394    1.2375 H   0  0  0  0  0  0
   -0.7161   -1.8613   -0.3185 H   0  0  0  0  0  0
    1.6217   -2.7297   -0.7398 H   0  0  0  0  0  0
    2.6835   -0.6352   -1.4226 H   0  0  0  0  0  0
    2.0651    0.2808    1.4230 H   0  0  0  0  0  0
    4.2632    1.0770    0.6017 H   0  0  0  0  0  0
    3.4904    1.6820   -0.8833 H   0  0  0  0  0  0
    3.7550    3.3096    0.7089 H   0  0  0  0  0  0
    3.9653   -2.1708   -0.2956 H   0  0  0  0  0  0
    0.6361   -2.8211    1.3350 H   0  0  0  0  0  0
   -0.7179   -0.5583   -2.2088 H   0  0  0  0  0  0
   -2.5127   -0.7677    0.4331 H   0  0  0  0  0  0
   -3.9289    1.6591    0.1481 H   0  0  0  0  0  0
   -3.8199    0.8824   -1.4497 H   0  0  0  0  0  0
   -5.9019    0.2188   -0.2778 H   0  0  0  0  0  0
   -4.8286   -1.1811   -0.5155 H   0  0  0  0  0  0
   -5.6685   -1.0549    1.6136 H   0  0  0  0  0  0
  1  2  1  0  0  0
  1  8  1  0  0  0
  1 12  1  0  0  0
  1 18  1  0  0  0
  2  3  1  0  0  0
  2 11  1  0  0  0
  2 19  1  0  0  0
  3  4  1  0  0  0
  3 10  1  0  0  0
  3 20  1  0  0  0
  4  5  1  0  0  0
  4  9  1  0  0  0
  4 21  1  0  0  0
  5  6  1  0  0  0
  5  8  1  0  0  0
  5 22  1  0  0  0
  6  7  1  0  0  0
  6 23  1  0  0  0
  6 24  1  0  0  0
  7 25  1  0  0  0
  9 26  1  0  0  0
 10 27  1  0  0  0
 11 28  1  0  0  0
 12 13  2  0  0  0
 12 14  1  0  0  0
 14 15  1  0  0  0
 14 29  1  0  0  0
 15 16  1  0  0  0
 15 30  1  0  0  0
 15 31  1  0  0  0
 16 17  1  0  0  0
 16 32  1  0  0  0
 16 33  1  0  0  0
 17 34  1  0  0  0
M  END
>  <Activity>
2.6

>  <set>
1

>  <Min_dist>
999.9

>  <Avg_dist>
999.9

$$$$
50
  Cerius2 12110214573D 1   1.00000                          
 
 41 42  0  0  0  0  0  0  0  0999 V2000
   -1.9108   -0.6062   -0.1186 C   0  0  0  0  0  0
   -2.9598   -1.6002    0.3851 C   0  0  0  0  0  0
   -4.3543   -1.0906    0.0040 C   0  0  0  0  0  0
   -4.5114    0.3431    0.5231 C   0  0  0  0  0  0
   -3.3450    1.1901    0.0090 C   0  0  0  0  0  0
   -3.5107    2.6317    0.4940 C   0  0  0  0  0  0
   -2.4222    3.4237    0.0146 O   0  0  0  0  0  0
   -2.1131    0.6638    0.4985 O   0  0  0  0  0  0
   -5.7442    0.8902    0.0509 O   0  0  0  0  0  0
   -4.4978   -1.1042   -1.4177 O   0  0  0  0  0  0
   -2.7363   -2.8770   -0.2165 O   0  0  0  0  0  0
   -0.2534   -1.2188    0.2917 S   0  0  0  0  0  0
    0.7573    0.1178   -0.4029 C   0  0  0  0  0  0
    2.2158   -0.1840   -0.1731 C   0  0  0  0  0  0
    3.1584    0.6759   -0.6073 N   0  0  0  0  0  0
    2.9039    1.4479   -1.1365 H   0  0  0  0  0  0
    4.5043    0.4551   -0.2945 C   0  0  0  0  0  0
    4.8503   -0.1306    0.9162 C   0  0  0  0  0  0
    6.1796   -0.3477    1.2217 C   0  0  0  0  0  0
    7.1656    0.0178    0.3236 C   0  0  0  0  0  0
    6.8243    0.6012   -0.8828 C   0  0  0  0  0  0
    5.4966    0.8158   -1.1967 C   0  0  0  0  0  0
    2.5414   -1.2006    0.4027 O   0  0  0  0  0  0
   -2.0002   -0.5020   -1.1999 H   0  0  0  0  0  0
   -2.8875   -1.6887    1.4691 H   0  0  0  0  0  0
   -5.1132   -1.7287    0.4567 H   0  0  0  0  0  0
   -4.5064    0.3390    1.6131 H   0  0  0  0  0  0
   -3.3376    1.1731   -1.0809 H   0  0  0  0  0  0
   -4.4492    3.0368    0.1155 H   0  0  0  0  0  0
   -3.5206    2.6495    1.5838 H   0  0  0  0  0  0
   -2.5649    4.3223    0.3419 H   0  0  0  0  0  0
   -6.4499    0.3234    0.3911 H   0  0  0  0  0  0
   -4.3789   -2.0209   -1.7019 H   0  0  0  0  0  0
   -1.8474   -3.1562    0.0423 H   0  0  0  0  0  0
    0.5673    0.1984   -1.4732 H   0  0  0  0  0  0
    0.4998    1.0585    0.0837 H   0  0  0  0  0  0
    4.0808   -0.4156    1.6183 H   0  0  0  0  0  0
    6.4494   -0.8031    2.1631 H   0  0  0  0  0  0
    8.2044   -0.1523    0.5651 H   0  0  0  0  0  0
    7.5967    0.8856   -1.5821 H   0  0  0  0  0  0
    5.2307    1.2714   -2.1391 H   0  0  0  0  0  0
  1  2  1  0  0  0
  1  8  1  0  0  0
  1 12  1  0  0  0
  1 24  1  0  0  0
  2  3  1  0  0  0
  2 11  1  0  0  0
  2 25  1  0  0  0
  3  4  1  0  0  0
  3 10  1  0  0  0
  3 26  1  0  0  0
  4  5  1  0  0  0
  4  9  1  0  0  0
  4 27  1  0  0  0
  5  6  1  0  0  0
  5  8  1  0  0  0
  5 28  1  0  0  0
  6  7  1  0  0  0
  6 29  1  0  0  0
  6 30  1  0  0  0
  7 31  1  0  0  0
  9 32  1  0  0  0
 10 33  1  0  0  0
 11 34  1  0  0  0
 12 13  1  0  0  0
 13 14  1  0  0  0
 13 35  1  0  0  0
 13 36  1  0  0  0
 14 15  1  0  0  0
 14 23  2  0  0  0
 15 16  1  0  0  0
 15 17  1  0  0  0
 17 18  1  0  0  0
 17 22  2  0  0  0
 18 19  2  0  0  0
 18 37  1  0  0  0
 19 20  1  0  0  0
 19 38  1  0  0  0
 20 21  2  0  0  0
 20 39  1  0  0  0
 21 22  1  0  0  0
 21 40  1  0  0  0
 22 41  1  0  0  0
M  END
>  <Activity>
2.4

>  <set>
1

>  <Min_dist>
999.9

>  <Avg_dist>
999.9

$$$$
51
  Cerius2 12110214573D 1   1.00000                          
 
 38 39  0  0  0  0  0  0  0  0999 V2000
    0.9955   -0.0976    0.3210 C   0  0  0  0  0  0
    1.3884   -1.4419   -0.2961 C   0  0  0  0  0  0
    2.8590   -1.7291    0.0272 C   0  0  0  0  0  0
    3.7032   -0.5320   -0.4243 C   0  0  0  0  0  0
    3.1353    0.7434    0.2025 C   0  0  0  0  0  0
    3.9918    1.9404   -0.2152 C   0  0  0  0  0  0
    3.4624    3.1321    0.3694 O   0  0  0  0  0  0
    1.7939    0.9430   -0.2394 O   0  0  0  0  0  0
    5.0553   -0.7127    0.0014 O   0  0  0  0  0  0
    3.0120   -1.9199    1.4351 O   0  0  0  0  0  0
    1.2122   -1.3872   -1.7131 O   0  0  0  0  0  0
   -0.4585    0.1782    0.0369 C   0  0  0  0  0  0
   -0.7770    1.1664   -0.5902 O   0  0  0  0  0  0
   -1.4049   -0.6731    0.4795 N   0  0  0  0  0  0
   -2.7607   -0.3598    0.3162 C   0  0  0  0  0  0
   -3.6862   -1.3718    0.0988 C   0  0  0  0  0  0
   -5.0223   -1.0623   -0.0616 C   0  0  0  0  0  0
   -5.4401    0.2593   -0.0059 C   0  0  0  0  0  0
   -4.5159    1.2709    0.2109 C   0  0  0  0  0  0
   -3.1803    0.9623    0.3775 C   0  0  0  0  0  0
   -6.7558    0.5634   -0.1643 O   0  0  0  0  0  0
    1.1525   -0.1341    1.3990 H   0  0  0  0  0  0
    0.7625   -2.2311    0.1205 H   0  0  0  0  0  0
    3.1818   -2.6251   -0.5030 H   0  0  0  0  0  0
    3.6693   -0.4508   -1.5107 H   0  0  0  0  0  0
    3.1479    0.6502    1.2884 H   0  0  0  0  0  0
    5.0158    1.7916    0.1273 H   0  0  0  0  0  0
    3.9817    2.0331   -1.3012 H   0  0  0  0  0  0
    4.0298    3.8604    0.0818 H   0  0  0  0  0  0
    5.3710   -1.5291   -0.4096 H   0  0  0  0  0  0
    2.4551   -2.6724    1.6774 H   0  0  0  0  0  0
    0.2773   -1.1976   -1.8714 H   0  0  0  0  0  0
   -1.1474   -1.5028    0.9111 H   0  0  0  0  0  0
   -3.3610   -2.4007    0.0547 H   0  0  0  0  0  0
   -5.7423   -1.8494   -0.2307 H   0  0  0  0  0  0
   -4.8417    2.2998    0.2534 H   0  0  0  0  0  0
   -2.4609    1.7500    0.5463 H   0  0  0  0  0  0
   -6.8611    1.4049   -0.1063 H   0  0  0  0  0  0
  1  2  1  0  0  0
  1  8  1  0  0  0
  1 12  1  0  0  0
  1 22  1  0  0  0
  2  3  1  0  0  0
  2 11  1  0  0  0
  2 23  1  0  0  0
  3  4  1  0  0  0
  3 10  1  0  0  0
  3 24  1  0  0  0
  4  5  1  0  0  0
  4  9  1  0  0  0
  4 25  1  0  0  0
  5  6  1  0  0  0
  5  8  1  0  0  0
  5 26  1  0  0  0
  6  7  1  0  0  0
  6 27  1  0  0  0
  6 28  1  0  0  0
  7 29  1  0  0  0
  9 30  1  0  0  0
 10 31  1  0  0  0
 11 32  1  0  0  0
 12 13  2  0  0  0
 12 14  1  0  0  0
 14 15  1  0  0  0
 14 33  1  0  0  0
 15 16  1  0  0  0
 15 20  2  0  0  0
 16 17  2  0  0  0
 16 34  1  0  0  0
 17 18  1  0  0  0
 17 35  1  0  0  0
 18 19  2  0  0  0
 18 21  1  0  0  0
 19 20  1  0  0  0
 19 36  1  0  0  0
 20 37  1  0  0  0
 21 38  1  0  0  0
M  END
>  <Activity>
2.4

>  <set>
1

>  <Min_dist>
999.9

>  <Avg_dist>
999.9

$$$$
53
  Cerius2 12110214573D 1   1.00000                          
 
 33 33  0  0  0  0  0  0  0  0999 V2000
    0.6665    0.1923    0.1930 C   0  0  0  0  0  0
    0.7755   -1.1712   -0.4935 C   0  0  0  0  0  0
    2.0907   -1.8377   -0.0742 C   0  0  0  0  0  0
    3.2441   -0.8692   -0.3595 C   0  0  0  0  0  0
    2.9483    0.4714    0.3168 C   0  0  0  0  0  0
    4.1101    1.4349    0.0662 C   0  0  0  0  0  0
    3.8351    2.6871    0.6973 O   0  0  0  0  0  0
    1.7479    1.0272   -0.2166 O   0  0  0  0  0  0
    4.4610   -1.4086    0.1602 O   0  0  0  0  0  0
    2.0517   -2.1389    1.3221 O   0  0  0  0  0  0
    0.7595   -0.9952   -1.9115 O   0  0  0  0  0  0
   -0.6394    0.8414   -0.1870 C   0  0  0  0  0  0
   -0.6412    1.9112   -0.7584 O   0  0  0  0  0  0
   -1.8053    0.2332    0.1083 N   0  0  0  0  0  0
   -3.0748    0.8643   -0.2611 C   0  0  0  0  0  0
   -4.2360   -0.0265    0.1852 C   0  0  0  0  0  0
   -5.4483    0.5762   -0.1675 F   0  0  0  0  0  0
   -4.1351   -1.2731   -0.4418 F   0  0  0  0  0  0
   -4.1863   -0.1970    1.5728 F   0  0  0  0  0  0
    0.7020    0.0575    1.2740 H   0  0  0  0  0  0
   -0.0635   -1.7989   -0.1931 H   0  0  0  0  0  0
    2.2339   -2.7552   -0.6449 H   0  0  0  0  0  0
    3.3389   -0.7218   -1.4353 H   0  0  0  0  0  0
    2.8299    0.3178    1.3895 H   0  0  0  0  0  0
    5.0268    1.0137    0.4788 H   0  0  0  0  0  0
    4.2308    1.5873   -1.0063 H   0  0  0  0  0  0
    4.5899    3.2635    0.5153 H   0  0  0  0  0  0
    4.6051   -2.2541   -0.2864 H   0  0  0  0  0  0
    1.3055   -2.7388    1.4579 H   0  0  0  0  0  0
   -0.0796   -0.5673   -2.1306 H   0  0  0  0  0  0
   -1.8039   -0.6224    0.5653 H   0  0  0  0  0  0
   -3.1534    1.8355    0.2274 H   0  0  0  0  0  0
   -3.1135    0.9972   -1.3422 H   0  0  0  0  0  0
  1  2  1  0  0  0
  1  8  1  0  0  0
  1 12  1  0  0  0
  1 20  1  0  0  0
  2  3  1  0  0  0
  2 11  1  0  0  0
  2 21  1  0  0  0
  3  4  1  0  0  0
  3 10  1  0  0  0
  3 22  1  0  0  0
  4  5  1  0  0  0
  4  9  1  0  0  0
  4 23  1  0  0  0
  5  6  1  0  0  0
  5  8  1  0  0  0
  5 24  1  0  0  0
  6  7  1  0  0  0
  6 25  1  0  0  0
  6 26  1  0  0  0
  7 27  1  0  0  0
  9 28  1  0  0  0
 10 29  1  0  0  0
 11 30  1  0  0  0
 12 13  2  0  0  0
 12 14  1  0  0  0
 14 15  1  0  0  0
 14 31  1  0  0  0
 15 16  1  0  0  0
 15 32  1  0  0  0
 15 33  1  0  0  0
 16 17  1  0  0  0
 16 18  1  0  0  0
 16 19  1  0  0  0
M  END
>  <Activity>
2.1

>  <set>
1

>  <Min_dist>
999.9

>  <Avg_dist>
999.9

$$$$
56
  Cerius2 12110214573D 1   1.00000                          
 
 29 30  0  0  0  0  0  0  0  0999 V2000
   -0.6772    0.0893   -0.5071 C   0  0  0  0  0  0
   -0.3324   -1.3102   -1.0078 C   0  0  0  0  0  0
    0.9755   -1.7704   -0.3525 C   0  0  0  0  0  0
    2.0441   -0.6966   -0.5877 C   0  0  0  0  0  0
    1.5155    0.6510   -0.0910 C   0  0  0  0  0  0
    2.5930    1.7207   -0.2796 C   0  0  0  0  0  0
    2.1006    2.9796    0.1838 O   0  0  0  0  0  0
    0.3508    1.0154   -0.8302 O   0  0  0  0  0  0
    3.2313   -1.0384    0.1304 O   0  0  0  0  0  0
    0.7730   -1.9464    1.0510 O   0  0  0  0  0  0
   -1.3838   -2.2139   -0.6616 O   0  0  0  0  0  0
   -1.9623    0.5283   -1.0682 N   0  0  0  0  0  0
   -2.7903    0.7177   -0.0235 C   0  0  0  0  0  0
   -3.9434    1.0859   -0.1330 O   0  0  0  0  0  0
   -2.2009    0.4554    1.1492 N   0  0  0  0  0  0
   -0.9199    0.0658    0.9851 C   0  0  0  0  0  0
   -0.1294   -0.2394    1.8521 O   0  0  0  0  0  0
   -0.2099   -1.2899   -2.0907 H   0  0  0  0  0  0
    1.2975   -2.7111   -0.7993 H   0  0  0  0  0  0
    2.2667   -0.6308   -1.6527 H   0  0  0  0  0  0
    1.2628    0.5736    0.9664 H   0  0  0  0  0  0
    3.4811    1.4461    0.2895 H   0  0  0  0  0  0
    2.8480    1.7971   -1.3366 H   0  0  0  0  0  0
    2.8085    3.6240    0.0473 H   0  0  0  0  0  0
    3.8752   -0.3386   -0.0450 H   0  0  0  0  0  0
    1.6183   -2.2351    1.4214 H   0  0  0  0  0  0
   -1.1259   -3.0839   -0.9957 H   0  0  0  0  0  0
   -2.1726    0.6568   -2.0064 H   0  0  0  0  0  0
   -2.6401    0.5360    2.0103 H   0  0  0  0  0  0
  1  2  1  0  0  0
  1  8  1  0  0  0
  1 12  1  0  0  0
  1 16  1  0  0  0
  2  3  1  0  0  0
  2 11  1  0  0  0
  2 18  1  0  0  0
  3  4  1  0  0  0
  3 10  1  0  0  0
  3 19  1  0  0  0
  4  5  1  0  0  0
  4  9  1  0  0  0
  4 20  1  0  0  0
  5  6  1  0  0  0
  5  8  1  0  0  0
  5 21  1  0  0  0
  6  7  1  0  0  0
  6 22  1  0  0  0
  6 23  1  0  0  0
  7 24  1  0  0  0
  9 25  1  0  0  0
 10 26  1  0  0  0
 11 27  1  0  0  0
 12 13  1  0  0  0
 12 28  1  0  0  0
 13 14  2  0  0  0
 13 15  1  0  0  0
 15 16  1  0  0  0
 15 29  1  0  0  0
 16 17  2  0  0  0
M  END
>  <Activity>
5.5

>  <set>
1

>  <Min_dist>
999.9

>  <Avg_dist>
999.9

$$$$
58
  Cerius2 12110214573D 1   1.00000                          
 
 32 33  0  0  0  0  0  0  0  0999 V2000
   -0.5093    0.2291   -0.2972 C   0  0  0  0  0  0
   -0.2739   -1.1224   -0.9753 C   0  0  0  0  0  0
    1.0620   -1.7320   -0.5526 C   0  0  0  0  0  0
    2.1703   -0.7011   -0.7911 C   0  0  0  0  0  0
    1.8125    0.5777   -0.0288 C   0  0  0  0  0  0
    2.9272    1.6105   -0.2546 C   0  0  0  0  0  0
    2.6120    2.8133    0.4496 O   0  0  0  0  0  0
    0.5864    1.1095   -0.4885 O   0  0  0  0  0  0
    3.4128   -1.2139   -0.3066 O   0  0  0  0  0  0
    1.0303   -2.1150    0.8201 O   0  0  0  0  0  0
   -1.3342   -2.0217   -0.6347 O   0  0  0  0  0  0
   -1.6761    0.8421   -0.9591 N   0  0  0  0  0  0
   -2.9188    0.7161   -0.4944 C   0  0  0  0  0  0
   -3.8298    1.2258   -1.1116 O   0  0  0  0  0  0
   -3.2371   -0.0301    0.7677 C   0  0  0  0  0  0
   -2.0616   -0.1108    1.6236 N   0  0  0  0  0  0
   -0.8147    0.0406    1.1579 C   0  0  0  0  0  0
    0.0800    0.0351    1.9739 O   0  0  0  0  0  0
   -0.2743   -0.9803   -2.0619 H   0  0  0  0  0  0
    1.2628   -2.6173   -1.1656 H   0  0  0  0  0  0
    2.2511   -0.4846   -1.8548 H   0  0  0  0  0  0
    1.7691    0.3567    1.0369 H   0  0  0  0  0  0
    3.8724    1.2112    0.1131 H   0  0  0  0  0  0
    3.0133    1.8251   -1.3198 H   0  0  0  0  0  0
    3.3349    3.4331    0.2817 H   0  0  0  0  0  0
    4.0805   -0.5352   -0.4762 H   0  0  0  0  0  0
    1.8973   -2.4909    1.0255 H   0  0  0  0  0  0
   -1.1458   -2.8580   -1.0821 H   0  0  0  0  0  0
   -1.5198    1.3535   -1.7648 H   0  0  0  0  0  0
   -4.0330    0.4905    1.2996 H   0  0  0  0  0  0
   -3.5703   -1.0355    0.5162 H   0  0  0  0  0  0
   -2.1836   -0.2802    2.5696 H   0  0  0  0  0  0
  1  2  1  0  0  0
  1  8  1  0  0  0
  1 12  1  0  0  0
  1 17  1  0  0  0
  2  3  1  0  0  0
  2 11  1  0  0  0
  2 19  1  0  0  0
  3  4  1  0  0  0
  3 10  1  0  0  0
  3 20  1  0  0  0
  4  5  1  0  0  0
  4  9  1  0  0  0
  4 21  1  0  0  0
  5  6  1  0  0  0
  5  8  1  0  0  0
  5 22  1  0  0  0
  6  7  1  0  0  0
  6 23  1  0  0  0
  6 24  1  0  0  0
  7 25  1  0  0  0
  9 26  1  0  0  0
 10 27  1  0  0  0
 11 28  1  0  0  0
 12 13  1  0  0  0
 12 29  1  0  0  0
 13 14  2  0  0  0
 13 15  1  0  0  0
 15 16  1  0  0  0
 15 30  1  0  0  0
 15 31  1  0  0  0
 16 17  1  0  0  0
 16 32  1  0  0  0
 17 18  2  0  0  0
M  END
>  <Activity>
4.2

>  <set>
1

>  <Min_dist>
999.9

>  <Avg_dist>
999.9

$$$$
59
  Cerius2 12110214573D 1   1.00000                          
 
 24 24  0  0  0  0  0  0  0  0999 V2000
   -0.9031    1.1412    0.2006 C   0  0  0  0  0  0
   -1.6406    0.0099   -0.5193 C   0  0  0  0  0  0
   -0.9237   -1.3146   -0.2339 C   0  0  0  0  0  0
    0.5560   -1.1610   -0.6036 C   0  0  0  0  0  0
    1.1273    0.0589    0.1227 C   0  0  0  0  0  0
    2.6131    0.2012   -0.2134 C   0  0  0  0  0  0
    3.1478    1.3401    0.4642 O   0  0  0  0  0  0
    0.4333    1.2351   -0.2889 O   0  0  0  0  0  0
    1.2720   -2.3323   -0.2069 O   0  0  0  0  0  0
   -1.0406   -1.6337    1.1541 O   0  0  0  0  0  0
   -2.9861   -0.0625   -0.0435 O   0  0  0  0  0  0
   -1.5828    2.3762   -0.0340 O   0  0  0  0  0  0
   -0.8834    0.9373    1.2712 H   0  0  0  0  0  0
   -1.6416    0.2002   -1.5926 H   0  0  0  0  0  0
   -1.3699   -2.1085   -0.8330 H   0  0  0  0  0  0
    0.6502   -1.0215   -1.6805 H   0  0  0  0  0  0
    1.0100   -0.0720    1.1984 H   0  0  0  0  0  0
    3.1453   -0.6947    0.1062 H   0  0  0  0  0  0
    2.7316    0.3299   -1.2893 H   0  0  0  0  0  0
    4.0834    1.3933    0.2258 H   0  0  0  0  0  0
    0.8758   -3.0761   -0.6811 H   0  0  0  0  0  0
   -1.9856   -1.7079    1.3453 H   0  0  0  0  0  0
   -3.3970    0.7914   -0.2361 H   0  0  0  0  0  0
   -1.0875    3.0613    0.4354 H   0  0  0  0  0  0
  1  2  1  0  0  0
  1  8  1  0  0  0
  1 12  1  0  0  0
  1 13  1  0  0  0
  2  3  1  0  0  0
  2 11  1  0  0  0
  2 14  1  0  0  0
  3  4  1  0  0  0
  3 10  1  0  0  0
  3 15  1  0  0  0
  4  5  1  0  0  0
  4  9  1  0  0  0
  4 16  1  0  0  0
  5  6  1  0  0  0
  5  8  1  0  0  0
  5 17  1  0  0  0
  6  7  1  0  0  0
  6 18  1  0  0  0
  6 19  1  0  0  0
  7 20  1  0  0  0
  9 21  1  0  0  0
 10 22  1  0  0  0
 11 23  1  0  0  0
 12 24  1  0  0  0
M  END
>  <Activity>
2.1

>  <set>
1

>  <Min_dist>
999.9

>  <Avg_dist>
999.9

$$$$
60
  Cerius2 12110214573D 1   1.00000                          
 
 36 36  0  0  0  0  0  0  0  0999 V2000
    1.1841    0.0716    0.2680 C   0  0  0  0  0  0
    1.3873   -1.2951   -0.3900 C   0  0  0  0  0  0
    2.7731   -1.8303   -0.0121 C   0  0  0  0  0  0
    3.8221   -0.7713   -0.3696 C   0  0  0  0  0  0
    3.4347    0.5558    0.2868 C   0  0  0  0  0  0
    4.4940    1.6114   -0.0364 C   0  0  0  0  0  0
    4.1333    2.8511    0.5760 O   0  0  0  0  0  0
    2.1684    0.9878   -0.2075 O   0  0  0  0  0  0
    5.1028   -1.1859    0.1098 O   0  0  0  0  0  0
    2.8184   -2.0953    1.3914 O   0  0  0  0  0  0
    1.2978   -1.1603   -1.8098 O   0  0  0  0  0  0
   -0.1892    0.5914   -0.0707 C   0  0  0  0  0  0
   -0.3105    1.6407   -0.6667 O   0  0  0  0  0  0
   -1.2827   -0.1097    0.2888 N   0  0  0  0  0  0
   -2.6178    0.3956   -0.0404 C   0  0  0  0  0  0
   -3.6750   -0.5822    0.4765 C   0  0  0  0  0  0
   -5.0693   -0.0544    0.1327 C   0  0  0  0  0  0
   -6.0360   -0.9486    0.6053 F   0  0  0  0  0  0
   -5.2563    1.1950    0.7337 F   0  0  0  0  0  0
   -5.1906    0.0728   -1.2552 F   0  0  0  0  0  0
    1.2757   -0.0297    1.3494 H   0  0  0  0  0  0
    0.6212   -1.9864   -0.0390 H   0  0  0  0  0  0
    2.9749   -2.7468   -0.5665 H   0  0  0  0  0  0
    3.8594   -0.6457   -1.4517 H   0  0  0  0  0  0
    3.3744    0.4218    1.3669 H   0  0  0  0  0  0
    5.4609    1.2849    0.3462 H   0  0  0  0  0  0
    4.5567    1.7444   -1.1164 H   0  0  0  0  0  0
    4.8252    3.4871    0.3481 H   0  0  0  0  0  0
    5.3041   -2.0272   -0.3224 H   0  0  0  0  0  0
    2.1353   -2.7552    1.5734 H   0  0  0  0  0  0
    0.4154   -0.8149   -2.0027 H   0  0  0  0  0  0
   -1.1857   -0.9489    0.7655 H   0  0  0  0  0  0
   -2.7635    1.3691    0.4279 H   0  0  0  0  0  0
   -2.7123    0.4948   -1.1217 H   0  0  0  0  0  0
   -3.5293   -1.5557    0.0082 H   0  0  0  0  0  0
   -3.5804   -0.6814    1.5578 H   0  0  0  0  0  0
  1  2  1  0  0  0
  1  8  1  0  0  0
  1 12  1  0  0  0
  1 21  1  0  0  0
  2  3  1  0  0  0
  2 11  1  0  0  0
  2 22  1  0  0  0
  3  4  1  0  0  0
  3 10  1  0  0  0
  3 23  1  0  0  0
  4  5  1  0  0  0
  4  9  1  0  0  0
  4 24  1  0  0  0
  5  6  1  0  0  0
  5  8  1  0  0  0
  5 25  1  0  0  0
  6  7  1  0  0  0
  6 26  1  0  0  0
  6 27  1  0  0  0
  7 28  1  0  0  0
  9 29  1  0  0  0
 10 30  1  0  0  0
 11 31  1  0  0  0
 12 13  2  0  0  0
 12 14  1  0  0  0
 14 15  1  0  0  0
 14 32  1  0  0  0
 15 16  1  0  0  0
 15 33  1  0  0  0
 15 34  1  0  0  0
 16 17  1  0  0  0
 16 35  1  0  0  0
 16 36  1  0  0  0
 17 18  1  0  0  0
 17 19  1  0  0  0
 17 20  1  0  0  0
M  END
>  <Activity>
2.1

>  <set>
1

>  <Min_dist>
999.9

>  <Avg_dist>
999.9

$$$$
61
  Cerius2 12110214573D 1   1.00000                          
 
 25 25  0  0  0  0  0  0  0  0999 V2000
   -0.8272    0.1030   -0.0949 C   0  0  0  0  0  0
   -0.0297   -1.2027   -0.1265 C   0  0  0  0  0  0
    1.4153   -0.8956   -0.5357 C   0  0  0  0  0  0
    1.9702    0.1858    0.3983 C   0  0  0  0  0  0
    1.0214    1.3865    0.3901 C   0  0  0  0  0  0
    0.8900    1.9212   -1.0374 C   0  0  0  0  0  0
    0.0414    3.0710   -1.0391 O   0  0  0  0  0  0
   -0.2628    0.9908    0.8683 O   0  0  0  0  0  0
    2.0715   -0.3345    1.7253 O   0  0  0  0  0  0
    2.2076   -2.0795   -0.4227 O   0  0  0  0  0  0
   -0.6151   -2.0978   -1.0742 O   0  0  0  0  0  0
   -2.2580   -0.1927    0.2742 C   0  0  0  0  0  0
   -2.7677    0.3295    1.3201 O   0  0  0  0  0  0
   -2.9592   -0.9652   -0.4592 O   0  5  0  0  0  0
   -0.7971    0.5699   -1.0794 H   0  0  0  0  0  0
   -0.0391   -1.6599    0.8630 H   0  0  0  0  0  0
    1.4355   -0.5359   -1.5645 H   0  0  0  0  0  0
    2.9554    0.4972    0.0510 H   0  0  0  0  0  0
    1.4216    2.1690    1.0347 H   0  0  0  0  0  0
    1.8750    2.1961   -1.4145 H   0  0  0  0  0  0
    0.4585    1.1503   -1.6759 H   0  0  0  0  0  0
   -0.0145    3.3757   -1.9552 H   0  0  0  0  0  0
    2.6713   -1.0919    1.6835 H   0  0  0  0  0  0
    1.8161   -2.7355   -1.0155 H   0  0  0  0  0  0
   -1.5233   -2.2579   -0.7834 H   0  0  0  0  0  0
  1  2  1  0  0  0
  1  8  1  0  0  0
  1 12  1  0  0  0
  1 15  1  0  0  0
  2  3  1  0  0  0
  2 11  1  0  0  0
  2 16  1  0  0  0
  3  4  1  0  0  0
  3 10  1  0  0  0
  3 17  1  0  0  0
  4  5  1  0  0  0
  4  9  1  0  0  0
  4 18  1  0  0  0
  5  6  1  0  0  0
  5  8  1  0  0  0
  5 19  1  0  0  0
  6  7  1  0  0  0
  6 20  1  0  0  0
  6 21  1  0  0  0
  7 22  1  0  0  0
  9 23  1  0  0  0
 10 24  1  0  0  0
 11 25  1  0  0  0
 12 13  2  0  0  0
 12 14  1  0  0  0
M  CHG  1  14  -1
M  END
>  <Activity>
1.8

>  <set>
1

>  <Min_dist>
999.9

>  <Avg_dist>
999.9

$$$$
64
  Cerius2 12110214573D 1   1.00000                          
 
 31 31  0  0  0  0  0  0  0  0999 V2000
   -0.2911   -0.3892   -0.1537 C   0  0  0  0  0  0
    0.4929   -1.6101   -0.6403 C   0  0  0  0  0  0
    1.9139   -1.5515   -0.0684 C   0  0  0  0  0  0
    2.5309   -0.1946   -0.4259 C   0  0  0  0  0  0
    1.5927    0.9192    0.0445 C   0  0  0  0  0  0
    2.2158    2.2789   -0.2776 C   0  0  0  0  0  0
    1.3406    3.3199    0.1612 O   0  0  0  0  0  0
    0.3355    0.8045   -0.6194 O   0  0  0  0  0  0
    3.7969   -0.0592    0.2229 O   0  0  0  0  0  0
    1.8654   -1.6968    1.3523 O   0  0  0  0  0  0
   -0.1539   -2.8031   -0.1927 O   0  0  0  0  0  0
   -1.6610   -0.4530   -0.6690 N   0  0  0  0  0  0
   -2.6721    0.0927    0.0356 C   0  0  0  0  0  0
   -2.4474    0.6376    1.0982 O   0  0  0  0  0  0
   -3.9311    0.0341   -0.4380 O   0  0  0  0  0  0
   -5.0204    0.6220    0.3210 C   0  0  0  0  0  0
   -0.3148   -0.3846    0.9361 H   0  0  0  0  0  0
    0.5375   -1.6044   -1.7294 H   0  0  0  0  0  0
    2.5151   -2.3518   -0.5000 H   0  0  0  0  0  0
    2.6639   -0.1276   -1.5057 H   0  0  0  0  0  0
    1.4420    0.8355    1.1208 H   0  0  0  0  0  0
    3.1739    2.3700    0.2341 H   0  0  0  0  0  0
    2.3691    2.3626   -1.3535 H   0  0  0  0  0  0
    1.7698    4.1577   -0.0602 H   0  0  0  0  0  0
    4.3531   -0.7832   -0.0958 H   0  0  0  0  0  0
    1.4594   -2.5560    1.5317 H   0  0  0  0  0  0
   -1.0448   -2.7959   -0.5685 H   0  0  0  0  0  0
   -1.8403   -0.8880   -1.5172 H   0  0  0  0  0  0
   -5.9574    0.4771   -0.2166 H   0  0  0  0  0  0
   -5.0836    0.1415    1.2974 H   0  0  0  0  0  0
   -4.8377    1.6885    0.4521 H   0  0  0  0  0  0
  1  2  1  0  0  0
  1  8  1  0  0  0
  1 12  1  0  0  0
  1 17  1  0  0  0
  2  3  1  0  0  0
  2 11  1  0  0  0
  2 18  1  0  0  0
  3  4  1  0  0  0
  3 10  1  0  0  0
  3 19  1  0  0  0
  4  5  1  0  0  0
  4  9  1  0  0  0
  4 20  1  0  0  0
  5  6  1  0  0  0
  5  8  1  0  0  0
  5 21  1  0  0  0
  6  7  1  0  0  0
  6 22  1  0  0  0
  6 23  1  0  0  0
  7 24  1  0  0  0
  9 25  1  0  0  0
 10 26  1  0  0  0
 11 27  1  0  0  0
 12 13  1  0  0  0
 12 28  1  0  0  0
 13 14  2  0  0  0
 13 15  1  0  0  0
 15 16  1  0  0  0
 16 29  1  0  0  0
 16 30  1  0  0  0
 16 31  1  0  0  0
M  END
>  <Activity>
4.1

>  <set>
1

>  <Min_dist>
999.9

>  <Avg_dist>
999.9

$$$$
8
  Cerius2 12110214573D 1   1.00000                          
 
 29 29  0  0  0  0  0  0  0  0999 V2000
   -0.4501   -0.7133    0.0514 C   0  0  0  0  0  0
    0.5454   -1.5929   -0.7085 C   0  0  0  0  0  0
    1.9692   -1.1146   -0.4026 C   0  0  0  0  0  0
    2.0587    0.3852   -0.7066 C   0  0  0  0  0  0
    0.9487    1.1151    0.0532 C   0  0  0  0  0  0
    1.0505    2.6176   -0.2171 C   0  0  0  0  0  0
    0.0144    3.3003    0.4919 O   0  0  0  0  0  0
   -0.3251    0.6407   -0.3789 O   0  0  0  0  0  0
    3.3314    0.8827   -0.2883 O   0  0  0  0  0  0
    2.2658   -1.3428    0.9766 O   0  0  0  0  0  0
    0.3977   -2.9518   -0.2920 O   0  0  0  0  0  0
   -1.8735   -1.2042   -0.2208 C   0  0  0  0  0  0
   -2.8275   -0.3630    0.5062 N   0  0  0  0  0  0
   -3.6127    0.2116   -0.0566 N   0  0  0  0  0  0
   -4.3346    0.7400   -0.5741 N   0  0  0  0  0  0
   -0.1813   -0.7932    1.4526 O   0  0  0  0  0  0
    0.3569   -1.5156   -1.7793 H   0  0  0  0  0  0
    2.6794   -1.6573   -1.0265 H   0  0  0  0  0  0
    1.9359    0.5482   -1.7773 H   0  0  0  0  0  0
    1.0594    0.9308    1.1218 H   0  0  0  0  0  0
    2.0214    2.9822    0.1184 H   0  0  0  0  0  0
    0.9423    2.8026   -1.2858 H   0  0  0  0  0  0
    0.1144    4.2417    0.2947 H   0  0  0  0  0  0
    3.3449    1.8267   -0.4975 H   0  0  0  0  0  0
    3.1682   -1.0281    1.1242 H   0  0  0  0  0  0
    1.0417   -3.4696   -0.7941 H   0  0  0  0  0  0
   -2.0794   -1.1468   -1.2896 H   0  0  0  0  0  0
   -1.9717   -2.2371    0.1133 H   0  0  0  0  0  0
   -0.8286   -0.2264    1.8941 H   0  0  0  0  0  0
  1  2  1  0  0  0
  1  8  1  0  0  0
  1 12  1  0  0  0
  1 16  1  0  0  0
  2  3  1  0  0  0
  2 11  1  0  0  0
  2 17  1  0  0  0
  3  4  1  0  0  0
  3 10  1  0  0  0
  3 18  1  0  0  0
  4  5  1  0  0  0
  4  9  1  0  0  0
  4 19  1  0  0  0
  5  6  1  0  0  0
  5  8  1  0  0  0
  5 20  1  0  0  0
  6  7  1  0  0  0
  6 21  1  0  0  0
  6 22  1  0  0  0
  7 23  1  0  0  0
  9 24  1  0  0  0
 10 25  1  0  0  0
 11 26  1  0  0  0
 12 13  1  0  0  0
 12 27  1  0  0  0
 12 28  1  0  0  0
 13 14  2  0  0  0
 14 15  3  0  0  0
 16 29  1  0  0  0
M  END
>  <Activity>
2.1

>  <set>
2

>  <Min_dist>
0.135135

>  <Avg_dist>
0.492967

$$$$
12
  Cerius2 12110214573D 1   1.00000                          
 
 33 33  0  0  0  0  0  0  0  0999 V2000
    0.2783   -0.5346    0.2732 C   0  0  0  0  0  0
    1.0781   -1.7432   -0.2185 C   0  0  0  0  0  0
    2.5488   -1.5619    0.1740 C   0  0  0  0  0  0
    3.0317   -0.2037   -0.3472 C   0  0  0  0  0  0
    2.0840    0.8884    0.1542 C   0  0  0  0  0  0
    2.5768    2.2525   -0.3329 C   0  0  0  0  0  0
    1.6927    3.2731    0.1347 O   0  0  0  0  0  0
    0.7688    0.6534   -0.3451 O   0  0  0  0  0  0
    4.3526    0.0513    0.1347 O   0  0  0  0  0  0
    2.6737   -1.6014    1.5970 O   0  0  0  0  0  0
    0.9712   -1.8410   -1.6401 O   0  0  0  0  0  0
   -1.1975   -0.7219   -0.0842 C   0  0  0  0  0  0
   -1.9456    0.4060    0.3745 O   0  0  0  0  0  0
   -3.3969    0.1574   -0.0107 S   0  0  0  0  0  0
   -3.9251    1.4726   -0.1138 O   0  0  0  0  0  0
   -3.2813   -0.7005   -1.1376 O   0  0  0  0  0  0
   -4.0628   -0.7191    1.4312 C   0  0  0  0  0  0
    0.3800   -0.4486    1.3551 H   0  0  0  0  0  0
    0.6872   -2.6508    0.2413 H   0  0  0  0  0  0
    3.1467   -2.3577   -0.2702 H   0  0  0  0  0  0
    3.0349   -0.2115   -1.4372 H   0  0  0  0  0  0
    2.0640    0.8784    1.2440 H   0  0  0  0  0  0
    3.5796    2.4356    0.0531 H   0  0  0  0  0  0
    2.5995    2.2627   -1.4226 H   0  0  0  0  0  0
    2.0386    4.1144   -0.1935 H   0  0  0  0  0  0
    4.6166    0.9129   -0.2159 H   0  0  0  0  0  0
    3.6121   -1.4838    1.7986 H   0  0  0  0  0  0
    1.4883   -2.6133   -1.9068 H   0  0  0  0  0  0
   -1.3010   -0.8112   -1.1656 H   0  0  0  0  0  0
   -1.5749   -1.6265    0.3928 H   0  0  0  0  0  0
   -5.1143   -0.9509    1.2618 H   0  0  0  0  0  0
   -3.5066   -1.6443    1.5827 H   0  0  0  0  0  0
   -3.9675   -0.0889    2.3154 H   0  0  0  0  0  0
  1  2  1  0  0  0
  1  8  1  0  0  0
  1 12  1  0  0  0
  1 18  1  0  0  0
  2  3  1  0  0  0
  2 11  1  0  0  0
  2 19  1  0  0  0
  3  4  1  0  0  0
  3 10  1  0  0  0
  3 20  1  0  0  0
  4  5  1  0  0  0
  4  9  1  0  0  0
  4 21  1  0  0  0
  5  6  1  0  0  0
  5  8  1  0  0  0
  5 22  1  0  0  0
  6  7  1  0  0  0
  6 23  1  0  0  0
  6 24  1  0  0  0
  7 25  1  0  0  0
  9 26  1  0  0  0
 10 27  1  0  0  0
 11 28  1  0  0  0
 12 13  1  0  0  0
 12 29  1  0  0  0
 12 30  1  0  0  0
 13 14  1  0  0  0
 14 15  2  0  0  0
 14 16  2  0  0  0
 14 17  1  0  0  0
 17 31  1  0  0  0
 17 32  1  0  0  0
 17 33  1  0  0  0
M  END
>  <Activity>
2.3

>  <set>
2

>  <Min_dist>
0.142857

>  <Avg_dist>
0.489006

$$$$
15
  Cerius2 12110214573D 1   1.00000                          
 
 29 29  0  0  0  0  0  0  0  0999 V2000
    1.1028   -0.6925   -0.4549 C   0  0  0  0  0  0
   -0.0173   -1.6879   -0.1441 C   0  0  0  0  0  0
   -1.3596   -1.0751   -0.5595 C   0  0  0  0  0  0
   -1.5007    0.2965    0.1103 C   0  0  0  0  0  0
   -0.2684    1.1417   -0.2198 C   0  0  0  0  0  0
   -0.4153    2.5253    0.4166 C   0  0  0  0  0  0
    0.7349    3.3156    0.1091 O   0  0  0  0  0  0
    0.9032    0.5075    0.2897 O   0  0  0  0  0  0
   -2.6736    0.9494   -0.3797 O   0  0  0  0  0  0
   -2.4266   -1.9268   -0.1377 O   0  0  0  0  0  0
   -0.0328   -1.9680    1.2571 O   0  0  0  0  0  0
    2.4507   -1.3087   -0.0749 C   0  0  0  0  0  0
    3.5268   -0.3541   -0.3728 N   0  3  0  0  0  0
    4.4157   -0.7604   -0.1222 H   0  0  0  0  0  0
    3.5216   -0.1382   -1.3584 H   0  0  0  0  0  0
    3.3823    0.4920    0.1576 H   0  0  0  0  0  0
    1.0980   -0.4628   -1.5205 H   0  0  0  0  0  0
    0.1500   -2.6105   -0.7000 H   0  0  0  0  0  0
   -1.3884   -0.9578   -1.6428 H   0  0  0  0  0  0
   -1.5769    0.1689    1.1901 H   0  0  0  0  0  0
   -0.1807    1.2477   -1.3011 H   0  0  0  0  0  0
   -1.3071    3.0133    0.0233 H   0  0  0  0  0  0
   -0.5055    2.4202    1.4978 H   0  0  0  0  0  0
    0.6021    4.1771    0.5278 H   0  0  0  0  0  0
   -2.7236    1.8059    0.0664 H   0  0  0  0  0  0
   -3.2496   -1.5040   -0.4188 H   0  0  0  0  0  0
   -0.7513   -2.5973    1.4083 H   0  0  0  0  0  0
    2.4563   -1.5419    0.9898 H   0  0  0  0  0  0
    2.6069   -2.2227   -0.6479 H   0  0  0  0  0  0
  1  2  1  0  0  0
  1  8  1  0  0  0
  1 12  1  0  0  0
  1 17  1  0  0  0
  2  3  1  0  0  0
  2 11  1  0  0  0
  2 18  1  0  0  0
  3  4  1  0  0  0
  3 10  1  0  0  0
  3 19  1  0  0  0
  4  5  1  0  0  0
  4  9  1  0  0  0
  4 20  1  0  0  0
  5  6  1  0  0  0
  5  8  1  0  0  0
  5 21  1  0  0  0
  6  7  1  0  0  0
  6 22  1  0  0  0
  6 23  1  0  0  0
  7 24  1  0  0  0
  9 25  1  0  0  0
 10 26  1  0  0  0
 11 27  1  0  0  0
 12 13  1  0  0  0
 12 28  1  0  0  0
 12 29  1  0  0  0
 13 14  1  0  0  0
 13 15  1  0  0  0
 13 16  1  0  0  0
M  CHG  1  13   1
M  END
>  <Activity>
1.8

>  <set>
2

>  <Min_dist>
0

>  <Avg_dist>
0.388911

$$$$
17
  Cerius2 12110214573D 1   1.00000                          
 
 27 27  0  0  0  0  0  0  0  0999 V2000
    0.8342   -0.7975   -0.3975 C   0  0  0  0  0  0
   -0.3763   -1.6949   -0.1304 C   0  0  0  0  0  0
   -1.6467   -0.9692   -0.5878 C   0  0  0  0  0  0
   -1.6938    0.4077    0.0844 C   0  0  0  0  0  0
   -0.3836    1.1460   -0.1990 C   0  0  0  0  0  0
    0.7117    0.4132    0.3465 O   0  0  0  0  0  0
   -0.4344    2.5355    0.4395 C   0  0  0  0  0  0
    0.7886    3.2260    0.1756 O   0  0  0  0  0  0
   -2.7896    1.1593   -0.4416 O   0  0  0  0  0  0
   -2.7960   -1.7282   -0.2070 O   0  0  0  0  0  0
   -0.4636   -1.9763    1.2679 O   0  0  0  0  0  0
    2.1111   -1.5270    0.0247 C   0  0  0  0  0  0
    3.2763   -0.6648   -0.2318 C   0  0  0  0  0  0
    4.1756    0.0006   -0.4297 N   0  0  0  0  0  0
    0.8855   -0.5655   -1.4613 H   0  0  0  0  0  0
   -0.2689   -2.6269   -0.6853 H   0  0  0  0  0  0
   -1.6283   -0.8471   -1.6707 H   0  0  0  0  0  0
   -1.8175    0.2843    1.1603 H   0  0  0  0  0  0
   -0.2508    1.2480   -1.2761 H   0  0  0  0  0  0
   -1.2676    3.0985    0.0189 H   0  0  0  0  0  0
   -0.5702    2.4357    1.5164 H   0  0  0  0  0  0
    0.7151    4.0945    0.5942 H   0  0  0  0  0  0
   -2.7821    2.0157    0.0072 H   0  0  0  0  0  0
   -3.5700   -1.2362   -0.5136 H   0  0  0  0  0  0
    0.3567   -2.4250    1.5145 H   0  0  0  0  0  0
    2.0604   -1.7625    1.0877 H   0  0  0  0  0  0
    2.2087   -2.4495   -0.5477 H   0  0  0  0  0  0
  1  2  1  0  0  0
  1  6  1  0  0  0
  1 12  1  0  0  0
  1 15  1  0  0  0
  2  3  1  0  0  0
  2 11  1  0  0  0
  2 16  1  0  0  0
  3  4  1  0  0  0
  3 10  1  0  0  0
  3 17  1  0  0  0
  4  5  1  0  0  0
  4  9  1  0  0  0
  4 18  1  0  0  0
  5  6  1  0  0  0
  5  7  1  0  0  0
  5 19  1  0  0  0
  7  8  1  0  0  0
  7 20  1  0  0  0
  7 21  1  0  0  0
  8 22  1  0  0  0
  9 23  1  0  0  0
 10 24  1  0  0  0
 11 25  1  0  0  0
 12 13  1  0  0  0
 12 26  1  0  0  0
 12 27  1  0  0  0
 13 14  3  0  0  0
M  END
>  <Activity>
2

>  <set>
2

>  <Min_dist>
0.12069

>  <Avg_dist>
0.470953

$$$$
19
  Cerius2 12110214573D 1   1.00000                          
 
 45 46  0  0  0  0  0  0  0  0999 V2000
    2.2248   -1.0855    0.9431 O   0  0  0  0  0  0
    2.1369   -1.1214   -0.4801 C   0  0  0  0  0  0
    3.3284   -0.3813   -1.0920 C   0  0  0  0  0  0
    3.2931    1.0828   -0.6391 C   0  0  0  0  0  0
    3.2170    1.1210    0.8914 C   0  0  0  0  0  0
    2.0338    0.2672    1.3532 C   0  0  0  0  0  0
    0.8287    0.7731    0.7755 O   0  0  0  0  0  0
   -0.2343   -0.0606    1.2412 C   0  0  0  0  0  0
   -1.5604    0.4295    0.6562 C   0  0  0  0  0  0
   -1.5002    0.3732   -0.7677 O   0  0  0  0  0  0
   -2.6755    1.0025   -1.2746 C   0  0  0  0  0  0
   -3.9054    0.1609   -0.9265 C   0  0  0  0  0  0
   -4.0264    0.0603    0.5983 C   0  0  0  0  0  0
   -2.6990   -0.4591    1.1624 C   0  0  0  0  0  0
   -2.4871   -1.8031    0.7255 O   0  0  0  0  0  0
   -5.0785   -0.8455    0.9371 O   0  0  0  0  0  0
   -5.0766    0.7827   -1.4590 O   0  0  0  0  0  0
   -2.8080    2.3008   -0.6923 O   0  0  0  0  0  0
    3.0327    2.4693    1.3275 O   0  0  0  0  0  0
    4.4791    1.7489   -1.0770 O   0  0  0  0  0  0
    4.5452   -0.9884   -0.6527 O   0  0  0  0  0  0
    2.1441   -2.5763   -0.9536 C   0  0  0  0  0  0
    1.0275   -3.2665   -0.3891 O   0  0  0  0  0  0
    1.2108   -0.6425   -0.7981 H   0  0  0  0  0  0
    3.2676   -0.4282   -2.1793 H   0  0  0  0  0  0
    2.4170    1.5752   -1.0613 H   0  0  0  0  0  0
    4.1402    0.7230    1.3125 H   0  0  0  0  0  0
    1.9590    0.3092    2.4399 H   0  0  0  0  0  0
   -0.0554   -1.0882    0.9249 H   0  0  0  0  0  0
   -0.2794   -0.0180    2.3294 H   0  0  0  0  0  0
   -1.7373    1.4579    0.9711 H   0  0  0  0  0  0
   -2.5968    1.0985   -2.3575 H   0  0  0  0  0  0
   -3.7960   -0.8374   -1.3503 H   0  0  0  0  0  0
   -4.2401    1.0449    1.0140 H   0  0  0  0  0  0
   -2.7288   -0.4286    2.2516 H   0  0  0  0  0  0
   -3.2291   -2.3257    1.0592 H   0  0  0  0  0  0
   -5.8902   -0.4875    0.5523 H   0  0  0  0  0  0
   -4.9555    0.8326   -2.4171 H   0  0  0  0  0  0
   -2.0174    2.7998   -0.9391 H   0  0  0  0  0  0
    2.9902    2.4473    2.2933 H   0  0  0  0  0  0
    4.4147    2.6641   -0.7713 H   0  0  0  0  0  0
    5.2682   -0.4924   -1.0606 H   0  0  0  0  0  0
    2.0769   -2.6047   -2.0411 H   0  0  0  0  0  0
    3.0683   -3.0578   -0.6339 H   0  0  0  0  0  0
    1.0695   -4.1771   -0.7118 H   0  0  0  0  0  0
  1  2  1  0  0  0
  1  6  1  0  0  0
  2  3  1  0  0  0
  2 22  1  0  0  0
  2 24  1  0  0  0
  3  4  1  0  0  0
  3 21  1  0  0  0
  3 25  1  0  0  0
  4  5  1  0  0  0
  4 20  1  0  0  0
  4 26  1  0  0  0
  5  6  1  0  0  0
  5 19  1  0  0  0
  5 27  1  0  0  0
  6  7  1  0  0  0
  6 28  1  0  0  0
  7  8  1  0  0  0
  8  9  1  0  0  0
  8 29  1  0  0  0
  8 30  1  0  0  0
  9 10  1  0  0  0
  9 14  1  0  0  0
  9 31  1  0  0  0
 10 11  1  0  0  0
 11 12  1  0  0  0
 11 18  1  0  0  0
 11 32  1  0  0  0
 12 13  1  0  0  0
 12 17  1  0  0  0
 12 33  1  0  0  0
 13 14  1  0  0  0
 13 16  1  0  0  0
 13 34  1  0  0  0
 14 15  1  0  0  0
 14 35  1  0  0  0
 15 36  1  0  0  0
 16 37  1  0  0  0
 17 38  1  0  0  0
 18 39  1  0  0  0
 19 40  1  0  0  0
 20 41  1  0  0  0
 21 42  1  0  0  0
 22 23  1  0  0  0
 22 43  1  0  0  0
 22 44  1  0  0  0
 23 45  1  0  0  0
M  END
>  <Activity>
1.8

>  <set>
2

>  <Min_dist>
0.127273

>  <Avg_dist>
0.46319

$$$$
22
  Cerius2 12110214573D 1   1.00000                          
 
 24 24  0  0  0  0  0  0  0  0999 V2000
   -1.0343    0.5191    0.2274 C   0  0  0  0  0  0
   -1.2688   -0.8055   -0.5024 C   0  0  0  0  0  0
   -0.0822   -1.7388   -0.2368 C   0  0  0  0  0  0
    1.2113   -1.0068   -0.6121 C   0  0  0  0  0  0
    1.2580    0.3331    0.1260 C   0  0  0  0  0  0
    2.5619    1.0569   -0.2159 C   0  0  0  0  0  0
    2.6068    2.3082    0.4728 O   0  0  0  0  0  0
    0.1502    1.1405   -0.2677 O   0  0  0  0  0  0
    2.3373   -1.8009   -0.2333 O   0  0  0  0  0  0
   -0.0495   -2.0907    1.1479 O   0  0  0  0  0  0
   -2.4703   -1.4107   -0.0206 O   0  0  0  0  0  0
   -2.4515    1.6178   -0.0469 S   0  0  0  0  0  0
   -0.9251    0.3300    1.2953 H   0  0  0  0  0  0
   -1.3554   -0.6215   -1.5732 H   0  0  0  0  0  0
   -0.1820   -2.6391   -0.8431 H   0  0  0  0  0  0
    1.2322   -0.8315   -1.6877 H   0  0  0  0  0  0
    1.2127    0.1565    1.2007 H   0  0  0  0  0  0
    3.4092    0.4431    0.0901 H   0  0  0  0  0  0
    2.6093    1.2318   -1.2907 H   0  0  0  0  0  0
    3.4421    2.7308    0.2303 H   0  0  0  0  0  0
    2.2645   -2.6365   -0.7144 H   0  0  0  0  0  0
   -0.8854   -2.5359    1.3429 H   0  0  0  0  0  0
   -3.1883   -0.7884   -0.2007 H   0  0  0  0  0  0
   -2.0541    2.6920    0.6581 H   0  0  0  0  0  0
  1  2  1  0  0  0
  1  8  1  0  0  0
  1 12  1  0  0  0
  1 13  1  0  0  0
  2  3  1  0  0  0
  2 11  1  0  0  0
  2 14  1  0  0  0
  3  4  1  0  0  0
  3 10  1  0  0  0
  3 15  1  0  0  0
  4  5  1  0  0  0
  4  9  1  0  0  0
  4 16  1  0  0  0
  5  6  1  0  0  0
  5  8  1  0  0  0
  5 17  1  0  0  0
  6  7  1  0  0  0
  6 18  1  0  0  0
  6 19  1  0  0  0
  7 20  1  0  0  0
  9 21  1  0  0  0
 10 22  1  0  0  0
 11 23  1  0  0  0
 12 24  1  0  0  0
M  END
>  <Activity>
3

>  <set>
2

>  <Min_dist>
0.086957

>  <Avg_dist>
0.416114

$$$$
23
  Cerius2 12110214573D 1   1.00000                          
 
 38 39  0  0  0  0  0  0  0  0999 V2000
   -0.7383   -0.2683    1.3553 C   0  0  0  0  0  0
   -2.0631   -1.0337    1.3867 C   0  0  0  0  0  0
   -2.6872   -1.0094   -0.0132 C   0  0  0  0  0  0
   -2.7857    0.4470   -0.4810 C   0  0  0  0  0  0
   -1.4062    1.1004   -0.3711 C   0  0  0  0  0  0
   -1.4867    2.5453   -0.8679 C   0  0  0  0  0  0
   -0.1991    3.1565   -0.7657 O   0  0  0  0  0  0
   -0.9734    1.0897    0.9880 O   0  0  0  0  0  0
   -3.2252    0.4839   -1.8403 O   0  0  0  0  0  0
   -1.8646   -1.7490   -0.9178 O   0  0  0  0  0  0
   -1.8245   -2.3866    1.7803 O   0  0  0  0  0  0
    0.1375   -0.8734    0.4020 O   0  0  0  0  0  0
    1.3419   -0.2566    0.5281 C   0  0  0  0  0  0
    2.3711   -0.5549   -0.3533 C   0  0  0  0  0  0
    3.5943    0.0734   -0.2230 C   0  0  0  0  0  0
    3.7938    0.9986    0.7852 C   0  0  0  0  0  0
    2.7701    1.2971    1.6650 C   0  0  0  0  0  0
    1.5426    0.6763    1.5348 C   0  0  0  0  0  0
    2.1548   -1.5638   -1.4517 C   0  0  0  0  0  0
    3.3524   -1.6958   -2.2199 O   0  0  0  0  0  0
   -0.2769   -0.3020    2.3423 H   0  0  0  0  0  0
   -2.7412   -0.5601    2.0965 H   0  0  0  0  0  0
   -3.6834   -1.4502    0.0228 H   0  0  0  0  0  0
   -3.4952    0.9848    0.1478 H   0  0  0  0  0  0
   -0.6932    0.5465   -0.9817 H   0  0  0  0  0  0
   -1.8116    2.5542   -1.9083 H   0  0  0  0  0  0
   -2.2013    3.0994   -0.2593 H   0  0  0  0  0  0
   -0.2939    4.0633   -1.0879 H   0  0  0  0  0  0
   -4.0923    0.0565   -1.8653 H   0  0  0  0  0  0
   -1.8195   -2.6536   -0.5789 H   0  0  0  0  0  0
   -1.4259   -2.3553    2.6608 H   0  0  0  0  0  0
    4.3957   -0.1584   -0.9089 H   0  0  0  0  0  0
    4.7510    1.4885    0.8857 H   0  0  0  0  0  0
    2.9284    2.0198    2.4519 H   0  0  0  0  0  0
    0.7432    0.9099    2.2224 H   0  0  0  0  0  0
    1.8959   -2.5277   -1.0138 H   0  0  0  0  0  0
    1.3436   -1.2288   -2.0981 H   0  0  0  0  0  0
    3.1714   -2.3487   -2.9098 H   0  0  0  0  0  0
  1  2  1  0  0  0
  1  8  1  0  0  0
  1 12  1  0  0  0
  1 21  1  0  0  0
  2  3  1  0  0  0
  2 11  1  0  0  0
  2 22  1  0  0  0
  3  4  1  0  0  0
  3 10  1  0  0  0
  3 23  1  0  0  0
  4  5  1  0  0  0
  4  9  1  0  0  0
  4 24  1  0  0  0
  5  6  1  0  0  0
  5  8  1  0  0  0
  5 25  1  0  0  0
  6  7  1  0  0  0
  6 26  1  0  0  0
  6 27  1  0  0  0
  7 28  1  0  0  0
  9 29  1  0  0  0
 10 30  1  0  0  0
 11 31  1  0  0  0
 12 13  1  0  0  0
 13 14  1  0  0  0
 13 18  2  0  0  0
 14 15  2  0  0  0
 14 19  1  0  0  0
 15 16  1  0  0  0
 15 32  1  0  0  0
 16 17  2  0  0  0
 16 33  1  0  0  0
 17 18  1  0  0  0
 17 34  1  0  0  0
 18 35  1  0  0  0
 19 20  1  0  0  0
 19 36  1  0  0  0
 19 37  1  0  0  0
 20 38  1  0  0  0
M  END
>  <Activity>
2.1

>  <set>
2

>  <Min_dist>
0.272727

>  <Avg_dist>
0.533715

$$$$
29
  Cerius2 12110214573D 1   1.00000                          
 
 30 30  0  0  0  0  0  0  0  0999 V2000
   -0.7106   -0.3826    1.2620 C   0  0  0  0  0  0
   -1.8334    0.4761    0.6755 C   0  0  0  0  0  0
   -1.4364    0.9207   -0.7367 C   0  0  0  0  0  0
   -0.0633    1.5987   -0.6695 C   0  0  0  0  0  0
    0.9256    0.6551    0.0187 C   0  0  0  0  0  0
    2.3080    1.3094    0.0605 C   0  0  0  0  0  0
    3.2324    0.4291    0.7030 O   0  0  0  0  0  0
    0.4889    0.3842    1.3492 O   0  0  0  0  0  0
    0.3929    1.8870   -1.9928 O   0  0  0  0  0  0
   -1.3670   -0.2186   -1.5964 O   0  0  0  0  0  0
   -2.0362    1.6258    1.4995 O   0  0  0  0  0  0
   -0.4778   -1.5776    0.3738 C   0  0  0  0  0  0
   -1.4199   -2.1509   -0.1307 O   0  0  0  0  0  0
    0.7775   -2.0092    0.1401 N   0  0  0  0  0  0
    1.0038   -3.1708   -0.7233 C   0  0  0  0  0  0
   -0.9966   -0.7225    2.2574 H   0  0  0  0  0  0
   -2.7527   -0.1077    0.6291 H   0  0  0  0  0  0
   -2.1743    1.6260   -1.1191 H   0  0  0  0  0  0
   -0.1411    2.5245   -0.0994 H   0  0  0  0  0  0
    0.9836   -0.2791   -0.5398 H   0  0  0  0  0  0
    2.6453    1.5113   -0.9562 H   0  0  0  0  0  0
    2.2506    2.2449    0.6168 H   0  0  0  0  0  0
    4.0887    0.8785    0.7083 H   0  0  0  0  0  0
   -0.2614    2.4769   -2.3916 H   0  0  0  0  0  0
   -2.2464   -0.6209   -1.5988 H   0  0  0  0  0  0
   -2.2763    1.3012    2.3781 H   0  0  0  0  0  0
    1.5310   -1.5506    0.5436 H   0  0  0  0  0  0
    2.0735   -3.3684   -0.7935 H   0  0  0  0  0  0
    0.5006   -4.0408   -0.3014 H   0  0  0  0  0  0
    0.6059   -2.9676   -1.7175 H   0  0  0  0  0  0
  1  2  1  0  0  0
  1  8  1  0  0  0
  1 12  1  0  0  0
  1 16  1  0  0  0
  2  3  1  0  0  0
  2 11  1  0  0  0
  2 17  1  0  0  0
  3  4  1  0  0  0
  3 10  1  0  0  0
  3 18  1  0  0  0
  4  5  1  0  0  0
  4  9  1  0  0  0
  4 19  1  0  0  0
  5  6  1  0  0  0
  5  8  1  0  0  0
  5 20  1  0  0  0
  6  7  1  0  0  0
  6 21  1  0  0  0
  6 22  1  0  0  0
  7 23  1  0  0  0
  9 24  1  0  0  0
 10 25  1  0  0  0
 11 26  1  0  0  0
 12 13  2  0  0  0
 12 14  1  0  0  0
 14 15  1  0  0  0
 14 27  1  0  0  0
 15 28  1  0  0  0
 15 29  1  0  0  0
 15 30  1  0  0  0
M  END
>  <Activity>
1.4

>  <set>
2

>  <Min_dist>
0

>  <Avg_dist>
0.380646

$$$$
33
  Cerius2 12110214573D 1   1.00000                          
 
 29 29  0  0  0  0  0  0  0  0999 V2000
   -0.6870    0.0276    0.3653 C   0  0  0  0  0  0
   -0.4760   -1.3380   -0.2925 C   0  0  0  0  0  0
    0.9548   -1.8115   -0.0123 C   0  0  0  0  0  0
    1.9300   -0.7154   -0.4564 C   0  0  0  0  0  0
    1.5369    0.6031    0.2137 C   0  0  0  0  0  0
    2.5250    1.6967   -0.1969 C   0  0  0  0  0  0
    2.1591    2.9285    0.4283 O   0  0  0  0  0  0
    0.2211    0.9770   -0.1902 O   0  0  0  0  0  0
    3.2584   -1.0715   -0.0685 O   0  0  0  0  0  0
    1.1135   -2.0565    1.3866 O   0  0  0  0  0  0
   -0.6746   -1.2251   -1.7031 O   0  0  0  0  0  0
   -2.1018    0.4869    0.1236 C   0  0  0  0  0  0
   -2.3090    1.5187   -0.4699 O   0  0  0  0  0  0
   -3.1318   -0.2504    0.5676 O   0  0  0  0  0  0
   -4.4950    0.1920    0.3347 C   0  0  0  0  0  0
   -0.5125   -0.0560    1.4380 H   0  0  0  0  0  0
   -1.1851   -2.0553    0.1208 H   0  0  0  0  0  0
    1.1533   -2.7261   -0.5711 H   0  0  0  0  0  0
    1.8828   -0.6023   -1.5395 H   0  0  0  0  0  0
    1.5614    0.4806    1.2965 H   0  0  0  0  0  0
    3.5301    1.4146    0.1167 H   0  0  0  0  0  0
    2.5030    1.8183   -1.2799 H   0  0  0  0  0  0
    2.8054    3.5891    0.1438 H   0  0  0  0  0  0
    3.4622   -1.9094   -0.5061 H   0  0  0  0  0  0
    0.4735   -2.7412    1.6248 H   0  0  0  0  0  0
   -1.5823   -0.9183   -1.8339 H   0  0  0  0  0  0
   -5.1897   -0.5299    0.7641 H   0  0  0  0  0  0
   -4.6463    1.1647    0.8028 H   0  0  0  0  0  0
   -4.6724    0.2734   -0.7377 H   0  0  0  0  0  0
  1  2  1  0  0  0
  1  8  1  0  0  0
  1 12  1  0  0  0
  1 16  1  0  0  0
  2  3  1  0  0  0
  2 11  1  0  0  0
  2 17  1  0  0  0
  3  4  1  0  0  0
  3 10  1  0  0  0
  3 18  1  0  0  0
  4  5  1  0  0  0
  4  9  1  0  0  0
  4 19  1  0  0  0
  5  6  1  0  0  0
  5  8  1  0  0  0
  5 20  1  0  0  0
  6  7  1  0  0  0
  6 21  1  0  0  0
  6 22  1  0  0  0
  7 23  1  0  0  0
  9 24  1  0  0  0
 10 25  1  0  0  0
 11 26  1  0  0  0
 12 13  2  0  0  0
 12 14  1  0  0  0
 14 15  1  0  0  0
 15 27  1  0  0  0
 15 28  1  0  0  0
 15 29  1  0  0  0
M  END
>  <Activity>
2.6

>  <set>
2

>  <Min_dist>
0

>  <Avg_dist>
0.401784

$$$$
40
  Cerius2 12110214573D 1   1.00000                          
 
 37 38  0  0  0  0  0  0  0  0999 V2000
    0.6841   -0.3550    0.0455 C   0  0  0  0  0  0
    1.3771   -1.6248   -0.4541 C   0  0  0  0  0  0
    2.8593   -1.5700   -0.0673 C   0  0  0  0  0  0
    3.4531   -0.2552   -0.5855 C   0  0  0  0  0  0
    2.6031    0.9109   -0.0759 C   0  0  0  0  0  0
    3.2074    2.2305   -0.5600 C   0  0  0  0  0  0
    2.4145    3.3202   -0.0847 O   0  0  0  0  0  0
    1.2707    0.7899   -0.5704 O   0  0  0  0  0  0
    4.7927   -0.1147   -0.1083 O   0  0  0  0  0  0
    2.9861   -1.6257    1.3550 O   0  0  0  0  0  0
    0.7682   -2.7696    0.1463 O   0  0  0  0  0  0
   -0.7405   -0.4130   -0.2912 N   0  0  0  0  0  0
   -1.6447    0.2028    0.4960 C   0  0  0  0  0  0
   -1.2781    0.8062    1.4854 O   0  0  0  0  0  0
   -3.0823    0.1442    0.1561 C   0  0  0  0  0  0
   -4.0213    0.7809    0.9693 C   0  0  0  0  0  0
   -5.3612    0.7228    0.6462 C   0  0  0  0  0  0
   -5.7751    0.0351   -0.4808 C   0  0  0  0  0  0
   -4.8495   -0.5981   -1.2911 C   0  0  0  0  0  0
   -3.5060   -0.5430   -0.9825 C   0  0  0  0  0  0
    0.7970   -0.2824    1.1272 H   0  0  0  0  0  0
    1.2852   -1.6877   -1.5384 H   0  0  0  0  0  0
    3.3861   -2.4116   -0.5171 H   0  0  0  0  0  0
    3.4513   -0.2587   -1.6755 H   0  0  0  0  0  0
    2.5866    0.8981    1.0139 H   0  0  0  0  0  0
    4.2236    2.3267   -0.1776 H   0  0  0  0  0  0
    3.2265    2.2432   -1.6497 H   0  0  0  0  0  0
    2.8288    4.1307   -0.4113 H   0  0  0  0  0  0
    5.2905   -0.8720   -0.4457 H   0  0  0  0  0  0
    2.5890   -2.4606    1.6384 H   0  0  0  0  0  0
   -0.1624   -2.7612   -0.1161 H   0  0  0  0  0  0
   -1.0330   -0.8946   -1.0808 H   0  0  0  0  0  0
   -3.6996    1.3174    1.8496 H   0  0  0  0  0  0
   -6.0888    1.2150    1.2746 H   0  0  0  0  0  0
   -6.8253   -0.0079   -0.7289 H   0  0  0  0  0  0
   -5.1791   -1.1333   -2.1694 H   0  0  0  0  0  0
   -2.7844   -1.0374   -1.6160 H   0  0  0  0  0  0
  1  2  1  0  0  0
  1  8  1  0  0  0
  1 12  1  0  0  0
  1 21  1  0  0  0
  2  3  1  0  0  0
  2 11  1  0  0  0
  2 22  1  0  0  0
  3  4  1  0  0  0
  3 10  1  0  0  0
  3 23  1  0  0  0
  4  5  1  0  0  0
  4  9  1  0  0  0
  4 24  1  0  0  0
  5  6  1  0  0  0
  5  8  1  0  0  0
  5 25  1  0  0  0
  6  7  1  0  0  0
  6 26  1  0  0  0
  6 27  1  0  0  0
  7 28  1  0  0  0
  9 29  1  0  0  0
 10 30  1  0  0  0
 11 31  1  0  0  0
 12 13  1  0  0  0
 12 32  1  0  0  0
 13 14  2  0  0  0
 13 15  1  0  0  0
 15 16  1  0  0  0
 15 20  2  0  0  0
 16 17  2  0  0  0
 16 33  1  0  0  0
 17 18  1  0  0  0
 17 34  1  0  0  0
 18 19  2  0  0  0
 18 35  1  0  0  0
 19 20  1  0  0  0
 19 36  1  0  0  0
 20 37  1  0  0  0
M  END
>  <Activity>
4.1

>  <set>
2

>  <Min_dist>
0.154762

>  <Avg_dist>
0.469519

$$$$
42
  Cerius2 12110214573D 1   1.00000                          
 
 29 29  0  0  0  0  0  0  0  0999 V2000
   -0.6665   -0.2748   -0.1107 C   0  0  0  0  0  0
   -0.0317   -1.5651   -0.6345 C   0  0  0  0  0  0
    1.4047   -1.6643   -0.1086 C   0  0  0  0  0  0
    2.1504   -0.3754   -0.4725 C   0  0  0  0  0  0
    1.3505    0.8248    0.0392 C   0  0  0  0  0  0
    2.1036    2.1154   -0.2896 C   0  0  0  0  0  0
    1.3577    3.2369    0.1877 O   0  0  0  0  0  0
    0.0681    0.8521   -0.5846 O   0  0  0  0  0  0
    3.4432   -0.3829    0.1362 O   0  0  0  0  0  0
    1.3854   -1.8225    1.3115 O   0  0  0  0  0  0
   -0.7868   -2.6891   -0.1780 O   0  0  0  0  0  0
   -2.0509   -0.1870   -0.5818 N   0  0  0  0  0  0
   -2.9760    0.4530    0.1605 C   0  0  0  0  0  0
   -2.6617    0.9573    1.2212 O   0  0  0  0  0  0
   -4.2496    0.5338   -0.2729 N   0  0  0  0  0  0
   -0.6555   -0.2822    0.9793 H   0  0  0  0  0  0
   -0.0208   -1.5497   -1.7244 H   0  0  0  0  0  0
    1.9040   -2.5177   -0.5673 H   0  0  0  0  0  0
    2.2560   -0.3085   -1.5553 H   0  0  0  0  0  0
    1.2255    0.7432    1.1189 H   0  0  0  0  0  0
    3.0815    2.0980    0.1917 H   0  0  0  0  0  0
    2.2313    2.1967   -1.3690 H   0  0  0  0  0  0
    1.8660    4.0276   -0.0392 H   0  0  0  0  0  0
    3.9095   -1.1573   -0.2074 H   0  0  0  0  0  0
    0.8966   -2.6363    1.4955 H   0  0  0  0  0  0
   -1.6833   -2.5829   -0.5246 H   0  0  0  0  0  0
   -2.3016   -0.5893   -1.4280 H   0  0  0  0  0  0
   -4.9155    0.9944    0.2613 H   0  0  0  0  0  0
   -4.5004    0.1314   -1.1192 H   0  0  0  0  0  0
  1  2  1  0  0  0
  1  8  1  0  0  0
  1 12  1  0  0  0
  1 16  1  0  0  0
  2  3  1  0  0  0
  2 11  1  0  0  0
  2 17  1  0  0  0
  3  4  1  0  0  0
  3 10  1  0  0  0
  3 18  1  0  0  0
  4  5  1  0  0  0
  4  9  1  0  0  0
  4 19  1  0  0  0
  5  6  1  0  0  0
  5  8  1  0  0  0
  5 20  1  0  0  0
  6  7  1  0  0  0
  6 21  1  0  0  0
  6 22  1  0  0  0
  7 23  1  0  0  0
  9 24  1  0  0  0
 10 25  1  0  0  0
 11 26  1  0  0  0
 12 13  1  0  0  0
 12 27  1  0  0  0
 13 14  2  0  0  0
 13 15  1  0  0  0
 15 28  1  0  0  0
 15 29  1  0  0  0
M  END
>  <Activity>
3.9

>  <set>
2

>  <Min_dist>
0.151899

>  <Avg_dist>
0.468235

$$$$
46
  Cerius2 12110214573D 1   1.00000                          
 
 41 42  0  0  0  0  0  0  0  0999 V2000
    1.5560   -0.4087   -0.0823 C   0  0  0  0  0  0
    2.3058   -1.5683   -0.7421 C   0  0  0  0  0  0
    3.7801   -1.5108   -0.3263 C   0  0  0  0  0  0
    4.3257   -0.1145   -0.6463 C   0  0  0  0  0  0
    3.4232    0.9351    0.0063 C   0  0  0  0  0  0
    3.9788    2.3318   -0.2791 C   0  0  0  0  0  0
    3.1368    3.3129    0.3297 O   0  0  0  0  0  0
    2.1026    0.8329   -0.5228 O   0  0  0  0  0  0
    5.6530    0.0096   -0.1315 O   0  0  0  0  0  0
    3.8928   -1.7599    1.0763 O   0  0  0  0  0  0
    1.7372   -2.8086   -0.3172 O   0  0  0  0  0  0
    0.1389   -0.4741   -0.4480 N   0  0  0  0  0  0
   -0.7985   -0.0099    0.4019 C   0  0  0  0  0  0
   -0.4682    0.4629    1.4714 O   0  0  0  0  0  0
   -2.1008   -0.0700    0.0658 O   0  0  0  0  0  0
   -3.1107    0.4301    0.9814 C   0  0  0  0  0  0
   -4.4765    0.2473    0.3714 C   0  0  0  0  0  0
   -5.1829   -0.9197    0.5951 C   0  0  0  0  0  0
   -6.4357   -1.0873    0.0355 C   0  0  0  0  0  0
   -6.9824   -0.0878   -0.7474 C   0  0  0  0  0  0
   -6.2764    1.0795   -0.9704 C   0  0  0  0  0  0
   -5.0254    1.2490   -0.4073 C   0  0  0  0  0  0
    1.6536   -0.4836    1.0007 H   0  0  0  0  0  0
    2.2289   -1.4826   -1.8260 H   0  0  0  0  0  0
    4.3457   -2.2603   -0.8799 H   0  0  0  0  0  0
    4.3365    0.0342   -1.7260 H   0  0  0  0  0  0
    3.3948    0.7695    1.0832 H   0  0  0  0  0  0
    4.9858    2.4128    0.1301 H   0  0  0  0  0  0
    4.0098    2.4975   -1.3560 H   0  0  0  0  0  0
    3.5215    4.1764    0.1262 H   0  0  0  0  0  0
    6.1850   -0.6732   -0.5625 H   0  0  0  0  0  0
    3.5268   -2.6409    1.2340 H   0  0  0  0  0  0
    0.8100   -2.7996   -0.5917 H   0  0  0  0  0  0
   -0.1247   -0.8515   -1.3018 H   0  0  0  0  0  0
   -3.0552   -0.1213    1.9200 H   0  0  0  0  0  0
   -2.9364    1.4892    1.1714 H   0  0  0  0  0  0
   -4.7558   -1.7006    1.2068 H   0  0  0  0  0  0
   -6.9873   -1.9994    0.2097 H   0  0  0  0  0  0
   -7.9609   -0.2191   -1.1852 H   0  0  0  0  0  0
   -6.7034    1.8603   -1.5824 H   0  0  0  0  0  0
   -4.4738    2.1610   -0.5815 H   0  0  0  0  0  0
  1  2  1  0  0  0
  1  8  1  0  0  0
  1 12  1  0  0  0
  1 23  1  0  0  0
  2  3  1  0  0  0
  2 11  1  0  0  0
  2 24  1  0  0  0
  3  4  1  0  0  0
  3 10  1  0  0  0
  3 25  1  0  0  0
  4  5  1  0  0  0
  4  9  1  0  0  0
  4 26  1  0  0  0
  5  6  1  0  0  0
  5  8  1  0  0  0
  5 27  1  0  0  0
  6  7  1  0  0  0
  6 28  1  0  0  0
  6 29  1  0  0  0
  7 30  1  0  0  0
  9 31  1  0  0  0
 10 32  1  0  0  0
 11 33  1  0  0  0
 12 13  1  0  0  0
 12 34  1  0  0  0
 13 14  2  0  0  0
 13 15  1  0  0  0
 15 16  1  0  0  0
 16 17  1  0  0  0
 16 35  1  0  0  0
 16 36  1  0  0  0
 17 18  1  0  0  0
 17 22  2  0  0  0
 18 19  2  0  0  0
 18 37  1  0  0  0
 19 20  1  0  0  0
 19 38  1  0  0  0
 20 21  2  0  0  0
 20 39  1  0  0  0
 21 22  1  0  0  0
 21 40  1  0  0  0
 22 41  1  0  0  0
M  END
>  <Activity>
3.5

>  <set>
2

>  <Min_dist>
0.16129

>  <Avg_dist>
0.517701

$$$$
47
  Cerius2 12110214573D 1   1.00000                          
 
 37 37  0  0  0  0  0  0  0  0999 V2000
    0.7802   -0.4612   -0.1473 C   0  0  0  0  0  0
    1.6699   -1.6341   -0.5654 C   0  0  0  0  0  0
    3.0713   -1.4322    0.0222 C   0  0  0  0  0  0
    3.5811   -0.0467   -0.3904 C   0  0  0  0  0  0
    2.5468    1.0061    0.0145 C   0  0  0  0  0  0
    3.0618    2.3965   -0.3628 C   0  0  0  0  0  0
    2.0968    3.3806    0.0148 O   0  0  0  0  0  0
    1.3149    0.7576   -0.6601 O   0  0  0  0  0  0
    4.8203    0.2225    0.2684 O   0  0  0  0  0  0
    3.0102   -1.5159    1.4474 O   0  0  0  0  0  0
    1.1155   -2.8548   -0.0710 O   0  0  0  0  0  0
   -0.5707   -0.6615   -0.6775 N   0  0  0  0  0  0
   -1.6352   -0.1696   -0.0131 C   0  0  0  0  0  0
   -1.4747    0.4389    1.0237 O   0  0  0  0  0  0
   -3.0248   -0.3757   -0.5584 C   0  0  0  0  0  0
   -3.9994    0.2486    0.3397 N   0  0  0  0  0  0
   -5.3148    0.1907    0.0518 C   0  0  0  0  0  0
   -5.6917   -0.3784   -0.9507 O   0  0  0  0  0  0
   -6.3173    0.8329    0.9756 C   0  0  0  0  0  0
    0.7374   -0.4087    0.9406 H   0  0  0  0  0  0
    1.7328   -1.6746   -1.6529 H   0  0  0  0  0  0
    3.7434   -2.1989   -0.3632 H   0  0  0  0  0  0
    3.7269   -0.0183   -1.4702 H   0  0  0  0  0  0
    2.3848    0.9596    1.0914 H   0  0  0  0  0  0
    4.0002    2.5898    0.1570 H   0  0  0  0  0  0
    3.2264    2.4433   -1.4392 H   0  0  0  0  0  0
    2.4596    4.2400   -0.2399 H   0  0  0  0  0  0
    5.4394   -0.4669   -0.0083 H   0  0  0  0  0  0
    2.6730   -2.3965    1.6615 H   0  0  0  0  0  0
    0.2336   -2.9385   -0.4587 H   0  0  0  0  0  0
   -0.6991   -1.1482   -1.5067 H   0  0  0  0  0  0
   -3.0984    0.0783   -1.5466 H   0  0  0  0  0  0
   -3.2313   -1.4434   -0.6329 H   0  0  0  0  0  0
   -3.6980    0.7038    1.1415 H   0  0  0  0  0  0
   -7.3225    0.6839    0.5812 H   0  0  0  0  0  0
   -6.2438    0.3789    1.9638 H   0  0  0  0  0  0
   -6.1109    1.9006    1.0501 H   0  0  0  0  0  0
  1  2  1  0  0  0
  1  8  1  0  0  0
  1 12  1  0  0  0
  1 20  1  0  0  0
  2  3  1  0  0  0
  2 11  1  0  0  0
  2 21  1  0  0  0
  3  4  1  0  0  0
  3 10  1  0  0  0
  3 22  1  0  0  0
  4  5  1  0  0  0
  4  9  1  0  0  0
  4 23  1  0  0  0
  5  6  1  0  0  0
  5  8  1  0  0  0
  5 24  1  0  0  0
  6  7  1  0  0  0
  6 25  1  0  0  0
  6 26  1  0  0  0
  7 27  1  0  0  0
  9 28  1  0  0  0
 10 29  1  0  0  0
 11 30  1  0  0  0
 12 13  1  0  0  0
 12 31  1  0  0  0
 13 14  2  0  0  0
 13 15  1  0  0  0
 15 16  1  0  0  0
 15 32  1  0  0  0
 15 33  1  0  0  0
 16 17  1  0  0  0
 16 34  1  0  0  0
 17 18  2  0  0  0
 17 19  1  0  0  0
 19 35  1  0  0  0
 19 36  1  0  0  0
 19 37  1  0  0  0
M  END
>  <Activity>
3

>  <set>
2

>  <Min_dist>
0.11828

>  <Avg_dist>
0.493691

$$$$
48
  Cerius2 12110214573D 1   1.00000                          
 
 32 32  0  0  0  0  0  0  0  0999 V2000
   -0.3790    0.1059    0.2805 C   0  0  0  0  0  0
   -0.2239   -1.2569   -0.3984 C   0  0  0  0  0  0
    1.1534   -1.8337   -0.0517 C   0  0  0  0  0  0
    2.2241   -0.7982   -0.4139 C   0  0  0  0  0  0
    1.8837    0.5298    0.2661 C   0  0  0  0  0  0
    2.9652    1.5611   -0.0620 C   0  0  0  0  0  0
    2.6485    2.8018    0.5725 O   0  0  0  0  0  0
    0.6212    1.0019   -0.2003 O   0  0  0  0  0  0
    3.5013   -1.2531    0.0376 O   0  0  0  0  0  0
    1.2156   -2.1184    1.3473 O   0  0  0  0  0  0
   -0.3341   -1.1009   -1.8146 O   0  0  0  0  0  0
   -1.7436    0.6664   -0.0273 C   0  0  0  0  0  0
   -1.8469    1.7264   -0.6076 O   0  0  0  0  0  0
   -2.8491   -0.0101    0.3423 N   0  0  0  0  0  0
   -4.0860    0.4981    0.0633 N   0  0  0  0  0  0
   -5.0654   -0.4627    0.5885 C   0  0  0  0  0  0
   -0.2717   -0.0122    1.3588 H   0  0  0  0  0  0
   -1.0021   -1.9322   -0.0428 H   0  0  0  0  0  0
    1.3210   -2.7478   -0.6212 H   0  0  0  0  0  0
    2.2461   -0.6593   -1.4948 H   0  0  0  0  0  0
    1.8384    0.3831    1.3453 H   0  0  0  0  0  0
    3.9295    1.2040    0.2994 H   0  0  0  0  0  0
    3.0128    1.7068   -1.1412 H   0  0  0  0  0  0
    3.3531    3.4221    0.3406 H   0  0  0  0  0  0
    3.6725   -2.0936   -0.4088 H   0  0  0  0  0  0
    0.5184   -2.7623    1.5328 H   0  0  0  0  0  0
   -1.2101   -0.7296   -1.9875 H   0  0  0  0  0  0
   -2.7664   -0.8578    0.8064 H   0  0  0  0  0  0
   -4.1837    1.3402    0.6105 H   0  0  0  0  0  0
   -6.0735   -0.0995    0.3890 H   0  0  0  0  0  0
   -4.9241   -1.4280    0.1024 H   0  0  0  0  0  0
   -4.9251   -0.5733    1.6638 H   0  0  0  0  0  0
  1  2  1  0  0  0
  1  8  1  0  0  0
  1 12  1  0  0  0
  1 17  1  0  0  0
  2  3  1  0  0  0
  2 11  1  0  0  0
  2 18  1  0  0  0
  3  4  1  0  0  0
  3 10  1  0  0  0
  3 19  1  0  0  0
  4  5  1  0  0  0
  4  9  1  0  0  0
  4 20  1  0  0  0
  5  6  1  0  0  0
  5  8  1  0  0  0
  5 21  1  0  0  0
  6  7  1  0  0  0
  6 22  1  0  0  0
  6 23  1  0  0  0
  7 24  1  0  0  0
  9 25  1  0  0  0
 10 26  1  0  0  0
 11 27  1  0  0  0
 12 13  2  0  0  0
 12 14  1  0  0  0
 14 15  1  0  0  0
 14 28  1  0  0  0
 15 16  1  0  0  0
 15 29  1  0  0  0
 16 30  1  0  0  0
 16 31  1  0  0  0
 16 32  1  0  0  0
M  END
>  <Activity>
2.7

>  <set>
2

>  <Min_dist>
0.144737

>  <Avg_dist>
0.456896

$$$$
52
  Cerius2 12110214573D 1   1.00000                          
 
 41 42  0  0  0  0  0  0  0  0999 V2000
   -2.5870   -0.6449   -0.0652 C   0  0  0  0  0  0
   -3.6565   -1.6212    0.4299 C   0  0  0  0  0  0
   -5.0353   -1.1176   -0.0117 C   0  0  0  0  0  0
   -5.2035    0.3304    0.4624 C   0  0  0  0  0  0
   -4.0170    1.1590   -0.0352 C   0  0  0  0  0  0
   -4.1927    2.6139    0.4044 C   0  0  0  0  0  0
   -3.0853    3.3887   -0.0596 O   0  0  0  0  0  0
   -2.8044    0.6422    0.5097 O   0  0  0  0  0  0
   -6.4175    0.8684   -0.0657 O   0  0  0  0  0  0
   -5.1311   -1.1698   -1.4365 O   0  0  0  0  0  0
   -3.4185   -2.9148   -0.1288 O   0  0  0  0  0  0
   -0.9469   -1.2516    0.4171 S   0  0  0  0  0  0
    0.0922    0.0620   -0.2794 C   0  0  0  0  0  0
    1.5409   -0.2382    0.0075 C   0  0  0  0  0  0
    1.8426   -1.2398    0.6215 O   0  0  0  0  0  0
    2.5012    0.6062   -0.4181 N   0  0  0  0  0  0
    3.8520    0.2650   -0.2664 C   0  0  0  0  0  0
    4.2314   -1.0694   -0.2249 C   0  0  0  0  0  0
    5.5634   -1.4040   -0.0757 C   0  0  0  0  0  0
    6.5210   -0.4097    0.0330 C   0  0  0  0  0  0
    6.1465    0.9226   -0.0079 C   0  0  0  0  0  0
    4.8148    1.2626   -0.1629 C   0  0  0  0  0  0
    4.4489    2.5625   -0.2033 F   0  0  0  0  0  0
    7.8227   -0.7401    0.1797 F   0  0  0  0  0  0
   -2.6396   -0.5702   -1.1514 H   0  0  0  0  0  0
   -3.6209   -1.6801    1.5177 H   0  0  0  0  0  0
   -5.8117   -1.7405    0.4326 H   0  0  0  0  0  0
   -5.2351    0.3561    1.5517 H   0  0  0  0  0  0
   -3.9732    1.1120   -1.1233 H   0  0  0  0  0  0
   -5.1162    3.0116   -0.0164 H   0  0  0  0  0  0
   -4.2390    2.6617    1.4924 H   0  0  0  0  0  0
   -3.2351    4.2965    0.2380 H   0  0  0  0  0  0
   -7.1367    0.3135    0.2659 H   0  0  0  0  0  0
   -5.0067   -2.0943   -1.6913 H   0  0  0  0  0  0
   -2.5400   -3.1898    0.1674 H   0  0  0  0  0  0
   -0.0615    0.1138   -1.3573 H   0  0  0  0  0  0
   -0.1774    1.0166    0.1724 H   0  0  0  0  0  0
    2.2574    1.4502   -0.8295 H   0  0  0  0  0  0
    3.4855   -1.8459   -0.3089 H   0  0  0  0  0  0
    5.8582   -2.4425   -0.0435 H   0  0  0  0  0  0
    6.8948    1.6966    0.0774 H   0  0  0  0  0  0
  1  2  1  0  0  0
  1  8  1  0  0  0
  1 12  1  0  0  0
  1 25  1  0  0  0
  2  3  1  0  0  0
  2 11  1  0  0  0
  2 26  1  0  0  0
  3  4  1  0  0  0
  3 10  1  0  0  0
  3 27  1  0  0  0
  4  5  1  0  0  0
  4  9  1  0  0  0
  4 28  1  0  0  0
  5  6  1  0  0  0
  5  8  1  0  0  0
  5 29  1  0  0  0
  6  7  1  0  0  0
  6 30  1  0  0  0
  6 31  1  0  0  0
  7 32  1  0  0  0
  9 33  1  0  0  0
 10 34  1  0  0  0
 11 35  1  0  0  0
 12 13  1  0  0  0
 13 14  1  0  0  0
 13 36  1  0  0  0
 13 37  1  0  0  0
 14 15  2  0  0  0
 14 16  1  0  0  0
 16 17  1  0  0  0
 16 38  1  0  0  0
 17 18  1  0  0  0
 17 22  2  0  0  0
 18 19  2  0  0  0
 18 39  1  0  0  0
 19 20  1  0  0  0
 19 40  1  0  0  0
 20 21  2  0  0  0
 20 24  1  0  0  0
 21 22  1  0  0  0
 21 41  1  0  0  0
 22 23  1  0  0  0
M  END
>  <Activity>
1.7

>  <set>
2

>  <Min_dist>
0.119266

>  <Avg_dist>
0.569364

$$$$
54
  Cerius2 12110214573D 1   1.00000                          
 
 34 35  0  0  0  0  0  0  0  0999 V2000
   -0.1186    0.0900    0.2670 C   0  0  0  0  0  0
    0.0691   -1.2888   -0.3701 C   0  0  0  0  0  0
    1.4542   -1.8279    0.0050 C   0  0  0  0  0  0
    2.5077   -0.7826   -0.3787 C   0  0  0  0  0  0
    2.1355    0.5578    0.2591 C   0  0  0  0  0  0
    3.1996    1.6002   -0.0902 C   0  0  0  0  0  0
    2.8532    2.8524    0.5048 O   0  0  0  0  0  0
    0.8683    0.9910   -0.2316 O   0  0  0  0  0  0
    3.7894   -1.1989    0.0967 O   0  0  0  0  0  0
    1.5094   -2.0703    1.4122 O   0  0  0  0  0  0
   -0.0315   -1.1765   -1.7912 O   0  0  0  0  0  0
   -1.4910    0.6143   -0.0686 C   0  0  0  0  0  0
   -1.6097    1.6546   -0.6807 O   0  0  0  0  0  0
   -2.5864   -0.0727    0.3115 N   0  0  0  0  0  0
   -3.9205    0.4370   -0.0147 C   0  0  0  0  0  0
   -5.0369   -0.5882   -0.2236 C   0  0  0  0  0  0
   -5.0166    0.2739    1.0403 C   0  0  0  0  0  0
   -0.0186    0.0057    1.3492 H   0  0  0  0  0  0
   -0.6990   -1.9685   -0.0014 H   0  0  0  0  0  0
    1.6446   -2.7548   -0.5360 H   0  0  0  0  0  0
    2.5367   -0.6750   -1.4630 H   0  0  0  0  0  0
    2.0835    0.4419    1.3417 H   0  0  0  0  0  0
    4.1674    1.2728    0.2896 H   0  0  0  0  0  0
    3.2541    1.7150   -1.1728 H   0  0  0  0  0  0
    3.5477    3.4794    0.2607 H   0  0  0  0  0  0
    3.9809   -2.0486   -0.3233 H   0  0  0  0  0  0
    0.8232   -2.7220    1.6107 H   0  0  0  0  0  0
   -0.9130   -0.8278   -1.9823 H   0  0  0  0  0  0
   -2.4914   -0.9047    0.8011 H   0  0  0  0  0  0
   -3.9426    1.3373   -0.6289 H   0  0  0  0  0  0
   -5.7936   -0.3622   -0.9748 H   0  0  0  0  0  0
   -4.7787   -1.6419   -0.1182 H   0  0  0  0  0  0
   -4.7450   -0.2126    1.9771 H   0  0  0  0  0  0
   -5.7599    1.0671    1.1205 H   0  0  0  0  0  0
  1  2  1  0  0  0
  1  8  1  0  0  0
  1 12  1  0  0  0
  1 18  1  0  0  0
  2  3  1  0  0  0
  2 11  1  0  0  0
  2 19  1  0  0  0
  3  4  1  0  0  0
  3 10  1  0  0  0
  3 20  1  0  0  0
  4  5  1  0  0  0
  4  9  1  0  0  0
  4 21  1  0  0  0
  5  6  1  0  0  0
  5  8  1  0  0  0
  5 22  1  0  0  0
  6  7  1  0  0  0
  6 23  1  0  0  0
  6 24  1  0  0  0
  7 25  1  0  0  0
  9 26  1  0  0  0
 10 27  1  0  0  0
 11 28  1  0  0  0
 12 13  2  0  0  0
 12 14  1  0  0  0
 14 15  1  0  0  0
 14 29  1  0  0  0
 15 16  1  0  0  0
 15 17  1  0  0  0
 15 30  1  0  0  0
 16 17  1  0  0  0
 16 31  1  0  0  0
 16 32  1  0  0  0
 17 33  1  0  0  0
 17 34  1  0  0  0
M  END
>  <Activity>
2.9

>  <set>
2

>  <Min_dist>
0.121951

>  <Avg_dist>
0.422708

$$$$
55
  Cerius2 12110214573D 1   1.00000                          
 
 38 40  0  0  0  0  0  0  0  0999 V2000
   -1.0576   -0.9620    0.0977 C   0  0  0  0  0  0
   -2.4400   -1.5718    0.3408 C   0  0  0  0  0  0
   -3.5085   -0.6265   -0.2200 C   0  0  0  0  0  0
   -3.2949    0.7671    0.3816 C   0  0  0  0  0  0
   -1.8478    1.2000    0.1354 C   0  0  0  0  0  0
   -1.6335    2.6047    0.7028 C   0  0  0  0  0  0
   -0.2825    3.0101    0.4735 O   0  0  0  0  0  0
   -0.9556    0.2892    0.7749 O   0  0  0  0  0  0
   -4.1844    1.6974   -0.2392 O   0  0  0  0  0  0
   -3.3894   -0.5581   -1.6424 O   0  0  0  0  0  0
   -2.5272   -2.8367   -0.3183 O   0  0  0  0  0  0
   -0.0529   -1.8514    0.5892 O   0  0  0  0  0  0
    1.1450   -1.2617    0.3479 C   0  0  0  0  0  0
    2.3466   -1.7873    0.6659 C   0  0  0  0  0  0
    3.3625   -0.8269    0.2298 C   0  0  0  0  0  0
    4.7578   -0.8020    0.2803 C   0  0  0  0  0  0
    5.4360    0.2706   -0.2273 C   0  0  0  0  0  0
    4.7486    1.3355   -0.7927 C   0  0  0  0  0  0
    3.3714    1.3309   -0.8526 C   0  0  0  0  0  0
    2.6614    0.2504   -0.3425 C   0  0  0  0  0  0
    1.3162   -0.0470   -0.2601 N   0  0  0  0  0  0
   -0.9123   -0.8082   -0.9716 H   0  0  0  0  0  0
   -2.5967   -1.7052    1.4112 H   0  0  0  0  0  0
   -4.4990   -0.9932    0.0493 H   0  0  0  0  0  0
   -3.4886    0.7352    1.4538 H   0  0  0  0  0  0
   -1.6492    1.2079   -0.9363 H   0  0  0  0  0  0
   -2.3108    3.3026    0.2105 H   0  0  0  0  0  0
   -1.8341    2.5983    1.7741 H   0  0  0  0  0  0
   -0.1902    3.8979    0.8453 H   0  0  0  0  0  0
   -5.0825    1.3835   -0.0662 H   0  0  0  0  0  0
   -3.5174   -1.4563   -1.9771 H   0  0  0  0  0  0
   -1.8347   -3.3965    0.0585 H   0  0  0  0  0  0
    2.5252   -2.7361    1.1500 H   0  0  0  0  0  0
    5.2991   -1.6271    0.7192 H   0  0  0  0  0  0
    6.5151    0.2898   -0.1878 H   0  0  0  0  0  0
    5.2982    2.1763   -1.1894 H   0  0  0  0  0  0
    2.8457    2.1646   -1.2943 H   0  0  0  0  0  0
    0.5990    0.5205   -0.5836 H   0  0  0  0  0  0
  1  2  1  0  0  0
  1  8  1  0  0  0
  1 12  1  0  0  0
  1 22  1  0  0  0
  2  3  1  0  0  0
  2 11  1  0  0  0
  2 23  1  0  0  0
  3  4  1  0  0  0
  3 10  1  0  0  0
  3 24  1  0  0  0
  4  5  1  0  0  0
  4  9  1  0  0  0
  4 25  1  0  0  0
  5  6  1  0  0  0
  5  8  1  0  0  0
  5 26  1  0  0  0
  6  7  1  0  0  0
  6 27  1  0  0  0
  6 28  1  0  0  0
  7 29  1  0  0  0
  9 30  1  0  0  0
 10 31  1  0  0  0
 11 32  1  0  0  0
 12 13  1  0  0  0
 13 14  2  0  0  0
 13 21  1  0  0  0
 14 15  1  0  0  0
 14 33  1  0  0  0
 15 16  1  0  0  0
 15 20  2  0  0  0
 16 17  2  0  0  0
 16 34  1  0  0  0
 17 18  1  0  0  0
 17 35  1  0  0  0
 18 19  2  0  0  0
 18 36  1  0  0  0
 19 20  1  0  0  0
 19 37  1  0  0  0
 20 21  1  0  0  0
 21 38  1  0  0  0
M  END
>  <Activity>
2.6

>  <set>
2

>  <Min_dist>
0

>  <Avg_dist>
0.555402

$$$$
57
  Cerius2 12110214573D 1   1.00000                          
 
 31 32  0  0  0  0  0  0  0  0999 V2000
   -0.4375    0.0006   -0.6991 C   0  0  0  0  0  0
    0.0146   -1.4077   -1.0737 C   0  0  0  0  0  0
    1.2564   -1.7725   -0.2512 C   0  0  0  0  0  0
    2.3032   -0.6670   -0.4304 C   0  0  0  0  0  0
    1.6712    0.6812   -0.0770 C   0  0  0  0  0  0
    2.7218    1.7856   -0.2088 C   0  0  0  0  0  0
    2.1328    3.0451    0.1209 O   0  0  0  0  0  0
    0.5847    0.9522   -0.9612 O   0  0  0  0  0  0
    3.4137   -0.9156    0.4339 O   0  0  0  0  0  0
    0.9031   -1.8794    1.1293 O   0  0  0  0  0  0
   -1.0343   -2.3367   -0.7926 O   0  0  0  0  0  0
   -1.6665    0.3505   -1.4244 N   0  0  0  0  0  0
   -2.6140    0.5605   -0.4911 C   0  0  0  0  0  0
   -3.7604    0.8705   -0.7495 O   0  0  0  0  0  0
   -2.1516    0.3898    0.7533 N   0  0  0  0  0  0
   -0.8465    0.0490    0.7558 C   0  0  0  0  0  0
   -0.1481   -0.1724    1.7217 O   0  0  0  0  0  0
   -2.9073    0.5427    1.8809 N   0  0  0  0  0  0
    0.2580   -1.4419   -2.1356 H   0  0  0  0  0  0
    1.6622   -2.7212   -0.6023 H   0  0  0  0  0  0
    2.6423   -0.6504   -1.4662 H   0  0  0  0  0  0
    1.3036    0.6513    0.9487 H   0  0  0  0  0  0
    3.5496    1.5826    0.4706 H   0  0  0  0  0  0
    3.0918    1.8147   -1.2337 H   0  0  0  0  0  0
    2.8267    3.7117    0.0253 H   0  0  0  0  0  0
    4.0463   -0.1987    0.2894 H   0  0  0  0  0  0
    1.7114   -2.1094    1.6077 H   0  0  0  0  0  0
   -0.7075   -3.2115   -1.0434 H   0  0  0  0  0  0
   -1.7740    0.4174   -2.3861 H   0  0  0  0  0  0
   -3.8348    0.7971    1.5760 H   0  0  0  0  0  0
   -2.9818   -0.3695    2.3058 H   0  0  0  0  0  0
  1  2  1  0  0  0
  1  8  1  0  0  0
  1 12  1  0  0  0
  1 16  1  0  0  0
  2  3  1  0  0  0
  2 11  1  0  0  0
  2 19  1  0  0  0
  3  4  1  0  0  0
  3 10  1  0  0  0
  3 20  1  0  0  0
  4  5  1  0  0  0
  4  9  1  0  0  0
  4 21  1  0  0  0
  5  6  1  0  0  0
  5  8  1  0  0  0
  5 22  1  0  0  0
  6  7  1  0  0  0
  6 23  1  0  0  0
  6 24  1  0  0  0
  7 25  1  0  0  0
  9 26  1  0  0  0
 10 27  1  0  0  0
 11 28  1  0  0  0
 12 13  1  0  0  0
 12 29  1  0  0  0
 13 14  2  0  0  0
 13 15  1  0  0  0
 15 16  1  0  0  0
 15 18  1  0  0  0
 16 17  2  0  0  0
 18 30  1  0  0  0
 18 31  1  0  0  0
M  END
>  <Activity>
6.8

>  <set>
2

>  <Min_dist>
0.139785

>  <Avg_dist>
0.590565

$$$$
62
  Cerius2 12110214573D 1   1.00000                          
 
 34 34  0  0  0  0  0  0  0  0999 V2000
   -0.7162   -0.7779    1.2745 C   0  0  0  0  0  0
   -2.0828   -1.1152    0.6740 C   0  0  0  0  0  0
   -2.1613   -0.5384   -0.7441 C   0  0  0  0  0  0
   -1.8251    0.9560   -0.6850 C   0  0  0  0  0  0
   -0.4780    1.1365    0.0183 C   0  0  0  0  0  0
   -0.1172    2.6230    0.0524 C   0  0  0  0  0  0
    1.1406    2.7929    0.7089 O   0  0  0  0  0  0
   -0.5585    0.6375    1.3521 O   0  0  0  0  0  0
   -1.7460    1.4811   -2.0117 O   0  0  0  0  0  0
   -1.2217   -1.2083   -1.5869 O   0  0  0  0  0  0
   -3.1140   -0.5427    1.4808 O   0  0  0  0  0  0
    0.3699   -1.3560    0.4042 C   0  0  0  0  0  0
    0.2288   -2.4531   -0.0932 O   0  0  0  0  0  0
    1.4979   -0.6538    0.1786 N   0  0  0  0  0  0
    2.5537   -1.2158   -0.6674 C   0  0  0  0  0  0
    3.7152   -0.2241   -0.7598 C   0  0  0  0  0  0
    4.2345    0.0244    0.5481 O   0  0  0  0  0  0
   -0.6442   -1.2059    2.2744 H   0  0  0  0  0  0
   -2.2070   -2.1974    0.6349 H   0  0  0  0  0  0
   -3.1690   -0.6713   -1.1377 H   0  0  0  0  0  0
   -2.6005    1.4825   -0.1286 H   0  0  0  0  0  0
    0.2914    0.5893   -0.5264 H   0  0  0  0  0  0
   -0.0495    3.0039   -0.9667 H   0  0  0  0  0  0
   -0.8872    3.1715    0.5949 H   0  0  0  0  0  0
    1.3301    3.7412    0.7088 H   0  0  0  0  0  0
   -2.6112    1.3404   -2.4200 H   0  0  0  0  0  0
   -1.4623   -2.1449   -1.5846 H   0  0  0  0  0  0
   -3.0236   -0.9264    2.3637 H   0  0  0  0  0  0
    1.6107    0.2237    0.5764 H   0  0  0  0  0  0
    2.9079   -2.1508   -0.2334 H   0  0  0  0  0  0
    2.1576   -1.4053   -1.6650 H   0  0  0  0  0  0
    4.5007   -0.6422   -1.3892 H   0  0  0  0  0  0
    3.3610    0.7109   -1.1937 H   0  0  0  0  0  0
    4.9625    0.6525    0.4451 H   0  0  0  0  0  0
  1  2  1  0  0  0
  1  8  1  0  0  0
  1 12  1  0  0  0
  1 18  1  0  0  0
  2  3  1  0  0  0
  2 11  1  0  0  0
  2 19  1  0  0  0
  3  4  1  0  0  0
  3 10  1  0  0  0
  3 20  1  0  0  0
  4  5  1  0  0  0
  4  9  1  0  0  0
  4 21  1  0  0  0
  5  6  1  0  0  0
  5  8  1  0  0  0
  5 22  1  0  0  0
  6  7  1  0  0  0
  6 23  1  0  0  0
  6 24  1  0  0  0
  7 25  1  0  0  0
  9 26  1  0  0  0
 10 27  1  0  0  0
 11 28  1  0  0  0
 12 13  2  0  0  0
 12 14  1  0  0  0
 14 15  1  0  0  0
 14 29  1  0  0  0
 15 16  1  0  0  0
 15 30  1  0  0  0
 15 31  1  0  0  0
 16 17  1  0  0  0
 16 32  1  0  0  0
 16 33  1  0  0  0
 17 34  1  0  0  0
M  END
>  <Activity>
1.8

>  <set>
2

>  <Min_dist>
0

>  <Avg_dist>
0.430847

$$$$
63
  Cerius2 12110214573D 1   1.00000                          
 
 40 41  0  0  0  0  0  0  0  0999 V2000
   -2.3289   -0.8864    1.1984 C   0  0  0  0  0  0
   -3.6415   -0.8274    0.4137 C   0  0  0  0  0  0
   -3.4068   -0.0658   -0.8957 C   0  0  0  0  0  0
   -2.7814    1.2945   -0.5665 C   0  0  0  0  0  0
   -1.5339    1.0749    0.2924 C   0  0  0  0  0  0
   -0.8829    2.4253    0.5983 C   0  0  0  0  0  0
    0.2822    2.2217    1.4003 O   0  0  0  0  0  0
   -1.8953    0.4350    1.5148 O   0  0  0  0  0  0
   -2.4169    1.9590   -1.7780 O   0  0  0  0  0  0
   -2.5198   -0.8115   -1.7319 O   0  0  0  0  0  0
   -4.6324   -0.1505    1.1895 O   0  0  0  0  0  0
   -1.2774   -1.5726    0.3649 C   0  0  0  0  0  0
   -1.5726   -2.5347   -0.3119 O   0  0  0  0  0  0
   -0.0090   -1.1171    0.3718 N   0  0  0  0  0  0
    1.0132   -1.7841   -0.4384 C   0  0  0  0  0  0
    2.3354   -1.0849   -0.2543 C   0  0  0  0  0  0
    3.4199   -1.7790    0.2485 C   0  0  0  0  0  0
    4.6329   -1.1391    0.4179 C   0  0  0  0  0  0
    4.7635    0.1985    0.0836 C   0  0  0  0  0  0
    3.6785    0.8944   -0.4203 C   0  0  0  0  0  0
    2.4650    0.2510   -0.5941 C   0  0  0  0  0  0
    1.4050    0.9290   -1.0859 F   0  0  0  0  0  0
    5.9494    0.8240    0.2498 F   0  0  0  0  0  0
   -2.4826   -1.4478    2.1200 H   0  0  0  0  0  0
   -3.9792   -1.8397    0.1913 H   0  0  0  0  0  0
   -4.3574    0.0831   -1.4077 H   0  0  0  0  0  0
   -3.4999    1.9029   -0.0172 H   0  0  0  0  0  0
   -0.8271    0.4464   -0.2493 H   0  0  0  0  0  0
   -0.6009    2.9125   -0.3351 H   0  0  0  0  0  0
   -1.5898    3.0555    1.1379 H   0  0  0  0  0  0
    0.6610    3.0951    1.5698 H   0  0  0  0  0  0
   -3.2291    2.0703   -2.2909 H   0  0  0  0  0  0
   -2.9460   -1.6625   -1.9027 H   0  0  0  0  0  0
   -4.7433   -0.6578    2.0053 H   0  0  0  0  0  0
    0.2271   -0.3476    0.9131 H   0  0  0  0  0  0
    1.1050   -2.8237   -0.1237 H   0  0  0  0  0  0
    0.7256   -1.7466   -1.4891 H   0  0  0  0  0  0
    3.3191   -2.8221    0.5095 H   0  0  0  0  0  0
    5.4794   -1.6822    0.8115 H   0  0  0  0  0  0
    3.7793    1.9375   -0.6812 H   0  0  0  0  0  0
  1  2  1  0  0  0
  1  8  1  0  0  0
  1 12  1  0  0  0
  1 24  1  0  0  0
  2  3  1  0  0  0
  2 11  1  0  0  0
  2 25  1  0  0  0
  3  4  1  0  0  0
  3 10  1  0  0  0
  3 26  1  0  0  0
  4  5  1  0  0  0
  4  9  1  0  0  0
  4 27  1  0  0  0
  5  6  1  0  0  0
  5  8  1  0  0  0
  5 28  1  0  0  0
  6  7  1  0  0  0
  6 29  1  0  0  0
  6 30  1  0  0  0
  7 31  1  0  0  0
  9 32  1  0  0  0
 10 33  1  0  0  0
 11 34  1  0  0  0
 12 13  2  0  0  0
 12 14  1  0  0  0
 14 15  1  0  0  0
 14 35  1  0  0  0
 15 16  1  0  0  0
 15 36  1  0  0  0
 15 37  1  0  0  0
 16 17  1  0  0  0
 16 21  2  0  0  0
 17 18  2  0  0  0
 17 38  1  0  0  0
 18 19  1  0  0  0
 18 39  1  0  0  0
 19 20  2  0  0  0
 19 23  1  0  0  0
 20 21  1  0  0  0
 20 40  1  0  0  0
 21 22  1  0  0  0
M  END
>  <Activity>
1.6

>  <set>
2

>  <Min_dist>
0.267327

>  <Avg_dist>
0.504388

$$$$
65
  Cerius2 12110214573D 1   1.00000                          
 
 36 37  0  0  0  0  0  0  0  0999 V2000
    0.4238    0.3026   -0.9500 C   0  0  0  0  0  0
    0.8259   -1.0620   -1.5015 C   0  0  0  0  0  0
    1.7232   -1.7722   -0.4806 C   0  0  0  0  0  0
    2.8795   -0.8358   -0.1115 C   0  0  0  0  0  0
    2.3070    0.5036    0.3577 C   0  0  0  0  0  0
    3.4526    1.4293    0.7720 C   0  0  0  0  0  0
    2.9192    2.6804    1.2103 O   0  0  0  0  0  0
    1.5663    1.1098   -0.7003 O   0  0  0  0  0  0
    3.6511   -1.4204    0.9397 O   0  0  0  0  0  0
    0.9651   -2.0831    0.6902 O   0  0  0  0  0  0
   -0.3453   -1.8466   -1.7354 O   0  0  0  0  0  0
   -0.4918    0.9778   -1.8799 N   0  0  0  0  0  0
   -1.6492    1.1549   -1.2150 C   0  0  0  0  0  0
   -2.6300    1.6882   -1.6955 O   0  0  0  0  0  0
   -1.5986    0.6772    0.0343 N   0  0  0  0  0  0
   -0.3940    0.1369    0.3110 C   0  0  0  0  0  0
   -0.0413   -0.3746    1.3520 O   0  0  0  0  0  0
   -2.6641    0.7323    0.9422 N   0  0  0  0  0  0
   -3.5546   -0.2778    0.9983 C   0  0  0  0  0  0
   -3.4334   -1.2346    0.2628 O   0  0  0  0  0  0
   -4.7008   -0.2186    1.9749 C   0  0  0  0  0  0
    1.3706   -0.9311   -2.4365 H   0  0  0  0  0  0
    2.1197   -2.6889   -0.9171 H   0  0  0  0  0  0
    3.5122   -0.6761   -0.9845 H   0  0  0  0  0  0
    1.6488    0.3375    1.2106 H   0  0  0  0  0  0
    4.0155    0.9696    1.5843 H   0  0  0  0  0  0
    4.1126    1.5940   -0.0797 H   0  0  0  0  0  0
    3.6723    3.2326    1.4615 H   0  0  0  0  0  0
    4.3655   -0.8003    1.1401 H   0  0  0  0  0  0
    1.5669   -2.5273    1.3031 H   0  0  0  0  0  0
   -0.0465   -2.6983   -2.0824 H   0  0  0  0  0  0
   -0.3001    1.2439   -2.7928 H   0  0  0  0  0  0
   -2.7611    1.4975    1.5304 H   0  0  0  0  0  0
   -5.3098   -1.1170    1.8752 H   0  0  0  0  0  0
   -4.3099   -0.1553    2.9904 H   0  0  0  0  0  0
   -5.3116    0.6596    1.7653 H   0  0  0  0  0  0
  1  2  1  0  0  0
  1  8  1  0  0  0
  1 12  1  0  0  0
  1 16  1  0  0  0
  2  3  1  0  0  0
  2 11  1  0  0  0
  2 22  1  0  0  0
  3  4  1  0  0  0
  3 10  1  0  0  0
  3 23  1  0  0  0
  4  5  1  0  0  0
  4  9  1  0  0  0
  4 24  1  0  0  0
  5  6  1  0  0  0
  5  8  1  0  0  0
  5 25  1  0  0  0
  6  7  1  0  0  0
  6 26  1  0  0  0
  6 27  1  0  0  0
  7 28  1  0  0  0
  9 29  1  0  0  0
 10 30  1  0  0  0
 11 31  1  0  0  0
 12 13  1  0  0  0
 12 32  1  0  0  0
 13 14  2  0  0  0
 13 15  1  0  0  0
 15 16  1  0  0  0
 15 18  1  0  0  0
 16 17  2  0  0  0
 18 19  1  0  0  0
 18 33  1  0  0  0
 19 20  2  0  0  0
 19 21  1  0  0  0
 21 34  1  0  0  0
 21 35  1  0  0  0
 21 36  1  0  0  0
M  END
>  <Activity>
3.3

>  <set>
2

>  <Min_dist>
0.215686

>  <Avg_dist>
0.589444

$$$$
66
  Cerius2 12110214573D 1   1.00000                          
 
 30 31  0  0  0  0  0  0  0  0999 V2000
   -0.4197   -0.0181   -0.7103 C   0  0  0  0  0  0
    0.0456   -1.4281   -1.0619 C   0  0  0  0  0  0
    1.2837   -1.7721   -0.2249 C   0  0  0  0  0  0
    2.3237   -0.6614   -0.4113 C   0  0  0  0  0  0
    1.6789    0.6867   -0.0815 C   0  0  0  0  0  0
    2.7223    1.7971   -0.2204 C   0  0  0  0  0  0
    2.1214    3.0566    0.0873 O   0  0  0  0  0  0
    0.5974    0.9374   -0.9776 O   0  0  0  0  0  0
    3.4292   -0.8897    0.4649 O   0  0  0  0  0  0
    0.9204   -1.8627    1.1542 O   0  0  0  0  0  0
   -0.9985   -2.3609   -0.7761 O   0  0  0  0  0  0
   -1.6456    0.3125   -1.4499 N   0  0  0  0  0  0
   -2.6019    0.5282   -0.5268 C   0  0  0  0  0  0
   -3.7485    0.8260   -0.7983 O   0  0  0  0  0  0
   -2.1480    0.3782    0.7233 N   0  0  0  0  0  0
   -0.8404    0.0472    0.7406 C   0  0  0  0  0  0
   -0.1480   -0.1557    1.7148 O   0  0  0  0  0  0
   -2.9416    0.5468    1.8838 O   0  0  0  0  0  0
    0.2976   -1.4750   -2.1214 H   0  0  0  0  0  0
    1.6993   -2.7225   -0.5597 H   0  0  0  0  0  0
    2.6707   -0.6565   -1.4446 H   0  0  0  0  0  0
    1.3035    0.6682    0.9417 H   0  0  0  0  0  0
    3.5462    1.6097    0.4681 H   0  0  0  0  0  0
    3.1000    1.8149   -1.2427 H   0  0  0  0  0  0
    2.8112    3.7270   -0.0122 H   0  0  0  0  0  0
    4.0576   -0.1701    0.3154 H   0  0  0  0  0  0
    1.7266   -2.0800    1.6419 H   0  0  0  0  0  0
   -0.6633   -3.2367   -1.0122 H   0  0  0  0  0  0
   -1.7461    0.3654   -2.4132 H   0  0  0  0  0  0
   -3.8305    0.7800    1.5831 H   0  0  0  0  0  0
  1  2  1  0  0  0
  1  8  1  0  0  0
  1 12  1  0  0  0
  1 16  1  0  0  0
  2  3  1  0  0  0
  2 11  1  0  0  0
  2 19  1  0  0  0
  3  4  1  0  0  0
  3 10  1  0  0  0
  3 20  1  0  0  0
  4  5  1  0  0  0
  4  9  1  0  0  0
  4 21  1  0  0  0
  5  6  1  0  0  0
  5  8  1  0  0  0
  5 22  1  0  0  0
  6  7  1  0  0  0
  6 23  1  0  0  0
  6 24  1  0  0  0
  7 25  1  0  0  0
  9 26  1  0  0  0
 10 27  1  0  0  0
 11 28  1  0  0  0
 12 13  1  0  0  0
 12 29  1  0  0  0
 13 14  2  0  0  0
 13 15  1  0  0  0
 15 16  1  0  0  0
 15 18  1  0  0  0
 16 17  2  0  0  0
 18 30  1  0  0  0
M  END
>  <Activity>
4.4

>  <set>
2

>  <Min_dist>
0.120879

>  <Avg_dist>
0.589962

$$$$
