ACE_OHLEU_AGNH2
  Cerius2 12110214583D 1   1.00000                          
 
 46 45  0  0  0  0  0  0  0  0999 V2000
   -2.3148   -0.0817    0.6061 C   0  0  0  0  0  0
   -3.4131    0.8143    0.2359 N   0  0  0  0  0  0
   -3.4708    1.3317   -1.0073 C   0  0  0  0  0  0
   -2.6134    1.0556   -1.8194 O   0  0  0  0  0  0
   -4.6006    2.2535   -1.3881 C   0  0  0  0  0  0
   -4.4141    1.1367    1.1841 O   0  0  0  0  0  0
   -1.0021    0.6422    0.4519 C   0  0  0  0  0  0
   -0.9856    1.7933    0.0702 O   0  0  0  0  0  0
    0.1535    0.0105    0.7380 N   0  0  0  0  0  0
    0.1403   -0.9101    1.0433 H   0  0  0  0  0  0
    1.4296    0.7143    0.5881 C   0  0  0  0  0  0
    1.7839    1.4135    1.9020 C   0  0  0  0  0  0
    2.5110   -0.2753    0.2382 C   0  0  0  0  0  0
    2.2422   -1.4526    0.1252 O   0  0  0  0  0  0
    3.7768    0.1479    0.0508 N   0  0  0  0  0  0
    3.9918    1.0894    0.1412 H   0  0  0  0  0  0
    4.8280   -0.8141   -0.2893 C   0  0  0  0  0  0
    6.1407   -0.0902   -0.4435 C   0  0  0  0  0  0
    7.2566   -0.7777   -0.7577 N   0  0  0  0  0  0
    8.1015   -0.3117   -0.8570 H   0  0  0  0  0  0
    7.2147   -1.7384   -0.8845 H   0  0  0  0  0  0
    6.1930    1.1111   -0.2850 O   0  0  0  0  0  0
   -2.3297   -1.3105   -0.3053 C   0  0  0  0  0  0
   -3.6625   -2.0455   -0.1487 C   0  0  0  0  0  0
   -3.6774   -3.2743   -1.0602 C   0  0  0  0  0  0
   -3.8332   -2.4875    1.3061 C   0  0  0  0  0  0
   -2.4365   -0.3966    1.6425 H   0  0  0  0  0  0
   -4.4789    2.5684   -2.4245 H   0  0  0  0  0  0
   -5.5500    1.7298   -1.2765 H   0  0  0  0  0  0
   -4.5899    3.1289   -0.7388 H   0  0  0  0  0  0
   -5.0352    1.7325    0.7432 H   0  0  0  0  0  0
    1.3446    1.4555   -0.2066 H   0  0  0  0  0  0
    1.8690    0.6723    2.6966 H   0  0  0  0  0  0
    2.7334    1.9372    1.7904 H   0  0  0  0  0  0
    1.0018    2.1293    2.1551 H   0  0  0  0  0  0
    4.9131   -1.5554    0.5053 H   0  0  0  0  0  0
    4.5756   -1.3123   -1.2254 H   0  0  0  0  0  0
   -2.2081   -0.9956   -1.3417 H   0  0  0  0  0  0
   -1.5126   -1.9772   -0.0299 H   0  0  0  0  0  0
   -4.4796   -1.3788   -0.4242 H   0  0  0  0  0  0
   -4.6268   -3.7979   -0.9486 H   0  0  0  0  0  0
   -3.5557   -2.9594   -2.0966 H   0  0  0  0  0  0
   -2.8602   -3.9410   -0.7847 H   0  0  0  0  0  0
   -3.0161   -3.1542    1.5815 H   0  0  0  0  0  0
   -3.8226   -1.6121    1.9554 H   0  0  0  0  0  0
   -4.7827   -3.0112    1.4176 H   0  0  0  0  0  0
  1  2  1  0  0  0
  1  7  1  0  0  0
  1 23  1  0  0  0
  1 27  1  0  0  0
  2  3  1  0  0  0
  2  6  1  0  0  0
  3  4  2  0  0  0
  3  5  1  0  0  0
  5 28  1  0  0  0
  5 29  1  0  0  0
  5 30  1  0  0  0
  6 31  1  0  0  0
  7  8  2  0  0  0
  7  9  1  0  0  0
  9 10  1  0  0  0
  9 11  1  0  0  0
 11 12  1  0  0  0
 11 13  1  0  0  0
 11 32  1  0  0  0
 12 33  1  0  0  0
 12 34  1  0  0  0
 12 35  1  0  0  0
 13 14  2  0  0  0
 13 15  1  0  0  0
 15 16  1  0  0  0
 15 17  1  0  0  0
 17 18  1  0  0  0
 17 36  1  0  0  0
 17 37  1  0  0  0
 18 19  1  0  0  0
 18 22  2  0  0  0
 19 20  1  0  0  0
 19 21  1  0  0  0
 23 24  1  0  0  0
 23 38  1  0  0  0
 23 39  1  0  0  0
 24 25  1  0  0  0
 24 26  1  0  0  0
 24 40  1  0  0  0
 25 41  1  0  0  0
 25 42  1  0  0  0
 25 43  1  0  0  0
 26 44  1  0  0  0
 26 45  1  0  0  0
 26 46  1  0  0  0
M  END
>  <Activity>
2.47

>  <set>
1

>  <Min_dist>
999.9

>  <Avg_dist>
999.9

$$$$
BZSAG
  Cerius2 12110214583D 1   1.00000                          
 
 43 43  0  0  0  0  0  0  0  0999 V2000
    1.0664   -1.2932    0.3193 C   0  0  0  0  0  0
   -0.2448   -1.0009   -0.2651 N   0  0  0  0  0  0
   -0.3136   -0.7436   -1.1978 H   0  0  0  0  0  0
   -1.3554   -1.0894    0.4933 C   0  0  0  0  0  0
   -1.2694   -1.4111    1.6595 O   0  0  0  0  0  0
   -2.7042   -0.7886   -0.1078 C   0  0  0  0  0  0
   -3.6061   -2.0177    0.0224 C   0  0  0  0  0  0
   -5.1685   -1.7162   -0.8488 S   0  0  0  0  0  0
   -3.3401    0.3910    0.6305 C   0  0  0  0  0  0
   -2.5029    1.6261    0.4191 C   0  0  0  0  0  0
   -2.7115    2.4205   -0.6929 C   0  0  0  0  0  0
   -1.9435    3.5534   -0.8868 C   0  0  0  0  0  0
   -0.9673    3.8922    0.0314 C   0  0  0  0  0  0
   -0.7593    3.0983    1.1438 C   0  0  0  0  0  0
   -1.5302    1.9678    1.3400 C   0  0  0  0  0  0
    1.3795   -2.7813    0.1509 C   0  0  0  0  0  0
    2.1216   -0.4756   -0.3800 C   0  0  0  0  0  0
    1.8092    0.2772   -1.2781 O   0  0  0  0  0  0
    3.4126   -0.5810   -0.0074 N   0  0  0  0  0  0
    3.6625   -1.1830    0.7109 H   0  0  0  0  0  0
    4.4384    0.2139   -0.6873 C   0  0  0  0  0  0
    5.7872   -0.0869   -0.0862 C   0  0  0  0  0  0
    5.8822   -0.8864    0.8208 O   0  0  0  0  0  0
    6.8878    0.5327   -0.5565 N   0  0  0  0  0  0
    7.7560    0.3391   -0.1695 H   0  0  0  0  0  0
    6.8118    1.1721   -1.2819 H   0  0  0  0  0  0
    1.0557   -1.0419    1.3799 H   0  0  0  0  0  0
   -2.5843   -0.5359   -1.1613 H   0  0  0  0  0  0
   -3.1072   -2.8824   -0.4151 H   0  0  0  0  0  0
   -3.8088   -2.2097    1.0760 H   0  0  0  0  0  0
   -5.7944   -2.8838   -0.6165 H   0  0  0  0  0  0
   -4.3448    0.5625    0.2441 H   0  0  0  0  0  0
   -3.3939    0.1665    1.6958 H   0  0  0  0  0  0
   -3.4742    2.1558   -1.4102 H   0  0  0  0  0  0
   -2.1060    4.1736   -1.7559 H   0  0  0  0  0  0
   -0.3668    4.7769   -0.1206 H   0  0  0  0  0  0
    0.0036    3.3628    1.8609 H   0  0  0  0  0  0
   -1.3678    1.3475    2.2090 H   0  0  0  0  0  0
    1.3902   -3.0326   -0.9097 H   0  0  0  0  0  0
    2.3550   -2.9989    0.5857 H   0  0  0  0  0  0
    0.6162   -3.3727    0.6567 H   0  0  0  0  0  0
    4.4491   -0.0374   -1.7479 H   0  0  0  0  0  0
    4.2154    1.2740   -0.5673 H   0  0  0  0  0  0
  1  2  1  0  0  0
  1 16  1  0  0  0
  1 17  1  0  0  0
  1 27  1  0  0  0
  2  3  1  0  0  0
  2  4  1  0  0  0
  4  5  2  0  0  0
  4  6  1  0  0  0
  6  7  1  0  0  0
  6  9  1  0  0  0
  6 28  1  0  0  0
  7  8  1  0  0  0
  7 29  1  0  0  0
  7 30  1  0  0  0
  8 31  1  0  0  0
  9 10  1  0  0  0
  9 32  1  0  0  0
  9 33  1  0  0  0
 10 11  2  0  0  0
 10 15  1  0  0  0
 11 12  1  0  0  0
 11 34  1  0  0  0
 12 13  2  0  0  0
 12 35  1  0  0  0
 13 14  1  0  0  0
 13 36  1  0  0  0
 14 15  2  0  0  0
 14 37  1  0  0  0
 15 38  1  0  0  0
 16 39  1  0  0  0
 16 40  1  0  0  0
 16 41  1  0  0  0
 17 18  2  0  0  0
 17 19  1  0  0  0
 19 20  1  0  0  0
 19 21  1  0  0  0
 21 22  1  0  0  0
 21 42  1  0  0  0
 21 43  1  0  0  0
 22 23  2  0  0  0
 22 24  1  0  0  0
 24 25  1  0  0  0
 24 26  1  0  0  0
M  END
>  <Activity>
6.12

>  <set>
1

>  <Min_dist>
999.9

>  <Avg_dist>
999.9

$$$$
C6PLTNME
  Cerius2 12110214583D 1   1.00000                          
 
 71 72  0  0  0  0  0  0  0  0999 V2000
   -4.0273   -0.7861   -0.4772 C   0  0  0  0  0  0
   -5.0603    0.2188    0.0368 C   0  0  0  0  0  0
   -6.3301    0.1239   -0.8114 C   0  0  0  0  0  0
   -7.3630    1.1287   -0.2974 C   0  0  0  0  0  0
   -8.6328    1.0339   -1.1456 C   0  0  0  0  0  0
   -9.6658    2.0387   -0.6316 C   0  0  0  0  0  0
   -2.5144   -0.6730    0.5335 P   0  0  0  0  0  0
   -2.8541   -0.9917    2.0066 O   0  0  0  0  0  0
   -1.3781   -1.7784   -0.0320 N   0  0  0  0  0  0
   -1.1710   -1.5194   -0.9849 H   0  0  0  0  0  0
   -0.1501   -1.5550    0.7427 C   0  0  0  0  0  0
    0.9428   -1.0731   -0.1763 C   0  0  0  0  0  0
    0.7206   -0.9299   -1.3599 O   0  0  0  0  0  0
    2.1672   -0.8014    0.3173 N   0  0  0  0  0  0
    2.3449   -0.9159    1.2639 H   0  0  0  0  0  0
    3.2296   -0.3330   -0.5761 C   0  0  0  0  0  0
    3.9877   -1.5168   -1.1190 C   0  0  0  0  0  0
    4.4997   -1.4574   -2.2168 O   0  0  0  0  0  0
    4.0968   -2.6416   -0.3846 N   0  0  0  0  0  0
    3.6873   -2.6891    0.4935 H   0  0  0  0  0  0
    4.8338   -3.7925   -0.9124 C   0  0  0  0  0  0
    4.1869    0.5729    0.2011 C   0  0  0  0  0  0
    3.4288    1.7567    0.7440 C   0  0  0  0  0  0
    2.8150    1.8337    1.9353 C   0  0  0  0  0  0
    2.2323    3.0631    2.0814 N   0  0  0  0  0  0
    2.4628    3.8267    0.9591 C   0  0  0  0  0  0
    2.1059    5.1195    0.5906 C   0  0  0  0  0  0
    2.4985    5.6151   -0.6337 C   0  0  0  0  0  0
    3.2478    4.8370   -1.5051 C   0  0  0  0  0  0
    3.6091    3.5641   -1.1634 C   0  0  0  0  0  0
    3.2274    3.0440    0.0745 C   0  0  0  0  0  0
    0.2809   -2.8654    1.4045 C   0  0  0  0  0  0
    0.6849   -3.8727    0.3260 C   0  0  0  0  0  0
    1.2836   -5.1155    0.9876 C   0  0  0  0  0  0
   -0.5484   -4.2717   -0.4869 C   0  0  0  0  0  0
   -1.9355    0.7561    0.4360 O   0  5  0  0  0  0
   -4.4357   -1.7943   -0.4084 H   0  0  0  0  0  0
   -3.7876   -0.5612   -1.5165 H   0  0  0  0  0  0
   -5.3000   -0.0061    1.0761 H   0  0  0  0  0  0
   -4.6519    1.2270   -0.0319 H   0  0  0  0  0  0
   -6.0904    0.3487   -1.8507 H   0  0  0  0  0  0
   -6.7385   -0.8843   -0.7426 H   0  0  0  0  0  0
   -7.6027    0.9039    0.7419 H   0  0  0  0  0  0
   -6.9546    2.1370   -0.3661 H   0  0  0  0  0  0
   -8.3932    1.2587   -2.1849 H   0  0  0  0  0  0
   -9.0412    0.0256   -1.0768 H   0  0  0  0  0  0
  -10.5704    1.9711   -1.2359 H   0  0  0  0  0  0
   -9.9055    1.8139    0.4077 H   0  0  0  0  0  0
   -9.2574    3.0470   -0.7003 H   0  0  0  0  0  0
   -0.3364   -0.8042    1.5106 H   0  0  0  0  0  0
    2.7898    0.2265   -1.4017 H   0  0  0  0  0  0
    4.8141   -4.6021   -0.1829 H   0  0  0  0  0  0
    4.3689   -4.1275   -1.8396 H   0  0  0  0  0  0
    5.8667   -3.5041   -1.1073 H   0  0  0  0  0  0
    4.6268    0.0134    1.0267 H   0  0  0  0  0  0
    4.9774    0.9214   -0.4635 H   0  0  0  0  0  0
    2.7851    1.0423    2.6696 H   0  0  0  0  0  0
    1.7314    3.3534    2.8597 H   0  0  0  0  0  0
    1.5226    5.7327    1.2616 H   0  0  0  0  0  0
    2.2201    6.6191   -0.9182 H   0  0  0  0  0  0
    3.5475    5.2406   -2.4610 H   0  0  0  0  0  0
    4.1919    2.9643   -1.8468 H   0  0  0  0  0  0
    1.1292   -2.6781    2.0628 H   0  0  0  0  0  0
   -0.5482   -3.2686    1.9859 H   0  0  0  0  0  0
    1.4247   -3.4206   -0.3346 H   0  0  0  0  0  0
    1.5714   -5.8331    0.2192 H   0  0  0  0  0  0
    2.1622   -4.8313    1.5667 H   0  0  0  0  0  0
    0.5438   -5.5676    1.6481 H   0  0  0  0  0  0
   -1.3372   -4.6028    0.1886 H   0  0  0  0  0  0
   -0.8982   -3.4138   -1.0611 H   0  0  0  0  0  0
   -0.2884   -5.0826   -1.1672 H   0  0  0  0  0  0
  1  2  1  0  0  0
  1  7  1  0  0  0
  1 37  1  0  0  0
  1 38  1  0  0  0
  2  3  1  0  0  0
  2 39  1  0  0  0
  2 40  1  0  0  0
  3  4  1  0  0  0
  3 41  1  0  0  0
  3 42  1  0  0  0
  4  5  1  0  0  0
  4 43  1  0  0  0
  4 44  1  0  0  0
  5  6  1  0  0  0
  5 45  1  0  0  0
  5 46  1  0  0  0
  6 47  1  0  0  0
  6 48  1  0  0  0
  6 49  1  0  0  0
  7  8  2  0  0  0
  7  9  1  0  0  0
  7 36  1  0  0  0
  9 10  1  0  0  0
  9 11  1  0  0  0
 11 12  1  0  0  0
 11 32  1  0  0  0
 11 50  1  0  0  0
 12 13  2  0  0  0
 12 14  1  0  0  0
 14 15  1  0  0  0
 14 16  1  0  0  0
 16 17  1  0  0  0
 16 22  1  0  0  0
 16 51  1  0  0  0
 17 18  2  0  0  0
 17 19  1  0  0  0
 19 20  1  0  0  0
 19 21  1  0  0  0
 21 52  1  0  0  0
 21 53  1  0  0  0
 21 54  1  0  0  0
 22 23  1  0  0  0
 22 55  1  0  0  0
 22 56  1  0  0  0
 23 24  2  0  0  0
 23 31  1  0  0  0
 24 25  1  0  0  0
 24 57  1  0  0  0
 25 26  1  0  0  0
 25 58  1  0  0  0
 26 27  2  0  0  0
 26 31  1  0  0  0
 27 28  1  0  0  0
 27 59  1  0  0  0
 28 29  2  0  0  0
 28 60  1  0  0  0
 29 30  1  0  0  0
 29 61  1  0  0  0
 30 31  2  0  0  0
 30 62  1  0  0  0
 32 33  1  0  0  0
 32 63  1  0  0  0
 32 64  1  0  0  0
 33 34  1  0  0  0
 33 35  1  0  0  0
 33 65  1  0  0  0
 34 66  1  0  0  0
 34 67  1  0  0  0
 34 68  1  0  0  0
 35 69  1  0  0  0
 35 70  1  0  0  0
 35 71  1  0  0  0
M  CHG  1  36  -1
M  END
>  <Activity>
8.82

>  <set>
1

>  <Min_dist>
999.9

>  <Avg_dist>
999.9

$$$$
CH3COCH2CO_FAGNH2
  Cerius2 12110214583D 1   1.00000                          
 
 51 51  0  0  0  0  0  0  0  0999 V2000
   -0.9363   -0.2508   -0.1071 C   0  0  0  0  0  0
   -1.9712   -1.0740    0.5233 N   0  0  0  0  0  0
   -1.7561   -1.6118    1.3014 H   0  0  0  0  0  0
   -3.2223   -1.0842    0.0221 C   0  0  0  0  0  0
   -3.4914   -0.4118   -0.9507 O   0  0  0  0  0  0
   -4.2869   -1.9310    0.6706 C   0  0  0  0  0  0
   -5.5852   -1.7647   -0.0762 C   0  0  0  0  0  0
   -5.6403   -1.0339   -1.0361 O   0  0  0  0  0  0
   -6.8148   -2.5103    0.3747 C   0  0  0  0  0  0
   -0.9294    1.1387    0.5334 C   0  0  0  0  0  0
   -2.2754    1.7880    0.3391 C   0  0  0  0  0  0
   -3.2705    1.6118    1.2823 C   0  0  0  0  0  0
   -4.5051    2.2074    1.1040 C   0  0  0  0  0  0
   -4.7446    2.9796   -0.0173 C   0  0  0  0  0  0
   -3.7492    3.1566   -0.9600 C   0  0  0  0  0  0
   -2.5132    2.5645   -0.7796 C   0  0  0  0  0  0
    0.4097   -0.9002    0.0872 C   0  0  0  0  0  0
    0.4959   -1.9475    0.6927 O   0  0  0  0  0  0
    1.5175   -0.3171   -0.4118 N   0  0  0  0  0  0
    1.4485    0.5206   -0.8961 H   0  0  0  0  0  0
    2.8260   -0.9483   -0.2229 C   0  0  0  0  0  0
    3.1087   -1.8955   -1.3908 C   0  0  0  0  0  0
    3.8932    0.1143   -0.1683 C   0  0  0  0  0  0
    3.5906    1.2837   -0.2765 O   0  0  0  0  0  0
    5.1839   -0.2350    0.0008 N   0  0  0  0  0  0
    5.4259   -1.1703    0.0873 H   0  0  0  0  0  0
    6.2214    0.7980    0.0539 C   0  0  0  0  0  0
    7.5673    0.1487    0.2482 C   0  0  0  0  0  0
    8.6773    0.9090    0.3268 N   0  0  0  0  0  0
    9.5437    0.4911    0.4518 H   0  0  0  0  0  0
    8.6099    1.8742    0.2582 H   0  0  0  0  0  0
    7.6517   -1.0582    0.3339 O   0  0  0  0  0  0
   -1.1447   -0.1585   -1.1730 H   0  0  0  0  0  0
   -3.9844   -2.9779    0.6447 H   0  0  0  0  0  0
   -4.4205   -1.6170    1.7058 H   0  0  0  0  0  0
   -7.6494   -2.2656   -0.2822 H   0  0  0  0  0  0
   -6.6240   -3.5828    0.3356 H   0  0  0  0  0  0
   -7.0602   -2.2219    1.3968 H   0  0  0  0  0  0
   -0.7211    1.0463    1.5993 H   0  0  0  0  0  0
   -0.1594    1.7512    0.0643 H   0  0  0  0  0  0
   -3.0834    1.0085    2.1583 H   0  0  0  0  0  0
   -5.2828    2.0692    1.8406 H   0  0  0  0  0  0
   -5.7094    3.4444   -0.1569 H   0  0  0  0  0  0
   -3.9364    3.7596   -1.8362 H   0  0  0  0  0  0
   -1.7355    2.7027   -1.5162 H   0  0  0  0  0  0
    2.8262   -1.5118    0.7101 H   0  0  0  0  0  0
    3.1084   -1.3320   -2.3238 H   0  0  0  0  0  0
    4.0822   -2.3652   -1.2502 H   0  0  0  0  0  0
    2.3368   -2.6641   -1.4303 H   0  0  0  0  0  0
    6.2211    1.3615   -0.8792 H   0  0  0  0  0  0
    6.0200    1.4728    0.8859 H   0  0  0  0  0  0
  1  2  1  0  0  0
  1 10  1  0  0  0
  1 17  1  0  0  0
  1 33  1  0  0  0
  2  3  1  0  0  0
  2  4  1  0  0  0
  4  5  2  0  0  0
  4  6  1  0  0  0
  6  7  1  0  0  0
  6 34  1  0  0  0
  6 35  1  0  0  0
  7  8  2  0  0  0
  7  9  1  0  0  0
  9 36  1  0  0  0
  9 37  1  0  0  0
  9 38  1  0  0  0
 10 11  1  0  0  0
 10 39  1  0  0  0
 10 40  1  0  0  0
 11 12  2  0  0  0
 11 16  1  0  0  0
 12 13  1  0  0  0
 12 41  1  0  0  0
 13 14  2  0  0  0
 13 42  1  0  0  0
 14 15  1  0  0  0
 14 43  1  0  0  0
 15 16  2  0  0  0
 15 44  1  0  0  0
 16 45  1  0  0  0
 17 18  2  0  0  0
 17 19  1  0  0  0
 19 20  1  0  0  0
 19 21  1  0  0  0
 21 22  1  0  0  0
 21 23  1  0  0  0
 21 46  1  0  0  0
 22 47  1  0  0  0
 22 48  1  0  0  0
 22 49  1  0  0  0
 23 24  2  0  0  0
 23 25  1  0  0  0
 25 26  1  0  0  0
 25 27  1  0  0  0
 27 28  1  0  0  0
 27 50  1  0  0  0
 27 51  1  0  0  0
 28 29  1  0  0  0
 28 32  2  0  0  0
 29 30  1  0  0  0
 29 31  1  0  0  0
M  END
>  <Activity>
2.51

>  <set>
1

>  <Min_dist>
999.9

>  <Avg_dist>
999.9

$$$$
CLTZNCRYS
  Cerius2 12110214583D 1   1.00000                          
 
 66 68  0  0  0  0  0  0  0  0999 V2000
   -2.0216    0.7880   -0.3490 C   0  0  0  0  0  0
   -3.4653    0.9464    0.1322 C   0  0  0  0  0  0
   -4.2230   -0.3645   -0.0882 C   0  0  0  0  0  0
   -5.6736   -0.1729    0.2725 C   0  0  0  0  0  0
   -6.5760    0.2415   -0.6891 C   0  0  0  0  0  0
   -7.9066    0.4172   -0.3582 C   0  0  0  0  0  0
   -8.3349    0.1781    0.9342 C   0  0  0  0  0  0
   -7.4326   -0.2371    1.8956 C   0  0  0  0  0  0
   -6.1028   -0.4171    1.5637 C   0  0  0  0  0  0
   -1.3104    2.1128   -0.2485 C   0  0  0  0  0  0
   -1.3245    2.8785   -1.1831 O   0  0  0  0  0  0
   -0.6613    2.4423    0.8793 O   0  5  0  0  0  0
   -1.3322   -0.2026    0.4885 N   0  0  0  0  0  0
   -0.2297   -0.7431   -0.3179 C   0  0  0  0  0  0
    0.8659   -1.2334    0.5933 C   0  0  0  0  0  0
    0.5941   -1.6463    1.7008 O   0  0  0  0  0  0
    2.1478   -1.2128    0.1776 N   0  0  0  0  0  0
    2.3622   -0.9107   -0.7188 H   0  0  0  0  0  0
    3.2174   -1.6469    1.0797 C   0  0  0  0  0  0
    3.4496   -3.1261    0.9084 C   0  0  0  0  0  0
    3.8410   -3.7881    1.8403 O   0  0  0  0  0  0
    3.2216   -3.7081   -0.2795 O   0  5  0  0  0  0
    4.5035   -0.8871    0.7487 C   0  0  0  0  0  0
    4.2713    0.5920    0.9200 C   0  0  0  0  0  0
    4.4563    1.3046    2.0424 C   0  0  0  0  0  0
    4.1436    2.6177    1.8182 N   0  0  0  0  0  0
    3.7395    2.7863    0.5128 C   0  0  0  0  0  0
    3.8069    1.5260   -0.1085 C   0  0  0  0  0  0
    3.4513    1.3918   -1.4521 C   0  0  0  0  0  0
    3.0390    2.4870   -2.1573 C   0  0  0  0  0  0
    2.9712    3.7330   -1.5488 C   0  0  0  0  0  0
    3.3205    3.8886   -0.2254 C   0  0  0  0  0  0
   -0.7432   -1.9059   -1.1695 C   0  0  0  0  0  0
    0.3578   -2.3596   -2.1302 C   0  0  0  0  0  0
   -0.0983   -3.6183   -2.8708 C   0  0  0  0  0  0
    0.6420   -1.2475   -3.1419 C   0  0  0  0  0  0
   -2.0190    0.4520   -1.3859 H   0  0  0  0  0  0
   -3.4694    1.1944    1.1936 H   0  0  0  0  0  0
   -3.9499    1.7450   -0.4294 H   0  0  0  0  0  0
   -4.1446   -0.6579   -1.1350 H   0  0  0  0  0  0
   -3.7920   -1.1434    0.5408 H   0  0  0  0  0  0
   -6.2414    0.4283   -1.6988 H   0  0  0  0  0  0
   -8.6116    0.7416   -1.1094 H   0  0  0  0  0  0
   -9.3743    0.3161    1.1929 H   0  0  0  0  0  0
   -7.7671   -0.4236    2.9054 H   0  0  0  0  0  0
   -5.3979   -0.7415    2.3148 H   0  0  0  0  0  0
   -0.9110    0.3057    1.2517 H   0  0  0  0  0  0
    0.1617    0.0387   -0.9688 H   0  0  0  0  0  0
    2.9291   -1.4414    2.1106 H   0  0  0  0  0  0
    5.2993   -1.2101    1.4198 H   0  0  0  0  0  0
    4.7918   -1.0926   -0.2822 H   0  0  0  0  0  0
    4.8005    0.9012    2.9833 H   0  0  0  0  0  0
    4.1982    3.3245    2.4803 H   0  0  0  0  0  0
    3.5022    0.4258   -1.9323 H   0  0  0  0  0  0
    2.7640    2.3827   -3.1965 H   0  0  0  0  0  0
    2.6437    4.5895   -2.1194 H   0  0  0  0  0  0
    3.2643    4.8620    0.2390 H   0  0  0  0  0  0
   -1.0236   -2.7355   -0.5205 H   0  0  0  0  0  0
   -1.6129   -1.5815   -1.7408 H   0  0  0  0  0  0
    1.2646   -2.5783   -1.5664 H   0  0  0  0  0  0
    0.6860   -3.9415   -3.5552 H   0  0  0  0  0  0
   -0.3008   -4.4106   -2.1501 H   0  0  0  0  0  0
   -1.0051   -3.3996   -3.4346 H   0  0  0  0  0  0
   -0.2756   -0.9975   -3.6744 H   0  0  0  0  0  0
    1.0100   -0.3652   -2.6181 H   0  0  0  0  0  0
    1.3941   -1.5875   -3.8538 H   0  0  0  0  0  0
  1  2  1  0  0  0
  1 10  1  0  0  0
  1 13  1  0  0  0
  1 37  1  0  0  0
  2  3  1  0  0  0
  2 38  1  0  0  0
  2 39  1  0  0  0
  3  4  1  0  0  0
  3 40  1  0  0  0
  3 41  1  0  0  0
  4  5  1  0  0  0
  4  9  2  0  0  0
  5  6  2  0  0  0
  5 42  1  0  0  0
  6  7  1  0  0  0
  6 43  1  0  0  0
  7  8  2  0  0  0
  7 44  1  0  0  0
  8  9  1  0  0  0
  8 45  1  0  0  0
  9 46  1  0  0  0
 10 11  2  0  0  0
 10 12  1  0  0  0
 13 14  1  0  0  0
 13 47  1  0  0  0
 14 15  1  0  0  0
 14 33  1  0  0  0
 14 48  1  0  0  0
 15 16  2  0  0  0
 15 17  1  0  0  0
 17 18  1  0  0  0
 17 19  1  0  0  0
 19 20  1  0  0  0
 19 23  1  0  0  0
 19 49  1  0  0  0
 20 21  2  0  0  0
 20 22  1  0  0  0
 23 24  1  0  0  0
 23 50  1  0  0  0
 23 51  1  0  0  0
 24 25  2  0  0  0
 24 28  1  0  0  0
 25 26  1  0  0  0
 25 52  1  0  0  0
 26 27  1  0  0  0
 26 53  1  0  0  0
 27 28  2  0  0  0
 27 32  1  0  0  0
 28 29  1  0  0  0
 29 30  2  0  0  0
 29 54  1  0  0  0
 30 31  1  0  0  0
 30 55  1  0  0  0
 31 32  2  0  0  0
 31 56  1  0  0  0
 32 57  1  0  0  0
 33 34  1  0  0  0
 33 58  1  0  0  0
 33 59  1  0  0  0
 34 35  1  0  0  0
 34 36  1  0  0  0
 34 60  1  0  0  0
 35 61  1  0  0  0
 35 62  1  0  0  0
 35 63  1  0  0  0
 36 64  1  0  0  0
 36 65  1  0  0  0
 36 66  1  0  0  0
M  CHG  2  12  -1  22  -1
M  END
>  <Activity>
7.47

>  <set>
1

>  <Min_dist>
999.9

>  <Avg_dist>
999.9

$$$$
DAH51
  Cerius2 12110214583D 1   1.00000                          
 
 62 63  0  0  0  0  0  0  0  0999 V2000
   -1.8406    0.7751   -0.6195 C   0  0  0  0  0  0
   -3.2750    0.9752   -0.1264 C   0  0  0  0  0  0
   -3.9735   -0.3823   -0.0248 C   0  0  0  0  0  0
   -5.4204   -0.1765    0.3427 C   0  0  0  0  0  0
   -6.3703   -0.0217   -0.6496 C   0  0  0  0  0  0
   -7.6975    0.1671   -0.3124 C   0  0  0  0  0  0
   -8.0749    0.2006    1.0170 C   0  0  0  0  0  0
   -7.1252    0.0449    2.0093 C   0  0  0  0  0  0
   -5.7986   -0.1482    1.6720 C   0  0  0  0  0  0
   -1.1954    2.1180   -0.8463 C   0  0  0  0  0  0
   -1.2774    2.6529   -1.9266 O   0  0  0  0  0  0
   -0.5297    2.7199    0.1519 O   0  5  0  0  0  0
   -1.0760    0.0284    0.3883 N   0  0  0  0  0  0
    0.0217   -0.6393   -0.3238 C   0  0  0  0  0  0
    1.2181   -0.7480    0.5861 C   0  0  0  0  0  0
    1.0625   -0.8154    1.7870 O   0  0  0  0  0  0
    2.4610   -0.7703    0.0653 N   0  0  0  0  0  0
    2.5862   -0.7006   -0.8941 H   0  0  0  0  0  0
    3.6229   -0.8998    0.9481 C   0  0  0  0  0  0
    3.9489   -2.3587    1.1386 C   0  0  0  0  0  0
    4.4551   -2.7351    2.1692 O   0  0  0  0  0  0
    3.6770   -3.2401    0.1635 O   0  5  0  0  0  0
    4.8224   -0.1870    0.3203 C   0  0  0  0  0  0
    4.4964    1.2720    0.1298 C   0  0  0  0  0  0
    4.7764    2.1797    1.1341 C   0  0  0  0  0  0
    4.4773    3.5179    0.9593 C   0  0  0  0  0  0
    3.8986    3.9485   -0.2199 C   0  0  0  0  0  0
    3.6194    3.0410   -1.2245 C   0  0  0  0  0  0
    3.9225    1.7034   -1.0515 C   0  0  0  0  0  0
   -0.4239   -2.0396   -0.7498 C   0  0  0  0  0  0
    0.6534   -2.6706   -1.6341 C   0  0  0  0  0  0
    0.2873   -4.1279   -1.9226 C   0  0  0  0  0  0
    0.7487   -1.8984   -2.9515 C   0  0  0  0  0  0
   -1.8526    0.2153   -1.5547 H   0  0  0  0  0  0
   -3.2591    1.4499    0.8547 H   0  0  0  0  0  0
   -3.8154    1.6102   -0.8285 H   0  0  0  0  0  0
   -3.9118   -0.8953   -0.9846 H   0  0  0  0  0  0
   -3.4861   -0.9852    0.7414 H   0  0  0  0  0  0
   -6.0755   -0.0479   -1.6882 H   0  0  0  0  0  0
   -8.4396    0.2887   -1.0876 H   0  0  0  0  0  0
   -9.1118    0.3488    1.2804 H   0  0  0  0  0  0
   -7.4200    0.0714    3.0479 H   0  0  0  0  0  0
   -5.0565   -0.2699    2.4473 H   0  0  0  0  0  0
   -0.6528    0.7130    0.9970 H   0  0  0  0  0  0
    0.2884   -0.0585   -1.2068 H   0  0  0  0  0  0
    3.3971   -0.4487    1.9144 H   0  0  0  0  0  0
    5.6869   -0.2833    0.9772 H   0  0  0  0  0  0
    5.0482   -0.6380   -0.6459 H   0  0  0  0  0  0
    5.2286    1.8432    2.0554 H   0  0  0  0  0  0
    4.6955    4.2270    1.7442 H   0  0  0  0  0  0
    3.6643    4.9940   -0.3562 H   0  0  0  0  0  0
    3.1669    3.3773   -2.1457 H   0  0  0  0  0  0
    3.7043    0.9943   -1.8364 H   0  0  0  0  0  0
   -0.5755   -2.6576    0.1352 H   0  0  0  0  0  0
   -1.3574   -1.9696   -1.3083 H   0  0  0  0  0  0
    1.6138   -2.6322   -1.1201 H   0  0  0  0  0  0
    1.0548   -4.5775   -2.5526 H   0  0  0  0  0  0
    0.2194   -4.6781   -0.9840 H   0  0  0  0  0  0
   -0.6731   -4.1664   -2.4366 H   0  0  0  0  0  0
   -0.2300   -1.8754   -3.4308 H   0  0  0  0  0  0
    1.0797   -0.8792   -2.7521 H   0  0  0  0  0  0
    1.4644   -2.3905   -3.6101 H   0  0  0  0  0  0
  1  2  1  0  0  0
  1 10  1  0  0  0
  1 13  1  0  0  0
  1 34  1  0  0  0
  2  3  1  0  0  0
  2 35  1  0  0  0
  2 36  1  0  0  0
  3  4  1  0  0  0
  3 37  1  0  0  0
  3 38  1  0  0  0
  4  5  1  0  0  0
  4  9  2  0  0  0
  5  6  2  0  0  0
  5 39  1  0  0  0
  6  7  1  0  0  0
  6 40  1  0  0  0
  7  8  2  0  0  0
  7 41  1  0  0  0
  8  9  1  0  0  0
  8 42  1  0  0  0
  9 43  1  0  0  0
 10 11  2  0  0  0
 10 12  1  0  0  0
 13 14  1  0  0  0
 13 44  1  0  0  0
 14 15  1  0  0  0
 14 30  1  0  0  0
 14 45  1  0  0  0
 15 16  2  0  0  0
 15 17  1  0  0  0
 17 18  1  0  0  0
 17 19  1  0  0  0
 19 20  1  0  0  0
 19 23  1  0  0  0
 19 46  1  0  0  0
 20 21  2  0  0  0
 20 22  1  0  0  0
 23 24  1  0  0  0
 23 47  1  0  0  0
 23 48  1  0  0  0
 24 25  1  0  0  0
 24 29  2  0  0  0
 25 26  2  0  0  0
 25 49  1  0  0  0
 26 27  1  0  0  0
 26 50  1  0  0  0
 27 28  2  0  0  0
 27 51  1  0  0  0
 28 29  1  0  0  0
 28 52  1  0  0  0
 29 53  1  0  0  0
 30 31  1  0  0  0
 30 54  1  0  0  0
 30 55  1  0  0  0
 31 32  1  0  0  0
 31 33  1  0  0  0
 31 56  1  0  0  0
 32 57  1  0  0  0
 32 58  1  0  0  0
 32 59  1  0  0  0
 33 60  1  0  0  0
 33 61  1  0  0  0
 33 62  1  0  0  0
M  CHG  2  12  -1  22  -1
M  END
>  <Activity>
6.22

>  <set>
1

>  <Min_dist>
999.9

>  <Avg_dist>
999.9

$$$$
DAH52
  Cerius2 12110214583D 1   1.00000                          
 
 49 49  0  0  0  0  0  0  0  0999 V2000
    2.9349   -1.1136   -0.5756 C   0  0  0  0  0  0
    2.1718   -2.2380   -1.2786 C   0  0  0  0  0  0
    4.3603   -1.0919   -1.0643 C   0  0  0  0  0  0
    5.2503   -1.7812   -0.4652 O   0  0  0  0  0  0
    4.6765   -0.3842   -2.0770 O   0  5  0  0  0  0
    2.2949    0.1743   -0.8753 N   0  0  0  0  0  0
    1.2210    0.3517    0.1113 C   0  0  0  0  0  0
   -0.0720    0.6519   -0.6022 C   0  0  0  0  0  0
   -0.0965    0.7121   -1.8132 O   0  0  0  0  0  0
   -1.2012    0.8534    0.1056 N   0  0  0  0  0  0
   -1.1815    0.8052    1.0742 H   0  0  0  0  0  0
   -2.4581    1.1452   -0.5880 C   0  0  0  0  0  0
   -2.6014    2.6352   -0.7625 C   0  0  0  0  0  0
   -2.0844    3.4297    0.0906 O   0  0  0  0  0  0
   -3.2396    3.1015   -1.7632 O   0  5  0  0  0  0
   -3.6315    0.6132    0.2373 C   0  0  0  0  0  0
   -3.4882   -0.8768    0.4118 C   0  0  0  0  0  0
   -2.7964   -1.3823    1.4966 C   0  0  0  0  0  0
   -2.6649   -2.7491    1.6566 C   0  0  0  0  0  0
   -3.2257   -3.6103    0.7321 C   0  0  0  0  0  0
   -3.9183   -3.1048   -0.3522 C   0  0  0  0  0  0
   -4.0534   -1.7381   -0.5099 C   0  0  0  0  0  0
    1.5711    1.5137    1.0429 C   0  0  0  0  0  0
    2.8390    1.1732    1.8287 C   0  0  0  0  0  0
    3.2807    2.3941    2.6382 C   0  0  0  0  0  0
    2.5531    0.0080    2.7781 C   0  0  0  0  0  0
    2.9224   -1.2837    0.5009 H   0  0  0  0  0  0
    2.1843   -2.0679   -2.3551 H   0  0  0  0  0  0
    2.6467   -3.1936   -1.0563 H   0  0  0  0  0  0
    1.1408   -2.2537   -0.9251 H   0  0  0  0  0  0
    2.9814    0.8897   -0.6883 H   0  0  0  0  0  0
    1.1100   -0.5617    0.6956 H   0  0  0  0  0  0
   -2.4538    0.6636   -1.5658 H   0  0  0  0  0  0
   -3.6357    1.0948    1.2152 H   0  0  0  0  0  0
   -4.5667    0.8303   -0.2787 H   0  0  0  0  0  0
   -2.3582   -0.7094    2.2189 H   0  0  0  0  0  0
   -2.1238   -3.1440    2.5037 H   0  0  0  0  0  0
   -3.1224   -4.6781    0.8568 H   0  0  0  0  0  0
   -4.3561   -3.7777   -1.0746 H   0  0  0  0  0  0
   -4.5946   -1.3432   -1.3570 H   0  0  0  0  0  0
    1.7404    2.4143    0.4527 H   0  0  0  0  0  0
    0.7481    1.6836    1.7371 H   0  0  0  0  0  0
    3.6314    0.8910    1.1354 H   0  0  0  0  0  0
    4.1839    2.1516    3.1980 H   0  0  0  0  0  0
    3.4843    3.2243    1.9618 H   0  0  0  0  0  0
    2.4883    2.6764    3.3315 H   0  0  0  0  0  0
    1.6881    0.2472    3.3966 H   0  0  0  0  0  0
    2.3474   -0.8914    2.1978 H   0  0  0  0  0  0
    3.4203   -0.1618    3.4163 H   0  0  0  0  0  0
  1  2  1  0  0  0
  1  3  1  0  0  0
  1  6  1  0  0  0
  1 27  1  0  0  0
  2 28  1  0  0  0
  2 29  1  0  0  0
  2 30  1  0  0  0
  3  4  2  0  0  0
  3  5  1  0  0  0
  6  7  1  0  0  0
  6 31  1  0  0  0
  7  8  1  0  0  0
  7 23  1  0  0  0
  7 32  1  0  0  0
  8  9  2  0  0  0
  8 10  1  0  0  0
 10 11  1  0  0  0
 10 12  1  0  0  0
 12 13  1  0  0  0
 12 16  1  0  0  0
 12 33  1  0  0  0
 13 14  2  0  0  0
 13 15  1  0  0  0
 16 17  1  0  0  0
 16 34  1  0  0  0
 16 35  1  0  0  0
 17 18  2  0  0  0
 17 22  1  0  0  0
 18 19  1  0  0  0
 18 36  1  0  0  0
 19 20  2  0  0  0
 19 37  1  0  0  0
 20 21  1  0  0  0
 20 38  1  0  0  0
 21 22  2  0  0  0
 21 39  1  0  0  0
 22 40  1  0  0  0
 23 24  1  0  0  0
 23 41  1  0  0  0
 23 42  1  0  0  0
 24 25  1  0  0  0
 24 26  1  0  0  0
 24 43  1  0  0  0
 25 44  1  0  0  0
 25 45  1  0  0  0
 25 46  1  0  0  0
 26 47  1  0  0  0
 26 48  1  0  0  0
 26 49  1  0  0  0
M  CHG  2   5  -1  15  -1
M  END
>  <Activity>
5.55

>  <set>
1

>  <Min_dist>
999.9

>  <Avg_dist>
999.9

$$$$
DAH53
  Cerius2 12110214583D 1   1.00000                          
 
 90 92  0  0  0  0  0  0  0  0999 V2000
    9.0830    3.7326    1.1985 C   0  0  0  0  0  0
    8.5410    2.5110    0.8452 C   0  0  0  0  0  0
    7.8625    2.3760   -0.3516 C   0  0  0  0  0  0
    7.7257    3.4627   -1.1949 C   0  0  0  0  0  0
    8.2669    4.6845   -0.8413 C   0  0  0  0  0  0
    8.9466    4.8192    0.3549 C   0  0  0  0  0  0
    7.2725    1.0440   -0.7372 C   0  0  0  0  0  0
    5.9129    0.9535   -0.2357 O   0  0  0  0  0  0
    5.1843   -0.1559   -0.4620 C   0  0  0  0  0  0
    5.6646   -1.0814   -1.0859 O   0  0  0  0  0  0
    3.9223   -0.2399    0.0035 N   0  0  0  0  0  0
    3.5389    0.4989    0.5015 H   0  0  0  0  0  0
    3.1295   -1.4470   -0.2428 C   0  0  0  0  0  0
    3.3450   -2.4407    0.9005 C   0  0  0  0  0  0
    4.8049   -2.8060    0.9801 C   0  0  0  0  0  0
    5.6609   -2.0639    1.7721 C   0  0  0  0  0  0
    7.0001   -2.3989    1.8450 C   0  0  0  0  0  0
    7.4831   -3.4764    1.1263 C   0  0  0  0  0  0
    6.6269   -4.2192    0.3350 C   0  0  0  0  0  0
    5.2869   -3.8867    0.2654 C   0  0  0  0  0  0
    1.6697   -1.0817   -0.3223 C   0  0  0  0  0  0
    1.3253    0.0733   -0.1867 O   0  0  0  0  0  0
    0.7467   -2.0384   -0.5442 N   0  0  0  0  0  0
    1.0221   -2.9622   -0.6527 H   0  0  0  0  0  0
   -0.6725   -1.6833   -0.6216 C   0  0  0  0  0  0
   -1.5004   -2.9440   -0.8787 C   0  0  0  0  0  0
   -2.9826   -2.5731   -0.9595 C   0  0  0  0  0  0
   -3.7981   -3.8148   -1.2128 C   0  0  0  0  0  0
   -4.0898   -4.1258   -2.3433 O   0  0  0  0  0  0
   -4.2003   -4.5754   -0.1825 O   0  5  0  0  0  0
   -3.4038   -1.9606    0.3075 N   0  0  0  0  0  0
   -4.5545   -1.1011   -0.0011 C   0  0  0  0  0  0
   -5.4092   -0.9225    1.2553 C   0  0  0  0  0  0
   -6.0269   -2.2663    1.6472 C   0  0  0  0  0  0
   -6.7611   -2.1203    2.9815 C   0  0  0  0  0  0
   -7.0159   -2.7075    0.5664 C   0  0  0  0  0  0
   -4.0647    0.2444   -0.4709 C   0  0  0  0  0  0
   -2.8743    0.4656   -0.5417 O   0  0  0  0  0  0
   -4.9495    1.2020   -0.8124 N   0  0  0  0  0  0
   -5.9016    1.0251   -0.7558 H   0  0  0  0  0  0
   -4.4734    2.5100   -1.2691 C   0  0  0  0  0  0
   -4.3023    2.4876   -2.7662 C   0  0  0  0  0  0
   -3.4630    3.1821   -3.2888 O   0  0  0  0  0  0
   -5.0825    1.6962   -3.5191 O   0  5  0  0  0  0
   -5.4930    3.5853   -0.8883 C   0  0  0  0  0  0
   -5.6640    3.6077    0.6088 C   0  0  0  0  0  0
   -4.8606    4.4227    1.3841 C   0  0  0  0  0  0
   -5.0175    4.4432    2.7574 C   0  0  0  0  0  0
   -5.9781    3.6490    3.3553 C   0  0  0  0  0  0
   -6.7821    2.8347    2.5798 C   0  0  0  0  0  0
   -6.6281    2.8174    1.2062 C   0  0  0  0  0  0
    9.6092    3.8392    2.1355 H   0  0  0  0  0  0
    8.6480    1.6619    1.5041 H   0  0  0  0  0  0
    7.1962    3.3571   -2.1303 H   0  0  0  0  0  0
    8.1606    5.5334   -1.5005 H   0  0  0  0  0  0
    9.3691    5.7739    0.6314 H   0  0  0  0  0  0
    7.2663    0.9500   -1.8231 H   0  0  0  0  0  0
    7.8727    0.2424   -0.3066 H   0  0  0  0  0  0
    3.4421   -1.9015   -1.1829 H   0  0  0  0  0  0
    3.0325   -1.9862    1.8406 H   0  0  0  0  0  0
    2.7552   -3.3388    0.7173 H   0  0  0  0  0  0
    5.2836   -1.2220    2.3336 H   0  0  0  0  0  0
    7.6690   -1.8187    2.4633 H   0  0  0  0  0  0
    8.5295   -3.7378    1.1828 H   0  0  0  0  0  0
    7.0043   -5.0608   -0.2268 H   0  0  0  0  0  0
    4.6180   -4.4670   -0.3528 H   0  0  0  0  0  0
   -0.9851   -1.2289    0.3186 H   0  0  0  0  0  0
   -0.8260   -0.9754   -1.4360 H   0  0  0  0  0  0
   -1.1878   -3.3984   -1.8189 H   0  0  0  0  0  0
   -1.3469   -3.6519   -0.0642 H   0  0  0  0  0  0
   -3.1361   -1.8652   -1.7740 H   0  0  0  0  0  0
   -3.7487   -2.7085    0.8905 H   0  0  0  0  0  0
   -5.1536   -1.5638   -0.7853 H   0  0  0  0  0  0
   -4.7845   -0.5581    2.0709 H   0  0  0  0  0  0
   -6.2026   -0.2023    1.0556 H   0  0  0  0  0  0
   -5.2393   -3.0133    1.7457 H   0  0  0  0  0  0
   -7.2012   -3.0777    3.2607 H   0  0  0  0  0  0
   -6.0565   -1.8060    3.7515 H   0  0  0  0  0  0
   -7.5488   -1.3733    2.8830 H   0  0  0  0  0  0
   -7.7492   -1.9182    0.4009 H   0  0  0  0  0  0
   -6.4774   -2.9034   -0.3608 H   0  0  0  0  0  0
   -7.5258   -3.6152    0.8892 H   0  0  0  0  0  0
   -3.5165    2.7333   -0.7974 H   0  0  0  0  0  0
   -5.1387    4.5585   -1.2281 H   0  0  0  0  0  0
   -6.4499    3.3620   -1.3600 H   0  0  0  0  0  0
   -4.1101    5.0432    0.9170 H   0  0  0  0  0  0
   -4.3893    5.0794    3.3632 H   0  0  0  0  0  0
   -6.1001    3.6645    4.4282 H   0  0  0  0  0  0
   -7.5323    2.2140    3.0470 H   0  0  0  0  0  0
   -7.2563    2.1812    0.6003 H   0  0  0  0  0  0
  1  2  1  0  0  0
  1  6  2  0  0  0
  1 52  1  0  0  0
  2  3  2  0  0  0
  2 53  1  0  0  0
  3  4  1  0  0  0
  3  7  1  0  0  0
  4  5  2  0  0  0
  4 54  1  0  0  0
  5  6  1  0  0  0
  5 55  1  0  0  0
  6 56  1  0  0  0
  7  8  1  0  0  0
  7 57  1  0  0  0
  7 58  1  0  0  0
  8  9  1  0  0  0
  9 10  2  0  0  0
  9 11  1  0  0  0
 11 12  1  0  0  0
 11 13  1  0  0  0
 13 14  1  0  0  0
 13 21  1  0  0  0
 13 59  1  0  0  0
 14 15  1  0  0  0
 14 60  1  0  0  0
 14 61  1  0  0  0
 15 16  1  0  0  0
 15 20  2  0  0  0
 16 17  2  0  0  0
 16 62  1  0  0  0
 17 18  1  0  0  0
 17 63  1  0  0  0
 18 19  2  0  0  0
 18 64  1  0  0  0
 19 20  1  0  0  0
 19 65  1  0  0  0
 20 66  1  0  0  0
 21 22  2  0  0  0
 21 23  1  0  0  0
 23 24  1  0  0  0
 23 25  1  0  0  0
 25 26  1  0  0  0
 25 67  1  0  0  0
 25 68  1  0  0  0
 26 27  1  0  0  0
 26 69  1  0  0  0
 26 70  1  0  0  0
 27 28  1  0  0  0
 27 31  1  0  0  0
 27 71  1  0  0  0
 28 29  2  0  0  0
 28 30  1  0  0  0
 31 32  1  0  0  0
 31 72  1  0  0  0
 32 33  1  0  0  0
 32 37  1  0  0  0
 32 73  1  0  0  0
 33 34  1  0  0  0
 33 74  1  0  0  0
 33 75  1  0  0  0
 34 35  1  0  0  0
 34 36  1  0  0  0
 34 76  1  0  0  0
 35 77  1  0  0  0
 35 78  1  0  0  0
 35 79  1  0  0  0
 36 80  1  0  0  0
 36 81  1  0  0  0
 36 82  1  0  0  0
 37 38  2  0  0  0
 37 39  1  0  0  0
 39 40  1  0  0  0
 39 41  1  0  0  0
 41 42  1  0  0  0
 41 45  1  0  0  0
 41 83  1  0  0  0
 42 43  2  0  0  0
 42 44  1  0  0  0
 45 46  1  0  0  0
 45 84  1  0  0  0
 45 85  1  0  0  0
 46 47  1  0  0  0
 46 51  2  0  0  0
 47 48  2  0  0  0
 47 86  1  0  0  0
 48 49  1  0  0  0
 48 87  1  0  0  0
 49 50  2  0  0  0
 49 88  1  0  0  0
 50 51  1  0  0  0
 50 89  1  0  0  0
 51 90  1  0  0  0
M  CHG  2  30  -1  44  -1
M  END
>  <Activity>
6.66

>  <set>
1

>  <Min_dist>
999.9

>  <Avg_dist>
999.9

$$$$
NHOHBZMAGNH2
  Cerius2 12110214583D 1   1.00000                          
 
 44 44  0  0  0  0  0  0  0  0999 V2000
    2.0954    0.1405    0.7767 C   0  0  0  0  0  0
    0.7692   -0.0666    0.1896 N   0  0  0  0  0  0
    0.6664   -0.6396   -0.5863 H   0  0  0  0  0  0
   -0.3079    0.5389    0.7277 C   0  0  0  0  0  0
   -0.1794    1.2553    1.6978 O   0  0  0  0  0  0
   -1.6721    0.3259    0.1238 C   0  0  0  0  0  0
   -2.0181   -1.1402    0.1691 C   0  0  0  0  0  0
   -2.7044   -1.7022   -0.8456 N   0  0  0  0  0  0
   -2.9112   -1.1823   -1.6379 H   0  0  0  0  0  0
   -3.1235   -3.0517   -0.7549 O   0  0  0  0  0  0
   -1.6790   -1.8142    1.1186 O   0  0  0  0  0  0
   -2.7111    1.1199    0.9181 C   0  0  0  0  0  0
   -4.0545    1.0030    0.2453 C   0  0  0  0  0  0
   -4.9603    0.0496    0.6713 C   0  0  0  0  0  0
   -6.1925   -0.0576    0.0541 C   0  0  0  0  0  0
   -6.5192    0.7889   -0.9888 C   0  0  0  0  0  0
   -5.6138    1.7429   -1.4142 C   0  0  0  0  0  0
   -4.3832    1.8530   -0.7942 C   0  0  0  0  0  0
    2.3512   -0.9228    1.8467 C   0  0  0  0  0  0
    3.1440    0.0319   -0.3003 C   0  0  0  0  0  0
    2.8159   -0.1961   -1.4454 O   0  0  0  0  0  0
    4.4464    0.1881    0.0092 N   0  0  0  0  0  0
    4.7089    0.3704    0.9250 H   0  0  0  0  0  0
    5.4658    0.0825   -1.0377 C   0  0  0  0  0  0
    6.8300    0.2955   -0.4339 C   0  0  0  0  0  0
    6.9399    0.5141    0.7540 O   0  0  0  0  0  0
    7.9278    0.2432   -1.2139 N   0  0  0  0  0  0
    8.8059    0.3803   -0.8252 H   0  0  0  0  0  0
    7.8399    0.0684   -2.1639 H   0  0  0  0  0  0
    2.1414    1.1307    1.2300 H   0  0  0  0  0  0
   -1.6684    0.6665   -0.9116 H   0  0  0  0  0  0
   -3.5924   -3.2545   -1.5760 H   0  0  0  0  0  0
   -2.7761    0.7219    1.9308 H   0  0  0  0  0  0
   -2.4147    2.1680    0.9580 H   0  0  0  0  0  0
   -4.7051   -0.6117    1.4860 H   0  0  0  0  0  0
   -6.8999   -0.8029    0.3864 H   0  0  0  0  0  0
   -7.4816    0.7047   -1.4715 H   0  0  0  0  0  0
   -5.8688    2.4041   -2.2292 H   0  0  0  0  0  0
   -3.6758    2.5984   -1.1265 H   0  0  0  0  0  0
    2.3052   -1.9129    1.3933 H   0  0  0  0  0  0
    3.3379   -0.7687    2.2834 H   0  0  0  0  0  0
    1.5928   -0.8442    2.6256 H   0  0  0  0  0  0
    5.4197   -0.9077   -1.4911 H   0  0  0  0  0  0
    5.2835    0.8400   -1.8000 H   0  0  0  0  0  0
  1  2  1  0  0  0
  1 19  1  0  0  0
  1 20  1  0  0  0
  1 30  1  0  0  0
  2  3  1  0  0  0
  2  4  1  0  0  0
  4  5  2  0  0  0
  4  6  1  0  0  0
  6  7  1  0  0  0
  6 12  1  0  0  0
  6 31  1  0  0  0
  7  8  1  0  0  0
  7 11  2  0  0  0
  8  9  1  0  0  0
  8 10  1  0  0  0
 10 32  1  0  0  0
 12 13  1  0  0  0
 12 33  1  0  0  0
 12 34  1  0  0  0
 13 14  2  0  0  0
 13 18  1  0  0  0
 14 15  1  0  0  0
 14 35  1  0  0  0
 15 16  2  0  0  0
 15 36  1  0  0  0
 16 17  1  0  0  0
 16 37  1  0  0  0
 17 18  2  0  0  0
 17 38  1  0  0  0
 18 39  1  0  0  0
 19 40  1  0  0  0
 19 41  1  0  0  0
 19 42  1  0  0  0
 20 21  2  0  0  0
 20 22  1  0  0  0
 22 23  1  0  0  0
 22 24  1  0  0  0
 24 25  1  0  0  0
 24 43  1  0  0  0
 24 44  1  0  0  0
 25 26  2  0  0  0
 25 27  1  0  0  0
 27 28  1  0  0  0
 27 29  1  0  0  0
M  END
>  <Activity>
6.18

>  <set>
1

>  <Min_dist>
999.9

>  <Avg_dist>
999.9

$$$$
NHOHBZMAGOH
  Cerius2 12110214583D 1   1.00000                          
 
 42 42  0  0  0  0  0  0  0  0999 V2000
    2.0721    0.1356    0.7786 C   0  0  0  0  0  0
    0.7460   -0.0689    0.1904 N   0  0  0  0  0  0
    0.6432   -0.6391   -0.5875 H   0  0  0  0  0  0
   -0.3310    0.5355    0.7301 C   0  0  0  0  0  0
   -0.2023    1.2485    1.7027 O   0  0  0  0  0  0
   -1.6951    0.3252    0.1251 C   0  0  0  0  0  0
   -2.0419   -1.1408    0.1653 C   0  0  0  0  0  0
   -2.7282   -1.6991   -0.8515 N   0  0  0  0  0  0
   -2.9344   -1.1764   -1.6421 H   0  0  0  0  0  0
   -3.1481   -3.0487   -0.7655 O   0  0  0  0  0  0
   -1.7035   -1.8182    1.1127 O   0  0  0  0  0  0
   -2.7339    1.1171    0.9217 C   0  0  0  0  0  0
   -4.0771    1.0033    0.2480 C   0  0  0  0  0  0
   -4.9836    0.0489    0.6705 C   0  0  0  0  0  0
   -6.2157   -0.0555    0.0525 C   0  0  0  0  0  0
   -6.5415    0.7946   -0.9877 C   0  0  0  0  0  0
   -5.6354    1.7496   -1.4095 C   0  0  0  0  0  0
   -4.4050    1.8569   -0.7887 C   0  0  0  0  0  0
    2.3270   -0.9314    1.8451 C   0  0  0  0  0  0
    3.1210    0.0300   -0.2983 C   0  0  0  0  0  0
    2.7931   -0.1940   -1.4443 O   0  0  0  0  0  0
    4.4234    0.1844    0.0120 N   0  0  0  0  0  0
    4.6857    0.3635    0.9286 H   0  0  0  0  0  0
    5.4431    0.0818   -1.0349 C   0  0  0  0  0  0
    6.8072    0.2920   -0.4298 C   0  0  0  0  0  0
    6.9164    0.5057    0.7544 O   0  0  0  0  0  0
    7.9008    0.2419   -1.2065 O   0  5  0  0  0  0
    2.1186    1.1242    1.2353 H   0  0  0  0  0  0
   -1.6908    0.6693   -0.9092 H   0  0  0  0  0  0
   -3.6167   -3.2484   -1.5874 H   0  0  0  0  0  0
   -2.7995    0.7158    1.9330 H   0  0  0  0  0  0
   -2.4369    2.1650    0.9652 H   0  0  0  0  0  0
   -4.7290   -0.6153    1.4831 H   0  0  0  0  0  0
   -6.9236   -0.8016    0.3821 H   0  0  0  0  0  0
   -7.5038    0.7126   -1.4709 H   0  0  0  0  0  0
   -5.8898    2.4136   -2.2224 H   0  0  0  0  0  0
   -3.6971    2.6030   -1.1182 H   0  0  0  0  0  0
    2.2806   -1.9200    1.3884 H   0  0  0  0  0  0
    3.3136   -0.7794    2.2827 H   0  0  0  0  0  0
    1.5683   -0.8551    2.6240 H   0  0  0  0  0  0
    5.3967   -0.9068   -1.4916 H   0  0  0  0  0  0
    5.2615    0.8419   -1.7947 H   0  0  0  0  0  0
  1  2  1  0  0  0
  1 19  1  0  0  0
  1 20  1  0  0  0
  1 28  1  0  0  0
  2  3  1  0  0  0
  2  4  1  0  0  0
  4  5  2  0  0  0
  4  6  1  0  0  0
  6  7  1  0  0  0
  6 12  1  0  0  0
  6 29  1  0  0  0
  7  8  1  0  0  0
  7 11  2  0  0  0
  8  9  1  0  0  0
  8 10  1  0  0  0
 10 30  1  0  0  0
 12 13  1  0  0  0
 12 31  1  0  0  0
 12 32  1  0  0  0
 13 14  2  0  0  0
 13 18  1  0  0  0
 14 15  1  0  0  0
 14 33  1  0  0  0
 15 16  2  0  0  0
 15 34  1  0  0  0
 16 17  1  0  0  0
 16 35  1  0  0  0
 17 18  2  0  0  0
 17 36  1  0  0  0
 18 37  1  0  0  0
 19 38  1  0  0  0
 19 39  1  0  0  0
 19 40  1  0  0  0
 20 21  2  0  0  0
 20 22  1  0  0  0
 22 23  1  0  0  0
 22 24  1  0  0  0
 24 25  1  0  0  0
 24 41  1  0  0  0
 24 42  1  0  0  0
 25 26  2  0  0  0
 25 27  1  0  0  0
M  CHG  1  27  -1
M  END
>  <Activity>
6.18

>  <set>
1

>  <Min_dist>
999.9

>  <Avg_dist>
999.9

$$$$
OHBZMAGNH2
  Cerius2 12110214583D 1   1.00000                          
 
 41 41  0  0  0  0  0  0  0  0999 V2000
    1.9459    0.4328   -0.5963 C   0  0  0  0  0  0
    0.6332    0.2032    0.0121 N   0  0  0  0  0  0
    0.5520    0.1256    0.9756 H   0  0  0  0  0  0
   -0.4618    0.0997   -0.7669 C   0  0  0  0  0  0
   -0.3603    0.1966   -1.9716 O   0  0  0  0  0  0
   -1.8122   -0.1365   -0.1411 C   0  0  0  0  0  0
   -2.1374    0.9987    0.7951 C   0  0  0  0  0  0
   -1.3531    1.9065    0.9394 O   0  0  0  0  0  0
   -3.2984    1.0015    1.4688 O   0  5  0  0  0  0
   -2.8761   -0.2138   -1.2379 C   0  0  0  0  0  0
   -4.2265   -0.4500   -0.6121 C   0  0  0  0  0  0
   -5.0152    0.6240   -0.2441 C   0  0  0  0  0  0
   -6.2539    0.4074    0.3300 C   0  0  0  0  0  0
   -6.7041   -0.8833    0.5358 C   0  0  0  0  0  0
   -5.9158   -1.9573    0.1670 C   0  0  0  0  0  0
   -4.6790   -1.7406   -0.4111 C   0  0  0  0  0  0
    2.1989    1.9374   -0.7106 C   0  0  0  0  0  0
    3.0143   -0.1923    0.2633 C   0  0  0  0  0  0
    2.7091   -0.7725    1.2837 O   0  0  0  0  0  0
    4.3088   -0.1067   -0.1018 N   0  0  0  0  0  0
    4.5528    0.3574   -0.9179 H   0  0  0  0  0  0
    5.3473   -0.7144    0.7339 C   0  0  0  0  0  0
    6.6977   -0.4782    0.1080 C   0  0  0  0  0  0
    6.7841    0.1372   -0.9335 O   0  0  0  0  0  0
    7.8094   -0.9508    0.7057 N   0  0  0  0  0  0
    8.6786   -0.7988    0.3029 H   0  0  0  0  0  0
    7.7403   -1.4430    1.5387 H   0  0  0  0  0  0
    1.9697   -0.0161   -1.5893 H   0  0  0  0  0  0
   -1.7957   -1.0734    0.4158 H   0  0  0  0  0  0
   -2.8926    0.7231   -1.7948 H   0  0  0  0  0  0
   -2.6409   -1.0349   -1.9151 H   0  0  0  0  0  0
   -4.6634    1.6324   -0.4049 H   0  0  0  0  0  0
   -6.8697    1.2465    0.6181 H   0  0  0  0  0  0
   -7.6715   -1.0526    0.9849 H   0  0  0  0  0  0
   -6.2674   -2.9657    0.3281 H   0  0  0  0  0  0
   -4.0631   -2.5798   -0.6992 H   0  0  0  0  0  0
    2.1751    2.3863    0.2823 H   0  0  0  0  0  0
    3.1757    2.1082   -1.1633 H   0  0  0  0  0  0
    1.4262    2.3895   -1.3324 H   0  0  0  0  0  0
    5.3235   -0.2655    1.7268 H   0  0  0  0  0  0
    5.1671   -1.7863    0.8153 H   0  0  0  0  0  0
  1  2  1  0  0  0
  1 17  1  0  0  0
  1 18  1  0  0  0
  1 28  1  0  0  0
  2  3  1  0  0  0
  2  4  1  0  0  0
  4  5  2  0  0  0
  4  6  1  0  0  0
  6  7  1  0  0  0
  6 10  1  0  0  0
  6 29  1  0  0  0
  7  8  2  0  0  0
  7  9  1  0  0  0
 10 11  1  0  0  0
 10 30  1  0  0  0
 10 31  1  0  0  0
 11 12  1  0  0  0
 11 16  2  0  0  0
 12 13  2  0  0  0
 12 32  1  0  0  0
 13 14  1  0  0  0
 13 33  1  0  0  0
 14 15  2  0  0  0
 14 34  1  0  0  0
 15 16  1  0  0  0
 15 35  1  0  0  0
 16 36  1  0  0  0
 17 37  1  0  0  0
 17 38  1  0  0  0
 17 39  1  0  0  0
 18 19  2  0  0  0
 18 20  1  0  0  0
 20 21  1  0  0  0
 20 22  1  0  0  0
 22 23  1  0  0  0
 22 40  1  0  0  0
 22 41  1  0  0  0
 23 24  2  0  0  0
 23 25  1  0  0  0
 25 26  1  0  0  0
 25 27  1  0  0  0
M  CHG  1   9  -1
M  END
>  <Activity>
3.38

>  <set>
1

>  <Min_dist>
999.9

>  <Avg_dist>
999.9

$$$$
ZALA
  Cerius2 12110214583D 1   1.00000                          
 
 80 81  0  0  0  0  0  0  0  0999 V2000
    9.3487    3.0982    1.2308 C   0  0  0  0  0  0
    8.6339    1.9388    1.4668 C   0  0  0  0  0  0
    8.7534    0.8654    0.6040 C   0  0  0  0  0  0
    9.5874    0.9515   -0.4951 C   0  0  0  0  0  0
   10.3015    2.1113   -0.7316 C   0  0  0  0  0  0
   10.1830    3.1842    0.1319 C   0  0  0  0  0  0
    7.9750   -0.3990    0.8619 C   0  0  0  0  0  0
    6.6872   -0.3188    0.1960 O   0  0  0  0  0  0
    5.8169   -1.3420    0.2879 C   0  0  0  0  0  0
    6.1092   -2.3325    0.9282 O   0  0  0  0  0  0
    4.6215   -1.2675   -0.3302 N   0  0  0  0  0  0
    4.3882   -0.4768   -0.8413 H   0  0  0  0  0  0
    3.6746   -2.3808   -0.2301 C   0  0  0  0  0  0
    2.2661   -1.8514   -0.3137 C   0  0  0  0  0  0
    2.0724   -0.6613   -0.4441 O   0  0  0  0  0  0
    1.2218   -2.7004   -0.2437 N   0  0  0  0  0  0
    1.3767   -3.6523   -0.1394 H   0  0  0  0  0  0
   -0.1474   -2.1857   -0.3250 C   0  0  0  0  0  0
   -1.1364   -3.3484   -0.2205 C   0  0  0  0  0  0
   -2.5664   -2.8109   -0.3054 C   0  0  0  0  0  0
   -3.5405   -3.9561   -0.2025 C   0  0  0  0  0  0
   -3.9639   -4.4810   -1.2050 O   0  0  0  0  0  0
   -3.9377   -4.3930    1.0029 O   0  5  0  0  0  0
   -2.8012   -1.8678    0.7961 N   0  0  0  0  0  0
   -3.8658   -0.9577    0.3530 C   0  0  0  0  0  0
   -4.5811   -0.3766    1.5743 C   0  0  0  0  0  0
   -5.3154   -1.4956    2.3156 C   0  0  0  0  0  0
   -5.9086   -0.9438    3.6135 C   0  0  0  0  0  0
   -6.4395   -2.0405    1.4322 C   0  0  0  0  0  0
   -3.2647    0.1619   -0.4570 C   0  0  0  0  0  0
   -2.0673    0.1982   -0.6465 O   0  0  0  0  0  0
   -4.0577    1.1229   -0.9709 N   0  0  0  0  0  0
   -5.0153    1.0939   -0.8193 H   0  0  0  0  0  0
   -3.4733    2.2114   -1.7583 C   0  0  0  0  0  0
   -3.4370    1.8162   -3.2121 C   0  0  0  0  0  0
   -2.5708    2.2496   -3.9345 O   0  0  0  0  0  0
   -4.3669    0.9828   -3.7046 O   0  5  0  0  0  0
   -4.3230    3.4730   -1.5938 C   0  0  0  0  0  0
   -4.3593    3.8682   -0.1400 C   0  0  0  0  0  0
   -3.4017    4.7264    0.3671 C   0  0  0  0  0  0
   -3.4350    5.0888    1.7007 C   0  0  0  0  0  0
   -4.4262    4.5934    2.5270 C   0  0  0  0  0  0
   -5.3844    3.7358    2.0197 C   0  0  0  0  0  0
   -5.3536    3.3768    0.6852 C   0  0  0  0  0  0
    3.9192   -3.3631   -1.3774 C   0  0  0  0  0  0
    9.2518    3.9384    1.9023 H   0  0  0  0  0  0
    7.9824    1.8714    2.3255 H   0  0  0  0  0  0
    9.6813    0.1127   -1.1688 H   0  0  0  0  0  0
   10.9535    2.1784   -1.5899 H   0  0  0  0  0  0
   10.7406    4.0904   -0.0531 H   0  0  0  0  0  0
    8.5311   -1.2532    0.4758 H   0  0  0  0  0  0
    7.8225   -0.5194    1.9344 H   0  0  0  0  0  0
    3.8145   -2.8924    0.7222 H   0  0  0  0  0  0
   -0.3217   -1.4859    0.4923 H   0  0  0  0  0  0
   -0.2873   -1.6742   -1.2773 H   0  0  0  0  0  0
   -0.9622   -4.0482   -1.0379 H   0  0  0  0  0  0
   -0.9965   -3.8599    0.7318 H   0  0  0  0  0  0
   -2.7063   -2.2994   -1.2577 H   0  0  0  0  0  0
   -3.1791   -2.4049    1.5621 H   0  0  0  0  0  0
   -4.5809   -1.5063   -0.2600 H   0  0  0  0  0  0
   -3.8495    0.0812    2.2401 H   0  0  0  0  0  0
   -5.2991    0.3768    1.2504 H   0  0  0  0  0  0
   -4.6150   -2.2977    2.5484 H   0  0  0  0  0  0
   -6.4317   -1.7410    4.1416 H   0  0  0  0  0  0
   -5.1077   -0.5557    4.2428 H   0  0  0  0  0  0
   -6.6089   -0.1417    3.3807 H   0  0  0  0  0  0
   -7.0870   -1.2206    1.1212 H   0  0  0  0  0  0
   -6.0104   -2.5187    0.5517 H   0  0  0  0  0  0
   -7.0221   -2.7703    1.9944 H   0  0  0  0  0  0
   -2.4594    2.4081   -1.4099 H   0  0  0  0  0  0
   -3.8882    4.2828   -2.1797 H   0  0  0  0  0  0
   -5.3369    3.2762   -1.9423 H   0  0  0  0  0  0
   -2.6273    5.1135   -0.2785 H   0  0  0  0  0  0
   -2.6863    5.7588    2.0970 H   0  0  0  0  0  0
   -4.4518    4.8760    3.5691 H   0  0  0  0  0  0
   -6.1586    3.3485    2.6654 H   0  0  0  0  0  0
   -6.1022    2.7069    0.2888 H   0  0  0  0  0  0
    3.7792   -2.8516   -2.3297 H   0  0  0  0  0  0
    4.9379   -3.7460   -1.3169 H   0  0  0  0  0  0
    3.2146   -4.1914   -1.3029 H   0  0  0  0  0  0
  1  2  1  0  0  0
  1  6  2  0  0  0
  1 46  1  0  0  0
  2  3  2  0  0  0
  2 47  1  0  0  0
  3  4  1  0  0  0
  3  7  1  0  0  0
  4  5  2  0  0  0
  4 48  1  0  0  0
  5  6  1  0  0  0
  5 49  1  0  0  0
  6 50  1  0  0  0
  7  8  1  0  0  0
  7 51  1  0  0  0
  7 52  1  0  0  0
  8  9  1  0  0  0
  9 10  2  0  0  0
  9 11  1  0  0  0
 11 12  1  0  0  0
 11 13  1  0  0  0
 13 14  1  0  0  0
 13 45  1  0  0  0
 13 53  1  0  0  0
 14 15  2  0  0  0
 14 16  1  0  0  0
 16 17  1  0  0  0
 16 18  1  0  0  0
 18 19  1  0  0  0
 18 54  1  0  0  0
 18 55  1  0  0  0
 19 20  1  0  0  0
 19 56  1  0  0  0
 19 57  1  0  0  0
 20 21  1  0  0  0
 20 24  1  0  0  0
 20 58  1  0  0  0
 21 22  2  0  0  0
 21 23  1  0  0  0
 24 25  1  0  0  0
 24 59  1  0  0  0
 25 26  1  0  0  0
 25 30  1  0  0  0
 25 60  1  0  0  0
 26 27  1  0  0  0
 26 61  1  0  0  0
 26 62  1  0  0  0
 27 28  1  0  0  0
 27 29  1  0  0  0
 27 63  1  0  0  0
 28 64  1  0  0  0
 28 65  1  0  0  0
 28 66  1  0  0  0
 29 67  1  0  0  0
 29 68  1  0  0  0
 29 69  1  0  0  0
 30 31  2  0  0  0
 30 32  1  0  0  0
 32 33  1  0  0  0
 32 34  1  0  0  0
 34 35  1  0  0  0
 34 38  1  0  0  0
 34 70  1  0  0  0
 35 36  2  0  0  0
 35 37  1  0  0  0
 38 39  1  0  0  0
 38 71  1  0  0  0
 38 72  1  0  0  0
 39 40  1  0  0  0
 39 44  2  0  0  0
 40 41  2  0  0  0
 40 73  1  0  0  0
 41 42  1  0  0  0
 41 74  1  0  0  0
 42 43  2  0  0  0
 42 75  1  0  0  0
 43 44  1  0  0  0
 43 76  1  0  0  0
 44 77  1  0  0  0
 45 78  1  0  0  0
 45 79  1  0  0  0
 45 80  1  0  0  0
M  CHG  2  23  -1  37  -1
M  END
>  <Activity>
6.07

>  <set>
1

>  <Min_dist>
999.9

>  <Avg_dist>
999.9

$$$$
ZAPOLA
  Cerius2 12110214583D 1   1.00000                          
 
 57 57  0  0  0  0  0  0  0  0999 V2000
   -3.3478    0.5223    0.8942 C   0  0  0  0  0  0
   -3.0762   -0.2147    1.8213 O   0  0  0  0  0  0
   -2.4844    1.4900    0.5274 N   0  0  0  0  0  0
   -2.7011    2.0784   -0.2127 H   0  0  0  0  0  0
   -1.2185    1.6534    1.2465 C   0  0  0  0  0  0
    0.0663    0.6303    0.4552 P   0  0  0  0  0  0
   -0.3427   -0.7915    0.4930 O   0  0  0  0  0  0
    0.2546    1.0941   -1.0750 O   0  5  0  0  0  0
    1.4574    0.8098    1.2455 O   0  0  0  0  0  0
    2.3944   -0.0835    0.6405 C   0  0  0  0  0  0
    3.6161    0.6863    0.2094 C   0  0  0  0  0  0
    3.8049    1.8086    0.6285 O   0  0  0  0  0  0
    4.4990    0.1275   -0.6420 N   0  0  0  0  0  0
    4.3113   -0.7388   -1.0359 H   0  0  0  0  0  0
    5.7423    0.8285   -0.9724 C   0  0  0  0  0  0
    6.8211   -0.1786   -1.2771 C   0  0  0  0  0  0
    6.5765   -1.3607   -1.2239 O   0  0  0  0  0  0
    8.0537    0.2375   -1.6078 O   0  5  0  0  0  0
    5.5159    1.7193   -2.1955 C   0  0  0  0  0  0
    2.7993   -1.1588    1.6507 C   0  0  0  0  0  0
    3.6836   -2.1996    0.9610 C   0  0  0  0  0  0
    4.1781   -3.2139    1.9941 C   0  0  0  0  0  0
    2.8738   -2.9230   -0.1169 C   0  0  0  0  0  0
   -0.7957    3.1233    1.2074 C   0  0  0  0  0  0
   -4.5086    0.3687    0.2298 O   0  0  0  0  0  0
   -5.4361   -0.6777    0.6211 C   0  0  0  0  0  0
   -6.6476   -0.6358   -0.2742 C   0  0  0  0  0  0
   -6.6691   -1.3736   -1.4430 C   0  0  0  0  0  0
   -7.7804   -1.3351   -2.2643 C   0  0  0  0  0  0
   -8.8703   -0.5592   -1.9165 C   0  0  0  0  0  0
   -8.8491    0.1778   -0.7473 C   0  0  0  0  0  0
   -7.7396    0.1360    0.0762 C   0  0  0  0  0  0
   -1.3460    1.3394    2.2825 H   0  0  0  0  0  0
    1.9369   -0.5557   -0.2290 H   0  0  0  0  0  0
    6.0483    1.4439   -0.1263 H   0  0  0  0  0  0
    5.2099    1.1039   -3.0415 H   0  0  0  0  0  0
    4.7356    2.4478   -1.9751 H   0  0  0  0  0  0
    6.4409    2.2409   -2.4413 H   0  0  0  0  0  0
    3.3517   -0.6982    2.4698 H   0  0  0  0  0  0
    1.9055   -1.6440    2.0428 H   0  0  0  0  0  0
    4.5382   -1.7030    0.5014 H   0  0  0  0  0  0
    4.8081   -3.9553    1.5027 H   0  0  0  0  0  0
    4.7550   -2.6985    2.7620 H   0  0  0  0  0  0
    3.3235   -3.7105    2.4537 H   0  0  0  0  0  0
    1.9655   -3.3329    0.3248 H   0  0  0  0  0  0
    2.6085   -2.2191   -0.9058 H   0  0  0  0  0  0
    3.4704   -3.7323   -0.5377 H   0  0  0  0  0  0
   -0.6682    3.4373    0.1714 H   0  0  0  0  0  0
   -1.5639    3.7350    1.6805 H   0  0  0  0  0  0
    0.1461    3.2448    1.7424 H   0  0  0  0  0  0
   -4.9490   -1.6484    0.5282 H   0  0  0  0  0  0
   -5.7432   -0.5229    1.6555 H   0  0  0  0  0  0
   -5.8176   -1.9798   -1.7147 H   0  0  0  0  0  0
   -7.7969   -1.9110   -3.1778 H   0  0  0  0  0  0
   -9.7382   -0.5286   -2.5586 H   0  0  0  0  0  0
   -9.7006    0.7843   -0.4758 H   0  0  0  0  0  0
   -7.7231    0.7118    0.9897 H   0  0  0  0  0  0
  1  2  2  0  0  0
  1  3  1  0  0  0
  1 25  1  0  0  0
  3  4  1  0  0  0
  3  5  1  0  0  0
  5  6  1  0  0  0
  5 24  1  0  0  0
  5 33  1  0  0  0
  6  7  2  0  0  0
  6  8  1  0  0  0
  6  9  1  0  0  0
  9 10  1  0  0  0
 10 11  1  0  0  0
 10 20  1  0  0  0
 10 34  1  0  0  0
 11 12  2  0  0  0
 11 13  1  0  0  0
 13 14  1  0  0  0
 13 15  1  0  0  0
 15 16  1  0  0  0
 15 19  1  0  0  0
 15 35  1  0  0  0
 16 17  2  0  0  0
 16 18  1  0  0  0
 19 36  1  0  0  0
 19 37  1  0  0  0
 19 38  1  0  0  0
 20 21  1  0  0  0
 20 39  1  0  0  0
 20 40  1  0  0  0
 21 22  1  0  0  0
 21 23  1  0  0  0
 21 41  1  0  0  0
 22 42  1  0  0  0
 22 43  1  0  0  0
 22 44  1  0  0  0
 23 45  1  0  0  0
 23 46  1  0  0  0
 23 47  1  0  0  0
 24 48  1  0  0  0
 24 49  1  0  0  0
 24 50  1  0  0  0
 25 26  1  0  0  0
 26 27  1  0  0  0
 26 51  1  0  0  0
 26 52  1  0  0  0
 27 28  1  0  0  0
 27 32  2  0  0  0
 28 29  2  0  0  0
 28 53  1  0  0  0
 29 30  1  0  0  0
 29 54  1  0  0  0
 30 31  2  0  0  0
 30 55  1  0  0  0
 31 32  1  0  0  0
 31 56  1  0  0  0
 32 57  1  0  0  0
M  CHG  2   8  -1  18  -1
M  END
>  <Activity>
5.74

>  <set>
1

>  <Min_dist>
999.9

>  <Avg_dist>
999.9

$$$$
ZFGNH2
  Cerius2 12110214583D 1   1.00000                          
 
 47 48  0  0  0  0  0  0  0  0999 V2000
    5.9886   -2.6841   -0.4928 C   0  0  0  0  0  0
    4.8559   -2.0475   -0.9646 C   0  0  0  0  0  0
    4.4480   -0.8537   -0.3995 C   0  0  0  0  0  0
    5.1726   -0.2966    0.6375 C   0  0  0  0  0  0
    6.3049   -0.9336    1.1099 C   0  0  0  0  0  0
    6.7135   -2.1268    0.5439 C   0  0  0  0  0  0
    3.2137   -0.1592   -0.9145 C   0  0  0  0  0  0
    2.0530   -0.6247   -0.1766 O   0  0  0  0  0  0
    0.8315   -0.1385   -0.4666 C   0  0  0  0  0  0
   -0.2459   -0.5706    0.2183 N   0  0  0  0  0  0
   -0.1412   -1.2319    0.9201 H   0  0  0  0  0  0
   -1.5751   -0.0415   -0.0973 C   0  0  0  0  0  0
   -2.6159   -1.0916    0.1942 C   0  0  0  0  0  0
   -3.9196   -0.8265   -0.0220 N   0  0  0  0  0  0
   -4.1878    0.0402   -0.3651 H   0  0  0  0  0  0
   -4.9314   -1.8474    0.2613 C   0  0  0  0  0  0
   -6.2987   -1.3031   -0.0633 C   0  0  0  0  0  0
   -6.4164   -0.1737   -0.4893 O   0  0  0  0  0  0
   -7.3908   -2.0714    0.1198 N   0  0  0  0  0  0
   -8.2708   -1.7211   -0.0891 H   0  0  0  0  0  0
   -7.2966   -2.9747    0.4606 H   0  0  0  0  0  0
   -2.2805   -2.1753    0.6232 O   0  0  0  0  0  0
   -1.8471    1.1974    0.7583 C   0  0  0  0  0  0
   -0.8062    2.2476    0.4669 C   0  0  0  0  0  0
   -1.0225    3.1759   -0.5343 C   0  0  0  0  0  0
   -0.0677    4.1392   -0.8016 C   0  0  0  0  0  0
    1.1031    4.1743   -0.0675 C   0  0  0  0  0  0
    1.3189    3.2465    0.9342 C   0  0  0  0  0  0
    0.3622    2.2860    1.2045 C   0  0  0  0  0  0
    0.7003    0.6899   -1.3458 O   0  0  0  0  0  0
    6.3048   -3.6191   -0.9312 H   0  0  0  0  0  0
    4.2897   -2.4828   -1.7748 H   0  0  0  0  0  0
    4.8544    0.6365    1.0785 H   0  0  0  0  0  0
    6.8714   -0.4980    1.9196 H   0  0  0  0  0  0
    7.5979   -2.6246    0.9132 H   0  0  0  0  0  0
    3.3206    0.9174   -0.7821 H   0  0  0  0  0  0
    3.0853   -0.3841   -1.9733 H   0  0  0  0  0  0
   -1.6174    0.2291   -1.1523 H   0  0  0  0  0  0
   -4.7376   -2.7300   -0.3482 H   0  0  0  0  0  0
   -4.8891   -2.1179    1.3163 H   0  0  0  0  0  0
   -2.8360    1.5911    0.5235 H   0  0  0  0  0  0
   -1.8048    0.9269    1.8133 H   0  0  0  0  0  0
   -1.9372    3.1485   -1.1078 H   0  0  0  0  0  0
   -0.2363    4.8640   -1.5843 H   0  0  0  0  0  0
    1.8494    4.9264   -0.2768 H   0  0  0  0  0  0
    2.2338    3.2738    1.5076 H   0  0  0  0  0  0
    0.5308    1.5611    1.9871 H   0  0  0  0  0  0
  1  2  1  0  0  0
  1  6  2  0  0  0
  1 31  1  0  0  0
  2  3  2  0  0  0
  2 32  1  0  0  0
  3  4  1  0  0  0
  3  7  1  0  0  0
  4  5  2  0  0  0
  4 33  1  0  0  0
  5  6  1  0  0  0
  5 34  1  0  0  0
  6 35  1  0  0  0
  7  8  1  0  0  0
  7 36  1  0  0  0
  7 37  1  0  0  0
  8  9  1  0  0  0
  9 10  1  0  0  0
  9 30  2  0  0  0
 10 11  1  0  0  0
 10 12  1  0  0  0
 12 13  1  0  0  0
 12 23  1  0  0  0
 12 38  1  0  0  0
 13 14  1  0  0  0
 13 22  2  0  0  0
 14 15  1  0  0  0
 14 16  1  0  0  0
 16 17  1  0  0  0
 16 39  1  0  0  0
 16 40  1  0  0  0
 17 18  2  0  0  0
 17 19  1  0  0  0
 19 20  1  0  0  0
 19 21  1  0  0  0
 23 24  1  0  0  0
 23 41  1  0  0  0
 23 42  1  0  0  0
 24 25  1  0  0  0
 24 29  2  0  0  0
 25 26  2  0  0  0
 25 43  1  0  0  0
 26 27  1  0  0  0
 26 44  1  0  0  0
 27 28  2  0  0  0
 27 45  1  0  0  0
 28 29  1  0  0  0
 28 46  1  0  0  0
 29 47  1  0  0  0
M  END
>  <Activity>
3.46

>  <set>
1

>  <Min_dist>
999.9

>  <Avg_dist>
999.9

$$$$
ZFPOLA
  Cerius2 12110214583D 1   1.00000                          
 
 67 68  0  0  0  0  0  0  0  0999 V2000
    2.9567    1.0709   -0.4406 C   0  0  0  0  0  0
    2.8719    1.4141   -1.6031 O   0  0  0  0  0  0
    2.0094    1.4433    0.4428 N   0  0  0  0  0  0
    2.0771    1.1694    1.3709 H   0  0  0  0  0  0
    0.8774    2.2618    0.0014 C   0  0  0  0  0  0
   -0.4842    1.1758   -0.5374 P   0  0  0  0  0  0
   -1.5156    1.9828   -1.2267 O   0  0  0  0  0  0
    0.0872    0.0595   -1.5470 O   0  5  0  0  0  0
   -1.1359    0.4551    0.7464 O   0  0  0  0  0  0
   -2.2451   -0.3105    0.2715 C   0  0  0  0  0  0
   -1.9732   -1.7767    0.4888 C   0  0  0  0  0  0
   -1.1173   -2.1249    1.2744 O   0  0  0  0  0  0
   -2.6812   -2.7012   -0.1899 N   0  0  0  0  0  0
   -3.3311   -2.4230   -0.8541 H   0  0  0  0  0  0
   -2.4692   -4.1263    0.0756 C   0  0  0  0  0  0
   -3.7494   -4.8801   -0.1770 C   0  0  0  0  0  0
   -4.0056   -5.9408    0.4830 O   0  0  0  0  0  0
   -4.5766   -4.4574   -1.0507 O   0  5  0  0  0  0
   -1.3726   -4.6596   -0.8485 C   0  0  0  0  0  0
   -3.5077    0.0928    1.0357 C   0  0  0  0  0  0
   -4.7188   -0.6221    0.4331 C   0  0  0  0  0  0
   -5.9555   -0.3394    1.2884 C   0  0  0  0  0  0
   -4.9556   -0.1127   -0.9901 C   0  0  0  0  0  0
    0.4010    3.1405    1.1598 C   0  0  0  0  0  0
   -0.6694    4.0812    0.6694 C   0  0  0  0  0  0
   -2.0030    3.7569    0.8342 C   0  0  0  0  0  0
   -2.9848    4.6198    0.3844 C   0  0  0  0  0  0
   -2.6330    5.8073   -0.2297 C   0  0  0  0  0  0
   -1.2994    6.1320   -0.3937 C   0  0  0  0  0  0
   -0.3176    5.2711    0.0600 C   0  0  0  0  0  0
    3.9941    0.3141   -0.0361 O   0  0  0  0  0  0
    5.0116   -0.0921   -0.9890 C   0  0  0  0  0  0
    6.0529   -0.9254   -0.2874 C   0  0  0  0  0  0
    5.9044   -2.2977   -0.2122 C   0  0  0  0  0  0
    6.8596   -3.0621    0.4315 C   0  0  0  0  0  0
    7.9635   -2.4542    0.9994 C   0  0  0  0  0  0
    8.1126   -1.0820    0.9234 C   0  0  0  0  0  0
    7.1596   -0.3181    0.2760 C   0  0  0  0  0  0
    1.1886    2.8941   -0.8302 H   0  0  0  0  0  0
   -2.3882   -0.1213   -0.7924 H   0  0  0  0  0  0
   -2.1668   -4.2614    1.1140 H   0  0  0  0  0  0
   -1.6749   -4.5245   -1.8869 H   0  0  0  0  0  0
   -0.4466   -4.1143   -0.6658 H   0  0  0  0  0  0
   -1.2149   -5.7199   -0.6510 H   0  0  0  0  0  0
   -3.4038   -0.1889    2.0835 H   0  0  0  0  0  0
   -3.6484    1.1712    0.9616 H   0  0  0  0  0  0
   -4.5317   -1.6956    0.4083 H   0  0  0  0  0  0
   -6.8183   -0.8487    0.8591 H   0  0  0  0  0  0
   -5.7867   -0.7023    2.3022 H   0  0  0  0  0  0
   -6.1425    0.7341    1.3131 H   0  0  0  0  0  0
   -5.0687    0.9713   -0.9739 H   0  0  0  0  0  0
   -4.1056   -0.3800   -1.6178 H   0  0  0  0  0  0
   -5.8613   -0.5666   -1.3924 H   0  0  0  0  0  0
   -0.0041    2.5101    1.9513 H   0  0  0  0  0  0
    1.2409    3.7165    1.5481 H   0  0  0  0  0  0
   -2.2779    2.8292    1.3139 H   0  0  0  0  0  0
   -4.0268    4.3661    0.5124 H   0  0  0  0  0  0
   -3.4001    6.4811   -0.5818 H   0  0  0  0  0  0
   -1.0245    7.0595   -0.8737 H   0  0  0  0  0  0
    0.7244    5.5248   -0.0680 H   0  0  0  0  0  0
    4.5514   -0.6793   -1.7837 H   0  0  0  0  0  0
    5.4824    0.7928   -1.4172 H   0  0  0  0  0  0
    5.0418   -2.7726   -0.6559 H   0  0  0  0  0  0
    6.7431   -4.1341    0.4909 H   0  0  0  0  0  0
    8.7095   -3.0513    1.5029 H   0  0  0  0  0  0
    8.9749   -0.6070    1.3674 H   0  0  0  0  0  0
    7.2760    0.7540    0.2166 H   0  0  0  0  0  0
  1  2  2  0  0  0
  1  3  1  0  0  0
  1 31  1  0  0  0
  3  4  1  0  0  0
  3  5  1  0  0  0
  5  6  1  0  0  0
  5 24  1  0  0  0
  5 39  1  0  0  0
  6  7  2  0  0  0
  6  8  1  0  0  0
  6  9  1  0  0  0
  9 10  1  0  0  0
 10 11  1  0  0  0
 10 20  1  0  0  0
 10 40  1  0  0  0
 11 12  2  0  0  0
 11 13  1  0  0  0
 13 14  1  0  0  0
 13 15  1  0  0  0
 15 16  1  0  0  0
 15 19  1  0  0  0
 15 41  1  0  0  0
 16 17  2  0  0  0
 16 18  1  0  0  0
 19 42  1  0  0  0
 19 43  1  0  0  0
 19 44  1  0  0  0
 20 21  1  0  0  0
 20 45  1  0  0  0
 20 46  1  0  0  0
 21 22  1  0  0  0
 21 23  1  0  0  0
 21 47  1  0  0  0
 22 48  1  0  0  0
 22 49  1  0  0  0
 22 50  1  0  0  0
 23 51  1  0  0  0
 23 52  1  0  0  0
 23 53  1  0  0  0
 24 25  1  0  0  0
 24 54  1  0  0  0
 24 55  1  0  0  0
 25 26  1  0  0  0
 25 30  2  0  0  0
 26 27  2  0  0  0
 26 56  1  0  0  0
 27 28  1  0  0  0
 27 57  1  0  0  0
 28 29  2  0  0  0
 28 58  1  0  0  0
 29 30  1  0  0  0
 29 59  1  0  0  0
 30 60  1  0  0  0
 31 32  1  0  0  0
 32 33  1  0  0  0
 32 61  1  0  0  0
 32 62  1  0  0  0
 33 34  1  0  0  0
 33 38  2  0  0  0
 34 35  2  0  0  0
 34 63  1  0  0  0
 35 36  1  0  0  0
 35 64  1  0  0  0
 36 37  2  0  0  0
 36 65  1  0  0  0
 37 38  1  0  0  0
 37 66  1  0  0  0
 38 67  1  0  0  0
M  CHG  2   8  -1  18  -1
M  END
>  <Activity>
7.35

>  <set>
1

>  <Min_dist>
999.9

>  <Avg_dist>
999.9

$$$$
ZGGLNHOH
  Cerius2 12110214583D 1   1.00000                          
 
 54 54  0  0  0  0  0  0  0  0999 V2000
   -1.5338   -0.1862   -0.9885 C   0  0  0  0  0  0
   -2.8210   -0.0357   -0.3053 N   0  0  0  0  0  0
   -2.8461    0.1802    0.6400 H   0  0  0  0  0  0
   -3.9704   -0.1970   -0.9904 C   0  0  0  0  0  0
   -3.9391   -0.4674   -2.1746 O   0  0  0  0  0  0
   -5.1534   -0.0586   -0.3626 O   0  0  0  0  0  0
   -6.3917   -0.2324   -1.1006 C   0  0  0  0  0  0
   -7.5620   -0.0257   -0.1740 C   0  0  0  0  0  0
   -8.1037    1.2362   -0.0155 C   0  0  0  0  0  0
   -9.1772    1.4258    0.8345 C   0  0  0  0  0  0
   -9.7093    0.3534    1.5258 C   0  0  0  0  0  0
   -9.1682   -0.9086    1.3666 C   0  0  0  0  0  0
   -8.0974   -1.0990    0.5133 C   0  0  0  0  0  0
   -0.4141    0.0428   -0.0063 C   0  0  0  0  0  0
   -0.6664    0.3060    1.1504 O   0  0  0  0  0  0
    0.8678   -0.0447   -0.4133 N   0  0  0  0  0  0
    1.0696   -0.2552   -1.3385 H   0  0  0  0  0  0
    1.9564    0.1780    0.5415 C   0  0  0  0  0  0
    3.2805    0.0231   -0.1612 C   0  0  0  0  0  0
    3.3118   -0.2468   -1.3432 O   0  0  0  0  0  0
    4.4299    0.1844    0.5238 N   0  0  0  0  0  0
    4.4048    0.4002    1.4692 H   0  0  0  0  0  0
    5.7171    0.0338   -0.1593 C   0  0  0  0  0  0
    6.7587    0.9313    0.5118 C   0  0  0  0  0  0
    6.3046    2.3900    0.4284 C   0  0  0  0  0  0
    7.3462    3.2876    1.0995 C   0  0  0  0  0  0
    6.1533    2.7939   -1.0395 C   0  0  0  0  0  0
    6.1643   -1.4029   -0.0772 C   0  0  0  0  0  0
    6.8457   -1.8774   -0.9612 O   0  0  0  0  0  0
    5.8070   -2.1606    0.9786 N   0  0  0  0  0  0
    5.2619   -1.7812    1.6856 H   0  0  0  0  0  0
    6.2272   -3.5106    1.0558 O   0  0  0  0  0  0
   -1.4563   -1.1927   -1.3996 H   0  0  0  0  0  0
   -1.4636    0.5425   -1.7960 H   0  0  0  0  0  0
   -6.4369    0.4952   -1.9109 H   0  0  0  0  0  0
   -6.4296   -1.2400   -1.5146 H   0  0  0  0  0  0
   -7.6880    2.0740   -0.5556 H   0  0  0  0  0  0
   -9.6000    2.4118    0.9588 H   0  0  0  0  0  0
  -10.5475    0.5017    2.1904 H   0  0  0  0  0  0
   -9.5837   -1.7464    1.9070 H   0  0  0  0  0  0
   -7.6747   -2.0850    0.3890 H   0  0  0  0  0  0
    1.8788    1.1845    0.9526 H   0  0  0  0  0  0
    1.8861   -0.5508    1.3490 H   0  0  0  0  0  0
    5.6092    0.3216   -1.2051 H   0  0  0  0  0  0
    6.8665    0.6436    1.5576 H   0  0  0  0  0  0
    7.7164    0.8193    0.0035 H   0  0  0  0  0  0
    5.3469    2.5021    0.9367 H   0  0  0  0  0  0
    7.0228    4.3268    1.0401 H   0  0  0  0  0  0
    7.4541    2.9998    2.1453 H   0  0  0  0  0  0
    8.3039    3.1755    0.5913 H   0  0  0  0  0  0
    7.1110    2.6819   -1.5478 H   0  0  0  0  0  0
    5.4112    2.1545   -1.5176 H   0  0  0  0  0  0
    5.8298    3.8331   -1.0989 H   0  0  0  0  0  0
    5.8681   -3.8685    1.8793 H   0  0  0  0  0  0
  1  2  1  0  0  0
  1 14  1  0  0  0
  1 33  1  0  0  0
  1 34  1  0  0  0
  2  3  1  0  0  0
  2  4  1  0  0  0
  4  5  2  0  0  0
  4  6  1  0  0  0
  6  7  1  0  0  0
  7  8  1  0  0  0
  7 35  1  0  0  0
  7 36  1  0  0  0
  8  9  1  0  0  0
  8 13  2  0  0  0
  9 10  2  0  0  0
  9 37  1  0  0  0
 10 11  1  0  0  0
 10 38  1  0  0  0
 11 12  2  0  0  0
 11 39  1  0  0  0
 12 13  1  0  0  0
 12 40  1  0  0  0
 13 41  1  0  0  0
 14 15  2  0  0  0
 14 16  1  0  0  0
 16 17  1  0  0  0
 16 18  1  0  0  0
 18 19  1  0  0  0
 18 42  1  0  0  0
 18 43  1  0  0  0
 19 20  2  0  0  0
 19 21  1  0  0  0
 21 22  1  0  0  0
 21 23  1  0  0  0
 23 24  1  0  0  0
 23 28  1  0  0  0
 23 44  1  0  0  0
 24 25  1  0  0  0
 24 45  1  0  0  0
 24 46  1  0  0  0
 25 26  1  0  0  0
 25 27  1  0  0  0
 25 47  1  0  0  0
 26 48  1  0  0  0
 26 49  1  0  0  0
 26 50  1  0  0  0
 27 51  1  0  0  0
 27 52  1  0  0  0
 27 53  1  0  0  0
 28 29  2  0  0  0
 28 30  1  0  0  0
 30 31  1  0  0  0
 30 32  1  0  0  0
 32 54  1  0  0  0
M  END
>  <Activity>
4.41

>  <set>
1

>  <Min_dist>
999.9

>  <Avg_dist>
999.9

$$$$
ZGG_D_LNHOH
  Cerius2 12110214583D 1   1.00000                          
 
 54 54  0  0  0  0  0  0  0  0999 V2000
   -1.5449    0.1663   -0.9863 C   0  0  0  0  0  0
   -2.8333    0.0268   -0.3031 N   0  0  0  0  0  0
   -2.8600   -0.1723    0.6459 H   0  0  0  0  0  0
   -3.9815    0.1749   -0.9931 C   0  0  0  0  0  0
   -3.9481    0.4243   -2.1819 O   0  0  0  0  0  0
   -5.1656    0.0466   -0.3652 O   0  0  0  0  0  0
   -6.4026    0.2063   -1.1086 C   0  0  0  0  0  0
   -7.5745    0.0150   -0.1806 C   0  0  0  0  0  0
   -8.1086    1.0989    0.4908 C   0  0  0  0  0  0
   -9.1835    0.9234    1.3420 C   0  0  0  0  0  0
   -9.7247   -0.3359    1.5214 C   0  0  0  0  0  0
   -9.1913   -1.4196    0.8493 C   0  0  0  0  0  0
   -8.1191   -1.2434   -0.0053 C   0  0  0  0  0  0
   -0.4268   -0.0443    0.0019 C   0  0  0  0  0  0
   -0.6812   -0.2871    1.1626 O   0  0  0  0  0  0
    0.8557    0.0371   -0.4042 N   0  0  0  0  0  0
    1.0591    0.2313   -1.3325 H   0  0  0  0  0  0
    1.9426   -0.1677    0.5565 C   0  0  0  0  0  0
    3.2679   -0.0241   -0.1463 C   0  0  0  0  0  0
    3.3013    0.2248   -1.3328 O   0  0  0  0  0  0
    4.4162   -0.1722    0.5437 N   0  0  0  0  0  0
    4.3895   -0.3713    1.4927 H   0  0  0  0  0  0
    5.7045   -0.0326   -0.1395 C   0  0  0  0  0  0
    6.7456   -0.9172    0.5494 C   0  0  0  0  0  0
    6.3580   -2.3876    0.3798 C   0  0  0  0  0  0
    6.4438   -2.7703   -1.0991 C   0  0  0  0  0  0
    7.3154   -3.2640    1.1898 C   0  0  0  0  0  0
    6.1504    1.4057   -0.0820 C   0  0  0  0  0  0
    6.8332    1.8651   -0.9729 O   0  0  0  0  0  0
    5.7904    2.1817    0.9595 N   0  0  0  0  0  0
    5.2443    1.8143    1.6721 H   0  0  0  0  0  0
    6.2094    3.5332    1.0135 O   0  0  0  0  0  0
   -1.4725   -0.5765   -1.7807 H   0  0  0  0  0  0
   -1.4674    1.1655   -1.4151 H   0  0  0  0  0  0
   -6.4405    1.2064   -1.5404 H   0  0  0  0  0  0
   -6.4456   -0.5357   -1.9059 H   0  0  0  0  0  0
   -7.6858    2.0827    0.3506 H   0  0  0  0  0  0
   -9.6003    1.7701    1.8671 H   0  0  0  0  0  0
  -10.5641   -0.4731    2.1870 H   0  0  0  0  0  0
   -9.6139   -2.4035    0.9897 H   0  0  0  0  0  0
   -7.7022   -2.0901   -0.5304 H   0  0  0  0  0  0
    1.8702    0.5752    1.3508 H   0  0  0  0  0  0
    1.8651   -1.1668    0.9853 H   0  0  0  0  0  0
    5.5990   -0.3390   -1.1803 H   0  0  0  0  0  0
    7.7235   -0.7451    0.0996 H   0  0  0  0  0  0
    6.7856   -0.6721    1.6107 H   0  0  0  0  0  0
    5.3387   -2.5380    0.7355 H   0  0  0  0  0  0
    6.1677   -3.8178   -1.2199 H   0  0  0  0  0  0
    5.7618   -2.1459   -1.6761 H   0  0  0  0  0  0
    7.4631   -2.6199   -1.4547 H   0  0  0  0  0  0
    8.3424   -3.0492    0.8947 H   0  0  0  0  0  0
    7.1908   -3.0529    2.2519 H   0  0  0  0  0  0
    7.0950   -4.3145    1.0000 H   0  0  0  0  0  0
    5.8484    3.9053    1.8299 H   0  0  0  0  0  0
  1  2  1  0  0  0
  1 14  1  0  0  0
  1 33  1  0  0  0
  1 34  1  0  0  0
  2  3  1  0  0  0
  2  4  1  0  0  0
  4  5  2  0  0  0
  4  6  1  0  0  0
  6  7  1  0  0  0
  7  8  1  0  0  0
  7 35  1  0  0  0
  7 36  1  0  0  0
  8  9  1  0  0  0
  8 13  2  0  0  0
  9 10  2  0  0  0
  9 37  1  0  0  0
 10 11  1  0  0  0
 10 38  1  0  0  0
 11 12  2  0  0  0
 11 39  1  0  0  0
 12 13  1  0  0  0
 12 40  1  0  0  0
 13 41  1  0  0  0
 14 15  2  0  0  0
 14 16  1  0  0  0
 16 17  1  0  0  0
 16 18  1  0  0  0
 18 19  1  0  0  0
 18 42  1  0  0  0
 18 43  1  0  0  0
 19 20  2  0  0  0
 19 21  1  0  0  0
 21 22  1  0  0  0
 21 23  1  0  0  0
 23 24  1  0  0  0
 23 28  1  0  0  0
 23 44  1  0  0  0
 24 25  1  0  0  0
 24 45  1  0  0  0
 24 46  1  0  0  0
 25 26  1  0  0  0
 25 27  1  0  0  0
 25 47  1  0  0  0
 26 48  1  0  0  0
 26 49  1  0  0  0
 26 50  1  0  0  0
 27 51  1  0  0  0
 27 52  1  0  0  0
 27 53  1  0  0  0
 28 29  2  0  0  0
 28 30  1  0  0  0
 30 31  1  0  0  0
 30 32  1  0  0  0
 32 54  1  0  0  0
M  END
>  <Activity>
3.6

>  <set>
1

>  <Min_dist>
999.9

>  <Avg_dist>
999.9

$$$$
ZGLNH2
  Cerius2 12110214583D 1   1.00000                          
 
 46 46  0  0  0  0  0  0  0  0999 V2000
    7.0318   -1.2765    0.6495 C   0  0  0  0  0  0
    5.9529   -1.0546   -0.1857 C   0  0  0  0  0  0
    5.3591    0.1929   -0.2310 C   0  0  0  0  0  0
    5.8439    1.2183    0.5592 C   0  0  0  0  0  0
    6.9222    0.9961    1.3951 C   0  0  0  0  0  0
    7.5169   -0.2510    1.4394 C   0  0  0  0  0  0
    4.1835    0.4351   -1.1423 C   0  0  0  0  0  0
    2.9517    0.1428   -0.4314 O   0  0  0  0  0  0
    1.7656    0.2890   -1.0515 C   0  0  0  0  0  0
    0.6222    0.0176   -0.3916 N   0  0  0  0  0  0
    0.6538   -0.2830    0.5301 H   0  0  0  0  0  0
   -0.6684    0.1768   -1.0663 C   0  0  0  0  0  0
   -1.7801   -0.1881   -0.1165 C   0  0  0  0  0  0
   -3.0634   -0.1169   -0.5221 N   0  0  0  0  0  0
   -3.2715    0.1693   -1.4253 H   0  0  0  0  0  0
   -4.1442   -0.4716    0.4012 C   0  0  0  0  0  0
   -5.3948    0.3404    0.0585 C   0  0  0  0  0  0
   -5.0844    1.8332    0.1860 C   0  0  0  0  0  0
   -6.3351    2.6452   -0.1567 C   0  0  0  0  0  0
   -4.6521    2.1435    1.6205 C   0  0  0  0  0  0
   -4.4498   -1.9419    0.2755 C   0  0  0  0  0  0
   -4.8656   -2.5588    1.2334 O   0  0  0  0  0  0
   -4.2612   -2.5713   -0.9012 N   0  0  0  0  0  0
   -4.4580   -3.5177   -0.9821 H   0  0  0  0  0  0
   -3.9287   -2.0778   -1.6673 H   0  0  0  0  0  0
   -1.5200   -0.5459    1.0127 O   0  0  0  0  0  0
    1.7260    0.6657   -2.2060 O   0  0  0  0  0  0
    7.4929   -2.2524    0.6883 H   0  0  0  0  0  0
    5.5742   -1.8557   -0.8031 H   0  0  0  0  0  0
    5.3804    2.1931    0.5232 H   0  0  0  0  0  0
    7.3014    1.7974    2.0119 H   0  0  0  0  0  0
    8.3591   -0.4247    2.0927 H   0  0  0  0  0  0
    4.1801    1.4773   -1.4617 H   0  0  0  0  0  0
    4.2614   -0.2123   -2.0157 H   0  0  0  0  0  0
   -0.7871    1.2127   -1.3838 H   0  0  0  0  0  0
   -0.7058   -0.4769   -1.9377 H   0  0  0  0  0  0
   -3.8362   -0.2505    1.4231 H   0  0  0  0  0  0
   -5.7028    0.1194   -0.9635 H   0  0  0  0  0  0
   -6.1989    0.0765    0.7454 H   0  0  0  0  0  0
   -4.2803    2.0971   -0.5009 H   0  0  0  0  0  0
   -6.1140    3.7087   -0.0658 H   0  0  0  0  0  0
   -6.6430    2.4242   -1.1786 H   0  0  0  0  0  0
   -7.1392    2.3813    0.5302 H   0  0  0  0  0  0
   -5.4562    1.8796    2.3074 H   0  0  0  0  0  0
   -3.7612    1.5650    1.8646 H   0  0  0  0  0  0
   -4.4310    3.2069    1.7114 H   0  0  0  0  0  0
  1  2  1  0  0  0
  1  6  2  0  0  0
  1 28  1  0  0  0
  2  3  2  0  0  0
  2 29  1  0  0  0
  3  4  1  0  0  0
  3  7  1  0  0  0
  4  5  2  0  0  0
  4 30  1  0  0  0
  5  6  1  0  0  0
  5 31  1  0  0  0
  6 32  1  0  0  0
  7  8  1  0  0  0
  7 33  1  0  0  0
  7 34  1  0  0  0
  8  9  1  0  0  0
  9 10  1  0  0  0
  9 27  2  0  0  0
 10 11  1  0  0  0
 10 12  1  0  0  0
 12 13  1  0  0  0
 12 35  1  0  0  0
 12 36  1  0  0  0
 13 14  1  0  0  0
 13 26  2  0  0  0
 14 15  1  0  0  0
 14 16  1  0  0  0
 16 17  1  0  0  0
 16 21  1  0  0  0
 16 37  1  0  0  0
 17 18  1  0  0  0
 17 38  1  0  0  0
 17 39  1  0  0  0
 18 19  1  0  0  0
 18 20  1  0  0  0
 18 40  1  0  0  0
 19 41  1  0  0  0
 19 42  1  0  0  0
 19 43  1  0  0  0
 20 44  1  0  0  0
 20 45  1  0  0  0
 20 46  1  0  0  0
 21 22  2  0  0  0
 21 23  1  0  0  0
 23 24  1  0  0  0
 23 25  1  0  0  0
M  END
>  <Activity>
1.68

>  <set>
1

>  <Min_dist>
999.9

>  <Avg_dist>
999.9

$$$$
ZGLNHOH
  Cerius2 12110214583D 1   1.00000                          
 
 47 47  0  0  0  0  0  0  0  0999 V2000
    7.1997   -1.3164    0.7909 C   0  0  0  0  0  0
    6.1222   -1.1530   -0.0595 C   0  0  0  0  0  0
    5.5835    0.1044   -0.2588 C   0  0  0  0  0  0
    6.1220    1.1983    0.3925 C   0  0  0  0  0  0
    7.1989    1.0348    1.2436 C   0  0  0  0  0  0
    7.7386   -0.2224    1.4419 C   0  0  0  0  0  0
    4.4094    0.2827   -1.1867 C   0  0  0  0  0  0
    3.1741    0.1382   -0.4374 O   0  0  0  0  0  0
    1.9886    0.2586   -1.0642 C   0  0  0  0  0  0
    0.8420    0.1245   -0.3687 N   0  0  0  0  0  0
    0.8708   -0.0587    0.5834 H   0  0  0  0  0  0
   -0.4480    0.2555   -1.0507 C   0  0  0  0  0  0
   -1.5638    0.0639   -0.0560 C   0  0  0  0  0  0
   -2.8473    0.1413   -0.4599 N   0  0  0  0  0  0
   -3.0528    0.3204   -1.3908 H   0  0  0  0  0  0
   -3.9320   -0.0450    0.5070 C   0  0  0  0  0  0
   -5.1494    0.7730    0.0715 C   0  0  0  0  0  0
   -4.7721    2.2544    0.0074 C   0  0  0  0  0  0
   -5.9895    3.0724   -0.4280 C   0  0  0  0  0  0
   -4.3102    2.7232    1.3887 C   0  0  0  0  0  0
   -4.3036   -1.5041    0.5701 C   0  0  0  0  0  0
   -4.7352   -1.9759    1.6006 O   0  0  0  0  0  0
   -4.1564   -2.2847   -0.5187 N   0  0  0  0  0  0
   -3.8112   -1.9073   -1.3429 H   0  0  0  0  0  0
   -4.5056   -3.6556   -0.4594 O   0  0  0  0  0  0
   -1.3068   -0.1600    1.1079 O   0  0  0  0  0  0
    1.9525    0.4880   -2.2569 O   0  0  0  0  0  0
    7.6178   -2.2994    0.9501 H   0  0  0  0  0  0
    5.7015   -2.0076   -0.5684 H   0  0  0  0  0  0
    5.7016    2.1807    0.2362 H   0  0  0  0  0  0
    7.6201    1.8895    1.7520 H   0  0  0  0  0  0
    8.5797   -0.3502    2.1071 H   0  0  0  0  0  0
    4.4483    1.2753   -1.6353 H   0  0  0  0  0  0
    4.4487   -0.4726   -1.9716 H   0  0  0  0  0  0
   -0.5245    1.2474   -1.4959 H   0  0  0  0  0  0
   -0.5241   -0.5005   -1.8322 H   0  0  0  0  0  0
   -3.6029    0.2890    1.4910 H   0  0  0  0  0  0
   -5.4785    0.4390   -0.9125 H   0  0  0  0  0  0
   -5.9565    0.6345    0.7909 H   0  0  0  0  0  0
   -3.9650    2.3930   -0.7120 H   0  0  0  0  0  0
   -5.7207    4.1277   -0.4737 H   0  0  0  0  0  0
   -6.3186    2.7384   -1.4120 H   0  0  0  0  0  0
   -6.7966    2.9338    0.2914 H   0  0  0  0  0  0
   -5.1172    2.5846    2.1081 H   0  0  0  0  0  0
   -3.4429    2.1405    1.6989 H   0  0  0  0  0  0
   -4.0414    3.7786    1.3430 H   0  0  0  0  0  0
   -4.3259   -4.0279   -1.3336 H   0  0  0  0  0  0
  1  2  1  0  0  0
  1  6  2  0  0  0
  1 28  1  0  0  0
  2  3  2  0  0  0
  2 29  1  0  0  0
  3  4  1  0  0  0
  3  7  1  0  0  0
  4  5  2  0  0  0
  4 30  1  0  0  0
  5  6  1  0  0  0
  5 31  1  0  0  0
  6 32  1  0  0  0
  7  8  1  0  0  0
  7 33  1  0  0  0
  7 34  1  0  0  0
  8  9  1  0  0  0
  9 10  1  0  0  0
  9 27  2  0  0  0
 10 11  1  0  0  0
 10 12  1  0  0  0
 12 13  1  0  0  0
 12 35  1  0  0  0
 12 36  1  0  0  0
 13 14  1  0  0  0
 13 26  2  0  0  0
 14 15  1  0  0  0
 14 16  1  0  0  0
 16 17  1  0  0  0
 16 21  1  0  0  0
 16 37  1  0  0  0
 17 18  1  0  0  0
 17 38  1  0  0  0
 17 39  1  0  0  0
 18 19  1  0  0  0
 18 20  1  0  0  0
 18 40  1  0  0  0
 19 41  1  0  0  0
 19 42  1  0  0  0
 19 43  1  0  0  0
 20 44  1  0  0  0
 20 45  1  0  0  0
 20 46  1  0  0  0
 21 22  2  0  0  0
 21 23  1  0  0  0
 23 24  1  0  0  0
 23 25  1  0  0  0
 25 47  1  0  0  0
M  END
>  <Activity>
4.89

>  <set>
1

>  <Min_dist>
999.9

>  <Avg_dist>
999.9

$$$$
ZGLY
  Cerius2 12110214583D 1   1.00000                          
 
 77 78  0  0  0  0  0  0  0  0999 V2000
    9.9725    2.4233    1.5083 C   0  0  0  0  0  0
    9.2862    1.2233    1.5069 C   0  0  0  0  0  0
    9.0387    0.5700    0.3141 C   0  0  0  0  0  0
    9.4769    1.1170   -0.8774 C   0  0  0  0  0  0
   10.1623    2.3174   -0.8761 C   0  0  0  0  0  0
   10.4112    2.9700    0.3168 C   0  0  0  0  0  0
    8.2914   -0.7387    0.3127 C   0  0  0  0  0  0
    6.8676   -0.4829    0.1877 O   0  0  0  0  0  0
    5.9985   -1.5109    0.1641 C   0  0  0  0  0  0
    6.4056   -2.6527    0.2474 O   0  0  0  0  0  0
    4.6769   -1.2735    0.0481 N   0  0  0  0  0  0
    4.3519   -0.3620   -0.0185 H   0  0  0  0  0  0
    3.7312   -2.3921    0.0224 C   0  0  0  0  0  0
    2.3277   -1.8603   -0.1133 C   0  0  0  0  0  0
    2.1362   -0.6647   -0.1818 O   0  0  0  0  0  0
    1.2853   -2.7134   -0.1585 N   0  0  0  0  0  0
    1.4384   -3.6697   -0.1037 H   0  0  0  0  0  0
   -0.0791   -2.1964   -0.2904 C   0  0  0  0  0  0
   -1.0668   -3.3647   -0.3172 C   0  0  0  0  0  0
   -2.4917   -2.8248   -0.4550 C   0  0  0  0  0  0
   -3.4645   -3.9754   -0.4814 C   0  0  0  0  0  0
   -3.8243   -4.4382   -1.5380 O   0  0  0  0  0  0
   -3.9312   -4.4862    0.6688 O   0  5  0  0  0  0
   -2.7970   -1.9516    0.6862 N   0  0  0  0  0  0
   -3.8376   -1.0174    0.2364 C   0  0  0  0  0  0
   -4.6278   -0.5134    1.4457 C   0  0  0  0  0  0
   -5.3997   -1.6769    2.0714 C   0  0  0  0  0  0
   -6.0725   -1.2069    3.3626 C   0  0  0  0  0  0
   -6.4660   -2.1678    1.0902 C   0  0  0  0  0  0
   -3.1945    0.1508   -0.4657 C   0  0  0  0  0  0
   -1.9881    0.2002   -0.5801 O   0  0  0  0  0  0
   -3.9600    1.1406   -0.9664 N   0  0  0  0  0  0
   -4.9249    1.1011   -0.8749 H   0  0  0  0  0  0
   -3.3349    2.2762   -1.6489 C   0  0  0  0  0  0
   -3.2094    1.9714   -3.1194 C   0  0  0  0  0  0
   -2.3035    2.4495   -3.7604 O   0  0  0  0  0  0
   -4.1039    1.1687   -3.7172 O   0  5  0  0  0  0
   -4.1993    3.5242   -1.4588 C   0  0  0  0  0  0
   -4.3248    3.8291    0.0117 C   0  0  0  0  0  0
   -3.4036    4.6558    0.6273 C   0  0  0  0  0  0
   -3.5187    4.9353    1.9762 C   0  0  0  0  0  0
   -4.5553    4.3887    2.7094 C   0  0  0  0  0  0
   -5.4770    3.5627    2.0936 C   0  0  0  0  0  0
   -5.3644    3.2866    0.7438 C   0  0  0  0  0  0
   10.1620    2.9359    2.4398 H   0  0  0  0  0  0
    8.9438    0.7960    2.4378 H   0  0  0  0  0  0
    9.2841    0.6062   -1.8093 H   0  0  0  0  0  0
   10.5054    2.7443   -1.8070 H   0  0  0  0  0  0
   10.9464    3.9080    0.3178 H   0  0  0  0  0  0
    8.6263   -1.3474   -0.5271 H   0  0  0  0  0  0
    8.4849   -1.2685    1.2454 H   0  0  0  0  0  0
    3.9577   -3.0400   -0.8244 H   0  0  0  0  0  0
    3.8162   -2.9611    0.9482 H   0  0  0  0  0  0
   -0.3056   -1.5485    0.5563 H   0  0  0  0  0  0
   -0.1642   -1.6274   -1.2162 H   0  0  0  0  0  0
   -0.8403   -4.0126   -1.1640 H   0  0  0  0  0  0
   -0.9818   -3.9337    0.6086 H   0  0  0  0  0  0
   -2.5767   -2.2558   -1.3808 H   0  0  0  0  0  0
   -3.2175   -2.5354    1.3936 H   0  0  0  0  0  0
   -4.5119   -1.5281   -0.4511 H   0  0  0  0  0  0
   -3.9399   -0.0965    2.1813 H   0  0  0  0  0  0
   -5.3289    0.2575    1.1260 H   0  0  0  0  0  0
   -4.7106   -2.4909    2.2963 H   0  0  0  0  0  0
   -6.6224   -2.0357    3.8084 H   0  0  0  0  0  0
   -5.3128   -0.8571    4.0617 H   0  0  0  0  0  0
   -6.7616   -0.3928    3.1377 H   0  0  0  0  0  0
   -7.0977   -1.3312    0.7916 H   0  0  0  0  0  0
   -5.9824   -2.5904    0.2095 H   0  0  0  0  0  0
   -7.0777   -2.9316    1.5704 H   0  0  0  0  0  0
   -2.3448    2.4525   -1.2286 H   0  0  0  0  0  0
   -3.7341    4.3692   -1.9666 H   0  0  0  0  0  0
   -5.1894    3.3480   -1.8791 H   0  0  0  0  0  0
   -2.5937    5.0829    0.0545 H   0  0  0  0  0  0
   -2.7986    5.5806    2.4573 H   0  0  0  0  0  0
   -4.6448    4.6065    3.7634 H   0  0  0  0  0  0
   -6.2866    3.1354    2.6665 H   0  0  0  0  0  0
   -6.0845    2.6413    0.2627 H   0  0  0  0  0  0
  1  2  1  0  0  0
  1  6  2  0  0  0
  1 45  1  0  0  0
  2  3  2  0  0  0
  2 46  1  0  0  0
  3  4  1  0  0  0
  3  7  1  0  0  0
  4  5  2  0  0  0
  4 47  1  0  0  0
  5  6  1  0  0  0
  5 48  1  0  0  0
  6 49  1  0  0  0
  7  8  1  0  0  0
  7 50  1  0  0  0
  7 51  1  0  0  0
  8  9  1  0  0  0
  9 10  2  0  0  0
  9 11  1  0  0  0
 11 12  1  0  0  0
 11 13  1  0  0  0
 13 14  1  0  0  0
 13 52  1  0  0  0
 13 53  1  0  0  0
 14 15  2  0  0  0
 14 16  1  0  0  0
 16 17  1  0  0  0
 16 18  1  0  0  0
 18 19  1  0  0  0
 18 54  1  0  0  0
 18 55  1  0  0  0
 19 20  1  0  0  0
 19 56  1  0  0  0
 19 57  1  0  0  0
 20 21  1  0  0  0
 20 24  1  0  0  0
 20 58  1  0  0  0
 21 22  2  0  0  0
 21 23  1  0  0  0
 24 25  1  0  0  0
 24 59  1  0  0  0
 25 26  1  0  0  0
 25 30  1  0  0  0
 25 60  1  0  0  0
 26 27  1  0  0  0
 26 61  1  0  0  0
 26 62  1  0  0  0
 27 28  1  0  0  0
 27 29  1  0  0  0
 27 63  1  0  0  0
 28 64  1  0  0  0
 28 65  1  0  0  0
 28 66  1  0  0  0
 29 67  1  0  0  0
 29 68  1  0  0  0
 29 69  1  0  0  0
 30 31  2  0  0  0
 30 32  1  0  0  0
 32 33  1  0  0  0
 32 34  1  0  0  0
 34 35  1  0  0  0
 34 38  1  0  0  0
 34 70  1  0  0  0
 35 36  2  0  0  0
 35 37  1  0  0  0
 38 39  1  0  0  0
 38 71  1  0  0  0
 38 72  1  0  0  0
 39 40  1  0  0  0
 39 44  2  0  0  0
 40 41  2  0  0  0
 40 73  1  0  0  0
 41 42  1  0  0  0
 41 74  1  0  0  0
 42 43  2  0  0  0
 42 75  1  0  0  0
 43 44  1  0  0  0
 43 76  1  0  0  0
 44 77  1  0  0  0
M  CHG  2  23  -1  37  -1
M  END
>  <Activity>
6.39

>  <set>
1

>  <Min_dist>
999.9

>  <Avg_dist>
999.9

$$$$
ZGPCLA
  Cerius2 12110214583D 1   1.00000                          
 
 56 56  0  0  0  0  0  0  0  0999 V2000
   -3.4864   -0.9898   -0.5437 C   0  0  0  0  0  0
   -2.5908   -1.6199    0.2419 N   0  0  0  0  0  0
   -2.8133   -1.8242    1.1637 H   0  0  0  0  0  0
   -1.2813   -1.9965   -0.2962 C   0  0  0  0  0  0
   -0.0999   -0.6340   -0.0289 P   0  0  0  0  0  0
   -0.5854    0.5823   -0.7183 O   0  0  0  0  0  0
    0.0324   -0.3402    1.5485 O   0  5  0  0  0  0
    1.5296   -1.1026   -0.6986 C   0  0  0  0  0  0
    2.5668   -0.0512   -0.2988 C   0  0  0  0  0  0
    3.9513   -0.6221   -0.4667 C   0  0  0  0  0  0
    4.2087   -1.3161   -1.4275 O   0  0  0  0  0  0
    4.9035   -0.3615    0.4508 N   0  0  0  0  0  0
    4.6800    0.1332    1.2547 H   0  0  0  0  0  0
    6.2761   -0.8254    0.2340 C   0  0  0  0  0  0
    7.2384    0.1241    0.8999 C   0  0  0  0  0  0
    6.8205    1.0894    1.4946 O   0  0  0  0  0  0
    8.5597   -0.1024    0.8324 O   0  5  0  0  0  0
    6.4425   -2.2235    0.8330 C   0  0  0  0  0  0
    2.4122    1.1825   -1.1905 C   0  0  0  0  0  0
    3.4300    2.2453   -0.7716 C   0  0  0  0  0  0
    3.3760    3.4179   -1.7529 C   0  0  0  0  0  0
    3.0974    2.7429    0.6365 C   0  0  0  0  0  0
   -3.2077   -0.7339   -1.6985 O   0  0  0  0  0  0
   -4.6919   -0.6487   -0.0508 O   0  0  0  0  0  0
   -5.6568    0.0302   -0.8972 C   0  0  0  0  0  0
   -6.9145    0.2972   -0.1112 C   0  0  0  0  0  0
   -7.0506    1.4775    0.5954 C   0  0  0  0  0  0
   -8.2042    1.7224    1.3165 C   0  0  0  0  0  0
   -9.2221    0.7871    1.3306 C   0  0  0  0  0  0
   -9.0864   -0.3928    0.6233 C   0  0  0  0  0  0
   -7.9345   -0.6358   -0.1013 C   0  0  0  0  0  0
   -0.9238   -2.8923    0.2115 H   0  0  0  0  0  0
   -1.3709   -2.1954   -1.3641 H   0  0  0  0  0  0
    1.8222   -2.0727   -0.2968 H   0  0  0  0  0  0
    1.4725   -1.1617   -1.7855 H   0  0  0  0  0  0
    2.4143    0.2319    0.7427 H   0  0  0  0  0  0
    6.4828   -0.8614   -0.8356 H   0  0  0  0  0  0
    6.2358   -2.1875    1.9026 H   0  0  0  0  0  0
    5.7465   -2.9103    0.3513 H   0  0  0  0  0  0
    7.4638   -2.5686    0.6717 H   0  0  0  0  0  0
    2.5852    0.9034   -2.2299 H   0  0  0  0  0  0
    1.4041    1.5832   -1.0848 H   0  0  0  0  0  0
    4.4304    1.8125   -0.7772 H   0  0  0  0  0  0
    4.1011    4.1751   -1.4545 H   0  0  0  0  0  0
    3.6129    3.0634   -2.7560 H   0  0  0  0  0  0
    2.3756    3.8506   -1.7473 H   0  0  0  0  0  0
    2.0592    3.0732    0.6694 H   0  0  0  0  0  0
    3.2441    1.9337    1.3519 H   0  0  0  0  0  0
    3.7521    3.5763    0.8914 H   0  0  0  0  0  0
   -5.2364    0.9750   -1.2420 H   0  0  0  0  0  0
   -5.8918   -0.5979   -1.7565 H   0  0  0  0  0  0
   -6.2554    2.2082    0.5843 H   0  0  0  0  0  0
   -8.3102    2.6442    1.8690 H   0  0  0  0  0  0
  -10.1231    0.9781    1.8946 H   0  0  0  0  0  0
   -9.8815   -1.1237    0.6347 H   0  0  0  0  0  0
   -7.8285   -1.5576   -0.6538 H   0  0  0  0  0  0
  1  2  1  0  0  0
  1 23  2  0  0  0
  1 24  1  0  0  0
  2  3  1  0  0  0
  2  4  1  0  0  0
  4  5  1  0  0  0
  4 32  1  0  0  0
  4 33  1  0  0  0
  5  6  2  0  0  0
  5  7  1  0  0  0
  5  8  1  0  0  0
  8  9  1  0  0  0
  8 34  1  0  0  0
  8 35  1  0  0  0
  9 10  1  0  0  0
  9 19  1  0  0  0
  9 36  1  0  0  0
 10 11  2  0  0  0
 10 12  1  0  0  0
 12 13  1  0  0  0
 12 14  1  0  0  0
 14 15  1  0  0  0
 14 18  1  0  0  0
 14 37  1  0  0  0
 15 16  2  0  0  0
 15 17  1  0  0  0
 18 38  1  0  0  0
 18 39  1  0  0  0
 18 40  1  0  0  0
 19 20  1  0  0  0
 19 41  1  0  0  0
 19 42  1  0  0  0
 20 21  1  0  0  0
 20 22  1  0  0  0
 20 43  1  0  0  0
 21 44  1  0  0  0
 21 45  1  0  0  0
 21 46  1  0  0  0
 22 47  1  0  0  0
 22 48  1  0  0  0
 22 49  1  0  0  0
 24 25  1  0  0  0
 25 26  1  0  0  0
 25 50  1  0  0  0
 25 51  1  0  0  0
 26 27  1  0  0  0
 26 31  2  0  0  0
 27 28  2  0  0  0
 27 52  1  0  0  0
 28 29  1  0  0  0
 28 53  1  0  0  0
 29 30  2  0  0  0
 29 54  1  0  0  0
 30 31  1  0  0  0
 30 55  1  0  0  0
 31 56  1  0  0  0
M  CHG  2   7  -1  17  -1
M  END
>  <Activity>
7.73

>  <set>
1

>  <Min_dist>
999.9

>  <Avg_dist>
999.9

$$$$
ZGPCLF
  Cerius2 12110214583D 1   1.00000                          
 
 66 67  0  0  0  0  0  0  0  0999 V2000
   -4.0247    0.3318   -1.1560 C   0  0  0  0  0  0
   -3.3654   -0.7362   -1.6472 N   0  0  0  0  0  0
   -3.8025   -1.6013   -1.6836 H   0  0  0  0  0  0
   -1.9886   -0.5903   -2.1262 C   0  0  0  0  0  0
   -0.8314   -0.8921   -0.7503 P   0  0  0  0  0  0
   -1.0951    0.1298    0.3780 O   0  0  0  0  0  0
   -1.0389   -2.3236   -0.2075 O   0  5  0  0  0  0
    0.8818   -0.7106   -1.3464 C   0  0  0  0  0  0
    1.8531   -0.9639   -0.1916 C   0  0  0  0  0  0
    3.2693   -0.8138   -0.6843 C   0  0  0  0  0  0
    3.5399   -1.0681   -1.8389 O   0  0  0  0  0  0
    4.2353   -0.3970    0.1581 N   0  0  0  0  0  0
    4.0357   -0.2663    1.0983 H   0  0  0  0  0  0
    5.5869   -0.1416   -0.3462 C   0  0  0  0  0  0
    6.3694   -1.4293   -0.3606 C   0  0  0  0  0  0
    6.0597   -2.3727    0.4397 O   0  0  0  0  0  0
    7.3414   -1.5758   -1.1731 O   0  5  0  0  0  0
    6.2873    0.8708    0.5624 C   0  0  0  0  0  0
    5.5047    2.1585    0.5768 C   0  0  0  0  0  0
    4.5095    2.3521    1.5164 C   0  0  0  0  0  0
    3.7916    3.5333    1.5296 C   0  0  0  0  0  0
    4.0693    4.5212    0.6034 C   0  0  0  0  0  0
    5.0652    4.3281   -0.3356 C   0  0  0  0  0  0
    5.7860    3.1486   -0.3461 C   0  0  0  0  0  0
    1.6476   -2.3815    0.3460 C   0  0  0  0  0  0
    0.8049   -2.3260    1.6218 C   0  0  0  0  0  0
    0.4753   -3.7489    2.0776 C   0  0  0  0  0  0
    1.5902   -1.6075    2.7208 C   0  0  0  0  0  0
   -3.4772    1.4156   -1.1105 O   0  0  0  0  0  0
   -5.2919    0.1989   -0.7210 O   0  0  0  0  0  0
   -6.0022    1.3494   -0.1918 C   0  0  0  0  0  0
   -7.3908    0.9356    0.2225 C   0  0  0  0  0  0
   -7.6240    0.4901    1.5101 C   0  0  0  0  0  0
   -8.8977    0.1104    1.8901 C   0  0  0  0  0  0
   -9.9383    0.1766    0.9825 C   0  0  0  0  0  0
   -9.7053    0.6230   -0.3049 C   0  0  0  0  0  0
   -8.4324    1.0068   -0.6836 C   0  0  0  0  0  0
   -1.8026   -1.3112   -2.9222 H   0  0  0  0  0  0
   -1.8422    0.4197   -2.5092 H   0  0  0  0  0  0
    1.0679   -1.4315   -2.1424 H   0  0  0  0  0  0
    1.0282    0.2994   -1.7293 H   0  0  0  0  0  0
    1.6670   -0.2429    0.6044 H   0  0  0  0  0  0
    5.5274    0.2588   -1.3583 H   0  0  0  0  0  0
    6.3468    0.4704    1.5744 H   0  0  0  0  0  0
    7.2929    1.0609    0.1872 H   0  0  0  0  0  0
    4.2925    1.5802    2.2400 H   0  0  0  0  0  0
    3.0135    3.6842    2.2633 H   0  0  0  0  0  0
    3.5079    5.4438    0.6133 H   0  0  0  0  0  0
    5.2819    5.0998   -1.0594 H   0  0  0  0  0  0
    6.5640    2.9977   -1.0797 H   0  0  0  0  0  0
    1.1333   -2.9832   -0.4033 H   0  0  0  0  0  0
    2.6160   -2.8293    0.5693 H   0  0  0  0  0  0
   -0.1201   -1.7847    1.4230 H   0  0  0  0  0  0
   -0.1251   -3.7093    2.9865 H   0  0  0  0  0  0
   -0.0841   -4.2608    1.2946 H   0  0  0  0  0  0
    1.4003   -4.2902    2.2764 H   0  0  0  0  0  0
    2.5581   -2.0913    2.8514 H   0  0  0  0  0  0
    1.7401   -0.5654    2.4383 H   0  0  0  0  0  0
    1.0318   -1.6537    3.6558 H   0  0  0  0  0  0
   -5.4666    1.7409    0.6730 H   0  0  0  0  0  0
   -6.0668    2.1210   -0.9590 H   0  0  0  0  0  0
   -6.8110    0.4384    2.2192 H   0  0  0  0  0  0
   -9.0798   -0.2383    2.8959 H   0  0  0  0  0  0
  -10.9333   -0.1207    1.2792 H   0  0  0  0  0  0
  -10.5182    0.6744   -1.0140 H   0  0  0  0  0  0
   -8.2504    1.3555   -1.6894 H   0  0  0  0  0  0
  1  2  1  0  0  0
  1 29  2  0  0  0
  1 30  1  0  0  0
  2  3  1  0  0  0
  2  4  1  0  0  0
  4  5  1  0  0  0
  4 38  1  0  0  0
  4 39  1  0  0  0
  5  6  2  0  0  0
  5  7  1  0  0  0
  5  8  1  0  0  0
  8  9  1  0  0  0
  8 40  1  0  0  0
  8 41  1  0  0  0
  9 10  1  0  0  0
  9 25  1  0  0  0
  9 42  1  0  0  0
 10 11  2  0  0  0
 10 12  1  0  0  0
 12 13  1  0  0  0
 12 14  1  0  0  0
 14 15  1  0  0  0
 14 18  1  0  0  0
 14 43  1  0  0  0
 15 16  2  0  0  0
 15 17  1  0  0  0
 18 19  1  0  0  0
 18 44  1  0  0  0
 18 45  1  0  0  0
 19 20  1  0  0  0
 19 24  2  0  0  0
 20 21  2  0  0  0
 20 46  1  0  0  0
 21 22  1  0  0  0
 21 47  1  0  0  0
 22 23  2  0  0  0
 22 48  1  0  0  0
 23 24  1  0  0  0
 23 49  1  0  0  0
 24 50  1  0  0  0
 25 26  1  0  0  0
 25 51  1  0  0  0
 25 52  1  0  0  0
 26 27  1  0  0  0
 26 28  1  0  0  0
 26 53  1  0  0  0
 27 54  1  0  0  0
 27 55  1  0  0  0
 27 56  1  0  0  0
 28 57  1  0  0  0
 28 58  1  0  0  0
 28 59  1  0  0  0
 30 31  1  0  0  0
 31 32  1  0  0  0
 31 60  1  0  0  0
 31 61  1  0  0  0
 32 33  1  0  0  0
 32 37  2  0  0  0
 33 34  2  0  0  0
 33 62  1  0  0  0
 34 35  1  0  0  0
 34 63  1  0  0  0
 35 36  2  0  0  0
 35 64  1  0  0  0
 36 37  1  0  0  0
 36 65  1  0  0  0
 37 66  1  0  0  0
M  CHG  2   7  -1  17  -1
M  END
>  <Activity>
7.18

>  <set>
1

>  <Min_dist>
999.9

>  <Avg_dist>
999.9

$$$$
ZGPCLG
  Cerius2 12110214583D 1   1.00000                          
 
 53 53  0  0  0  0  0  0  0  0999 V2000
   -3.1346   -1.2066    0.0385 C   0  0  0  0  0  0
   -2.3583   -1.2438    1.1395 N   0  0  0  0  0  0
   -2.6793   -0.8641    1.9724 H   0  0  0  0  0  0
   -1.0296   -1.8579    1.0785 C   0  0  0  0  0  0
    0.2035   -0.5945    0.6238 P   0  0  0  0  0  0
   -0.1532   -0.0004   -0.7571 O   0  0  0  0  0  0
    0.2038    0.5297    1.6836 O   0  5  0  0  0  0
    1.8568   -1.3587    0.5479 C   0  0  0  0  0  0
    2.8917   -0.2983    0.1662 C   0  0  0  0  0  0
    4.2585   -0.9300    0.1035 C   0  0  0  0  0  0
    4.4107   -2.0819    0.4513 O   0  0  0  0  0  0
    5.3117   -0.2149   -0.3391 N   0  0  0  0  0  0
    5.2055    0.7264   -0.5479 H   0  0  0  0  0  0
    6.6169   -0.8592   -0.5049 C   0  0  0  0  0  0
    7.6156    0.1511   -1.0077 C   0  0  0  0  0  0
    7.2691    1.3030   -1.2089 O   0  0  0  0  0  0
    8.7704   -0.1832   -1.2133 O   0  5  0  0  0  0
    2.8921    0.8150    1.2158 C   0  0  0  0  0  0
    2.3863    2.1128    0.5827 C   0  0  0  0  0  0
    2.2348    3.1831    1.6655 C   0  0  0  0  0  0
    3.3881    2.5908   -0.4703 C   0  0  0  0  0  0
   -2.7325   -1.6823   -1.0048 O   0  0  0  0  0  0
   -4.3579   -0.6472    0.0959 O   0  0  0  0  0  0
   -5.1943   -0.6071   -1.0903 C   0  0  0  0  0  0
   -6.5018    0.0658   -0.7605 C   0  0  0  0  0  0
   -6.6306    1.4345   -0.9054 C   0  0  0  0  0  0
   -7.8300    2.0517   -0.6029 C   0  0  0  0  0  0
   -8.9006    1.3002   -0.1559 C   0  0  0  0  0  0
   -8.7721   -0.0686   -0.0119 C   0  0  0  0  0  0
   -7.5741   -0.6864   -0.3185 C   0  0  0  0  0  0
   -0.7780   -2.2771    2.0527 H   0  0  0  0  0  0
   -1.0299   -2.6510    0.3308 H   0  0  0  0  0  0
    2.1084   -1.7778    1.5221 H   0  0  0  0  0  0
    1.8566   -2.1518   -0.1998 H   0  0  0  0  0  0
    2.6401    0.1209   -0.8080 H   0  0  0  0  0  0
    6.9514   -1.2545    0.4543 H   0  0  0  0  0  0
    6.5311   -1.6741   -1.2237 H   0  0  0  0  0  0
    2.2389    0.5353    2.0423 H   0  0  0  0  0  0
    3.9058    0.9632    1.5878 H   0  0  0  0  0  0
    1.4202    1.9344    0.1106 H   0  0  0  0  0  0
    1.8745    4.1077    1.2145 H   0  0  0  0  0  0
    1.5212    2.8426    2.4157 H   0  0  0  0  0  0
    3.2009    3.3616    2.1377 H   0  0  0  0  0  0
    4.3753    2.6827   -0.0174 H   0  0  0  0  0  0
    3.4286    1.8699   -1.2868 H   0  0  0  0  0  0
    3.0740    3.5604   -0.8569 H   0  0  0  0  0  0
   -4.6854   -0.0472   -1.8750 H   0  0  0  0  0  0
   -5.3854   -1.6234   -1.4347 H   0  0  0  0  0  0
   -5.7942    2.0217   -1.2546 H   0  0  0  0  0  0
   -7.9304    3.1211   -0.7154 H   0  0  0  0  0  0
   -9.8374    1.7825    0.0812 H   0  0  0  0  0  0
   -9.6084   -0.6558    0.3377 H   0  0  0  0  0  0
   -7.4736   -1.7558   -0.2060 H   0  0  0  0  0  0
  1  2  1  0  0  0
  1 22  2  0  0  0
  1 23  1  0  0  0
  2  3  1  0  0  0
  2  4  1  0  0  0
  4  5  1  0  0  0
  4 31  1  0  0  0
  4 32  1  0  0  0
  5  6  2  0  0  0
  5  7  1  0  0  0
  5  8  1  0  0  0
  8  9  1  0  0  0
  8 33  1  0  0  0
  8 34  1  0  0  0
  9 10  1  0  0  0
  9 18  1  0  0  0
  9 35  1  0  0  0
 10 11  2  0  0  0
 10 12  1  0  0  0
 12 13  1  0  0  0
 12 14  1  0  0  0
 14 15  1  0  0  0
 14 36  1  0  0  0
 14 37  1  0  0  0
 15 16  2  0  0  0
 15 17  1  0  0  0
 18 19  1  0  0  0
 18 38  1  0  0  0
 18 39  1  0  0  0
 19 20  1  0  0  0
 19 21  1  0  0  0
 19 40  1  0  0  0
 20 41  1  0  0  0
 20 42  1  0  0  0
 20 43  1  0  0  0
 21 44  1  0  0  0
 21 45  1  0  0  0
 21 46  1  0  0  0
 23 24  1  0  0  0
 24 25  1  0  0  0
 24 47  1  0  0  0
 24 48  1  0  0  0
 25 26  1  0  0  0
 25 30  2  0  0  0
 26 27  2  0  0  0
 26 49  1  0  0  0
 27 28  1  0  0  0
 27 50  1  0  0  0
 28 29  2  0  0  0
 28 51  1  0  0  0
 29 30  1  0  0  0
 29 52  1  0  0  0
 30 53  1  0  0  0
M  CHG  2   7  -1  17  -1
M  END
>  <Activity>
6.52

>  <set>
1

>  <Min_dist>
999.9

>  <Avg_dist>
999.9

$$$$
ZGPCLLZNCRYS
  Cerius2 12110214583D 1   1.00000                          
 
 65 65  0  0  0  0  0  0  0  0999 V2000
    3.9375    0.7017   -0.8867 C   0  0  0  0  0  0
    3.6929    0.0211   -1.8631 O   0  0  0  0  0  0
    2.9865    1.5045   -0.3694 N   0  0  0  0  0  0
    3.1818    2.0478    0.4101 H   0  0  0  0  0  0
    1.6578    1.5565   -0.9843 C   0  0  0  0  0  0
    0.5835    0.2994   -0.2169 P   0  0  0  0  0  0
    1.1704   -1.0435   -0.4233 O   0  0  0  0  0  0
    0.4565    0.5928    1.3610 O   0  5  0  0  0  0
   -1.0699    0.3640   -0.9821 C   0  0  0  0  0  0
   -2.0162   -0.5753   -0.2318 C   0  0  0  0  0  0
   -3.4415   -0.2487   -0.5962 C   0  0  0  0  0  0
   -3.8157   -0.3644   -1.7440 O   0  0  0  0  0  0
   -4.3004    0.1721    0.3534 N   0  0  0  0  0  0
   -3.9930    0.2952    1.2652 H   0  0  0  0  0  0
   -5.6981    0.4435    0.0086 C   0  0  0  0  0  0
   -6.5121   -0.8123    0.1854 C   0  0  0  0  0  0
   -7.4856   -1.0033   -0.5043 O   0  0  0  0  0  0
   -6.1556   -1.7188    1.1090 O   0  5  0  0  0  0
   -6.2458    1.5395    0.9250 C   0  0  0  0  0  0
   -5.5036    2.8496    0.6534 C   0  0  0  0  0  0
   -5.8116    3.3250   -0.7679 C   0  0  0  0  0  0
   -5.9593    3.9113    1.6563 C   0  0  0  0  0  0
   -1.7099   -2.0236   -0.6187 C   0  0  0  0  0  0
   -2.6538   -2.9631    0.1344 C   0  0  0  0  0  0
   -2.4436   -4.3973   -0.3553 C   0  0  0  0  0  0
   -2.3592   -2.8878    1.6338 C   0  0  0  0  0  0
    5.1569    0.6498   -0.3182 O   0  0  0  0  0  0
    6.1796   -0.2195   -0.8720 C   0  0  0  0  0  0
    7.4415   -0.0925   -0.0580 C   0  0  0  0  0  0
    7.6505   -0.9227    1.0273 C   0  0  0  0  0  0
    8.8080   -0.8061    1.7740 C   0  0  0  0  0  0
    9.7567    0.1404    1.4350 C   0  0  0  0  0  0
    9.5482    0.9701    0.3491 C   0  0  0  0  0  0
    8.3926    0.8506   -0.4001 C   0  0  0  0  0  0
    1.2256    2.5455   -0.8323 H   0  0  0  0  0  0
    1.7439    1.3578   -2.0526 H   0  0  0  0  0  0
   -1.4539    1.3829   -0.9318 H   0  0  0  0  0  0
   -1.0002    0.0531   -2.0245 H   0  0  0  0  0  0
   -1.8776   -0.4490    0.8420 H   0  0  0  0  0  0
   -5.7590    0.7731   -1.0286 H   0  0  0  0  0  0
   -7.3095    1.6775    0.7308 H   0  0  0  0  0  0
   -6.1012    1.2490    1.9656 H   0  0  0  0  0  0
   -4.4308    2.6877    0.7579 H   0  0  0  0  0  0
   -5.2828    4.2583   -0.9614 H   0  0  0  0  0  0
   -5.4869    2.5685   -1.4824 H   0  0  0  0  0  0
   -6.8844    3.4868   -0.8724 H   0  0  0  0  0  0
   -7.0434    4.0147    1.6085 H   0  0  0  0  0  0
   -5.6671    3.6101    2.6623 H   0  0  0  0  0  0
   -5.4923    4.8655    1.4126 H   0  0  0  0  0  0
   -1.8510   -2.1505   -1.6921 H   0  0  0  0  0  0
   -0.6782   -2.2590   -0.3575 H   0  0  0  0  0  0
   -3.6860   -2.6644   -0.0485 H   0  0  0  0  0  0
   -3.1160   -5.0667    0.1812 H   0  0  0  0  0  0
   -2.6535   -4.4510   -1.4235 H   0  0  0  0  0  0
   -1.4114   -4.6960   -0.1724 H   0  0  0  0  0  0
   -1.2983   -3.0701    1.8052 H   0  0  0  0  0  0
   -2.6226   -1.8980    2.0066 H   0  0  0  0  0  0
   -2.9467   -3.6417    2.1579 H   0  0  0  0  0  0
    5.8323   -1.2523   -0.8448 H   0  0  0  0  0  0
    6.3820    0.0688   -1.9035 H   0  0  0  0  0  0
    6.9093   -1.6622    1.2921 H   0  0  0  0  0  0
    8.9710   -1.4543    2.6223 H   0  0  0  0  0  0
   10.6608    0.2320    2.0188 H   0  0  0  0  0  0
   10.2892    1.7098    0.0845 H   0  0  0  0  0  0
    8.2297    1.4987   -1.2485 H   0  0  0  0  0  0
  1  2  2  0  0  0
  1  3  1  0  0  0
  1 27  1  0  0  0
  3  4  1  0  0  0
  3  5  1  0  0  0
  5  6  1  0  0  0
  5 35  1  0  0  0
  5 36  1  0  0  0
  6  7  2  0  0  0
  6  8  1  0  0  0
  6  9  1  0  0  0
  9 10  1  0  0  0
  9 37  1  0  0  0
  9 38  1  0  0  0
 10 11  1  0  0  0
 10 23  1  0  0  0
 10 39  1  0  0  0
 11 12  2  0  0  0
 11 13  1  0  0  0
 13 14  1  0  0  0
 13 15  1  0  0  0
 15 16  1  0  0  0
 15 19  1  0  0  0
 15 40  1  0  0  0
 16 17  2  0  0  0
 16 18  1  0  0  0
 19 20  1  0  0  0
 19 41  1  0  0  0
 19 42  1  0  0  0
 20 21  1  0  0  0
 20 22  1  0  0  0
 20 43  1  0  0  0
 21 44  1  0  0  0
 21 45  1  0  0  0
 21 46  1  0  0  0
 22 47  1  0  0  0
 22 48  1  0  0  0
 22 49  1  0  0  0
 23 24  1  0  0  0
 23 50  1  0  0  0
 23 51  1  0  0  0
 24 25  1  0  0  0
 24 26  1  0  0  0
 24 52  1  0  0  0
 25 53  1  0  0  0
 25 54  1  0  0  0
 25 55  1  0  0  0
 26 56  1  0  0  0
 26 57  1  0  0  0
 26 58  1  0  0  0
 27 28  1  0  0  0
 28 29  1  0  0  0
 28 59  1  0  0  0
 28 60  1  0  0  0
 29 30  1  0  0  0
 29 34  2  0  0  0
 30 31  2  0  0  0
 30 61  1  0  0  0
 31 32  1  0  0  0
 31 62  1  0  0  0
 32 33  2  0  0  0
 32 63  1  0  0  0
 33 34  1  0  0  0
 33 64  1  0  0  0
 34 65  1  0  0  0
M  CHG  2   8  -1  18  -1
M  END
>  <Activity>
6.74

>  <set>
1

>  <Min_dist>
999.9

>  <Avg_dist>
999.9

$$$$
ZGPLA
  Cerius2 12110214583D 1   1.00000                          
 
 55 55  0  0  0  0  0  0  0  0999 V2000
   -3.3871   -0.1525    1.1316 C   0  0  0  0  0  0
   -3.1579   -1.3235    1.3611 O   0  0  0  0  0  0
   -2.4880    0.7904    1.4766 N   0  0  0  0  0  0
   -2.6710    1.7252    1.2934 H   0  0  0  0  0  0
   -1.2343    0.4035    2.1282 C   0  0  0  0  0  0
    0.0375    0.0888    0.8606 P   0  0  0  0  0  0
   -0.4133   -1.0039   -0.0299 O   0  0  0  0  0  0
    0.2733    1.4248   -0.0063 O   0  5  0  0  0  0
    1.4778   -0.3557    1.6092 N   0  0  0  0  0  0
    1.3109   -1.2461    2.0534 H   0  0  0  0  0  0
    2.4541   -0.5948    0.5379 C   0  0  0  0  0  0
    3.6747    0.2577    0.7710 C   0  0  0  0  0  0
    3.9736    0.5936    1.8974 O   0  0  0  0  0  0
    4.4341    0.6470   -0.2721 N   0  0  0  0  0  0
    4.1589    0.4356   -1.1779 H   0  0  0  0  0  0
    5.6752    1.3893   -0.0380 C   0  0  0  0  0  0
    6.6591    1.0824   -1.1375 C   0  0  0  0  0  0
    6.3548    0.3217   -2.0255 O   0  0  0  0  0  0
    7.8735    1.6542   -1.1302 O   0  5  0  0  0  0
    5.3771    2.8899   -0.0246 C   0  0  0  0  0  0
    2.8562   -2.0710    0.5345 C   0  0  0  0  0  0
    3.7865   -2.3435   -0.6492 C   0  0  0  0  0  0
    4.2784   -3.7910   -0.5886 C   0  0  0  0  0  0
    3.0266   -2.1174   -1.9577 C   0  0  0  0  0  0
   -4.5369    0.2026    0.5278 O   0  0  0  0  0  0
   -5.5029   -0.8138    0.1507 C   0  0  0  0  0  0
   -6.6924   -0.1585   -0.5026 C   0  0  0  0  0  0
   -6.7093    0.0361   -1.8710 C   0  0  0  0  0  0
   -7.8004    0.6372   -2.4703 C   0  0  0  0  0  0
   -8.8748    1.0433   -1.7011 C   0  0  0  0  0  0
   -8.8583    0.8479   -0.3327 C   0  0  0  0  0  0
   -7.7691    0.2429    0.2660 C   0  0  0  0  0  0
   -0.9022    1.2083    2.7841 H   0  0  0  0  0  0
   -1.3939   -0.5010    2.7151 H   0  0  0  0  0  0
    2.0092   -0.3372   -0.4233 H   0  0  0  0  0  0
    6.0993    1.0945    0.9218 H   0  0  0  0  0  0
    4.9530    3.1847   -0.9844 H   0  0  0  0  0  0
    4.6655    3.1119    0.7706 H   0  0  0  0  0  0
    6.3005    3.4422    0.1496 H   0  0  0  0  0  0
    3.3723   -2.3092    1.4646 H   0  0  0  0  0  0
    1.9638   -2.6905    0.4453 H   0  0  0  0  0  0
    4.6403   -1.6674   -0.6034 H   0  0  0  0  0  0
    4.9412   -3.9851   -1.4319 H   0  0  0  0  0  0
    4.8198   -3.9521    0.3436 H   0  0  0  0  0  0
    3.4246   -4.4671   -0.6344 H   0  0  0  0  0  0
    2.1290   -2.7358   -1.9681 H   0  0  0  0  0  0
    2.7453   -1.0674   -2.0378 H   0  0  0  0  0  0
    3.6639   -2.3881   -2.7995 H   0  0  0  0  0  0
   -5.0423   -1.5110   -0.5492 H   0  0  0  0  0  0
   -5.8283   -1.3534    1.0401 H   0  0  0  0  0  0
   -5.8699   -0.2812   -2.4720 H   0  0  0  0  0  0
   -7.8133    0.7899   -3.5394 H   0  0  0  0  0  0
   -9.7269    1.5136   -2.1692 H   0  0  0  0  0  0
   -9.6975    1.1655    0.2683 H   0  0  0  0  0  0
   -7.7561    0.0902    1.3351 H   0  0  0  0  0  0
  1  2  2  0  0  0
  1  3  1  0  0  0
  1 25  1  0  0  0
  3  4  1  0  0  0
  3  5  1  0  0  0
  5  6  1  0  0  0
  5 33  1  0  0  0
  5 34  1  0  0  0
  6  7  2  0  0  0
  6  8  1  0  0  0
  6  9  1  0  0  0
  9 10  1  0  0  0
  9 11  1  0  0  0
 11 12  1  0  0  0
 11 21  1  0  0  0
 11 35  1  0  0  0
 12 13  2  0  0  0
 12 14  1  0  0  0
 14 15  1  0  0  0
 14 16  1  0  0  0
 16 17  1  0  0  0
 16 20  1  0  0  0
 16 36  1  0  0  0
 17 18  2  0  0  0
 17 19  1  0  0  0
 20 37  1  0  0  0
 20 38  1  0  0  0
 20 39  1  0  0  0
 21 22  1  0  0  0
 21 40  1  0  0  0
 21 41  1  0  0  0
 22 23  1  0  0  0
 22 24  1  0  0  0
 22 42  1  0  0  0
 23 43  1  0  0  0
 23 44  1  0  0  0
 23 45  1  0  0  0
 24 46  1  0  0  0
 24 47  1  0  0  0
 24 48  1  0  0  0
 25 26  1  0  0  0
 26 27  1  0  0  0
 26 49  1  0  0  0
 26 50  1  0  0  0
 27 28  1  0  0  0
 27 32  2  0  0  0
 28 29  2  0  0  0
 28 51  1  0  0  0
 29 30  1  0  0  0
 29 52  1  0  0  0
 30 31  2  0  0  0
 30 53  1  0  0  0
 31 32  1  0  0  0
 31 54  1  0  0  0
 32 55  1  0  0  0
M  CHG  2   8  -1  19  -1
M  END
>  <Activity>
7.78

>  <set>
1

>  <Min_dist>
999.9

>  <Avg_dist>
999.9

$$$$
ZGPLF
  Cerius2 12110214583D 1   1.00000                          
 
 65 66  0  0  0  0  0  0  0  0999 V2000
   -3.6324   -1.1235   -0.7369 C   0  0  0  0  0  0
   -3.0433   -2.1500   -0.0922 N   0  0  0  0  0  0
   -3.5060   -2.5962    0.6342 H   0  0  0  0  0  0
   -1.7039   -2.5919   -0.4885 C   0  0  0  0  0  0
   -0.4531   -1.6726    0.4674 P   0  0  0  0  0  0
   -0.6584   -1.9397    1.9752 O   0  0  0  0  0  0
    1.0856   -2.1802    0.0121 N   0  0  0  0  0  0
    1.1827   -1.9669   -0.9693 H   0  0  0  0  0  0
    2.0414   -1.3238    0.7269 C   0  0  0  0  0  0
    2.8179   -0.4992   -0.2672 C   0  0  0  0  0  0
    2.5969   -0.6137   -1.4542 O   0  0  0  0  0  0
    3.7580    0.3655    0.1629 N   0  0  0  0  0  0
    3.9348    0.4571    1.1123 H   0  0  0  0  0  0
    4.5129    1.1671   -0.8034 C   0  0  0  0  0  0
    5.7525    0.4174   -1.2185 C   0  0  0  0  0  0
    6.3129   -0.3885   -0.4044 O   0  0  0  0  0  0
    6.2411    0.5889   -2.3840 O   0  5  0  0  0  0
    4.9123    2.4972   -0.1612 C   0  0  0  0  0  0
    3.6727    3.2469    0.2539 C   0  0  0  0  0  0
    3.1431    3.0610    1.5172 C   0  0  0  0  0  0
    2.0060    3.7487    1.8980 C   0  0  0  0  0  0
    1.3988    4.6226    1.0156 C   0  0  0  0  0  0
    1.9289    4.8091   -0.2473 C   0  0  0  0  0  0
    3.0685    4.1247   -0.6266 C   0  0  0  0  0  0
    3.0072   -2.1972    1.5300 C   0  0  0  0  0  0
    3.8708   -3.0182    0.5702 C   0  0  0  0  0  0
    4.9539   -3.7543    1.3614 C   0  0  0  0  0  0
    2.9935   -4.0357   -0.1618 C   0  0  0  0  0  0
   -0.6002   -0.1603    0.1876 O   0  5  0  0  0  0
   -3.0527   -0.5646   -1.6468 O   0  0  0  0  0  0
   -4.8656   -0.7210   -0.3763 O   0  0  0  0  0  0
   -5.5004    0.3849   -1.0709 C   0  0  0  0  0  0
   -6.8640    0.6332   -0.4794 C   0  0  0  0  0  0
   -7.0098    1.5146    0.5755 C   0  0  0  0  0  0
   -8.2607    1.7423    1.1181 C   0  0  0  0  0  0
   -9.3658    1.0890    0.6054 C   0  0  0  0  0  0
   -9.2201    0.2083   -0.4501 C   0  0  0  0  0  0
   -7.9699   -0.0161   -0.9955 C   0  0  0  0  0  0
   -1.6001   -3.6588   -0.2911 H   0  0  0  0  0  0
   -1.5591   -2.4034   -1.5523 H   0  0  0  0  0  0
    1.5008   -0.6625    1.4040 H   0  0  0  0  0  0
    3.8933    1.3583   -1.6796 H   0  0  0  0  0  0
    5.5318    2.3060    0.7150 H   0  0  0  0  0  0
    5.4740    3.0936   -0.8802 H   0  0  0  0  0  0
    3.6175    2.3783    2.2065 H   0  0  0  0  0  0
    1.5918    3.6030    2.8847 H   0  0  0  0  0  0
    0.5100    5.1593    1.3129 H   0  0  0  0  0  0
    1.4543    5.4916   -0.9368 H   0  0  0  0  0  0
    3.4827    4.2704   -1.6133 H   0  0  0  0  0  0
    3.6476   -1.5624    2.1424 H   0  0  0  0  0  0
    2.4398   -2.8695    2.1736 H   0  0  0  0  0  0
    4.3395   -2.3537   -0.1557 H   0  0  0  0  0  0
    5.5691   -4.3392    0.6776 H   0  0  0  0  0  0
    5.5789   -3.0294    1.8829 H   0  0  0  0  0  0
    4.4852   -4.4188    2.0873 H   0  0  0  0  0  0
    2.4250   -4.6152    0.5656 H   0  0  0  0  0  0
    2.3062   -3.5116   -0.8259 H   0  0  0  0  0  0
    3.6243   -4.7051   -0.7467 H   0  0  0  0  0  0
   -4.8889    1.2807   -0.9629 H   0  0  0  0  0  0
   -5.6020    0.1396   -2.1281 H   0  0  0  0  0  0
   -6.1464    2.0250    0.9760 H   0  0  0  0  0  0
   -8.3745    2.4303    1.9427 H   0  0  0  0  0  0
  -10.3430    1.2664    1.0298 H   0  0  0  0  0  0
  -10.0835   -0.3023   -0.8504 H   0  0  0  0  0  0
   -7.8561   -0.7041   -1.8201 H   0  0  0  0  0  0
  1  2  1  0  0  0
  1 30  2  0  0  0
  1 31  1  0  0  0
  2  3  1  0  0  0
  2  4  1  0  0  0
  4  5  1  0  0  0
  4 39  1  0  0  0
  4 40  1  0  0  0
  5  6  2  0  0  0
  5  7  1  0  0  0
  5 29  1  0  0  0
  7  8  1  0  0  0
  7  9  1  0  0  0
  9 10  1  0  0  0
  9 25  1  0  0  0
  9 41  1  0  0  0
 10 11  2  0  0  0
 10 12  1  0  0  0
 12 13  1  0  0  0
 12 14  1  0  0  0
 14 15  1  0  0  0
 14 18  1  0  0  0
 14 42  1  0  0  0
 15 16  2  0  0  0
 15 17  1  0  0  0
 18 19  1  0  0  0
 18 43  1  0  0  0
 18 44  1  0  0  0
 19 20  1  0  0  0
 19 24  2  0  0  0
 20 21  2  0  0  0
 20 45  1  0  0  0
 21 22  1  0  0  0
 21 46  1  0  0  0
 22 23  2  0  0  0
 22 47  1  0  0  0
 23 24  1  0  0  0
 23 48  1  0  0  0
 24 49  1  0  0  0
 25 26  1  0  0  0
 25 50  1  0  0  0
 25 51  1  0  0  0
 26 27  1  0  0  0
 26 28  1  0  0  0
 26 52  1  0  0  0
 27 53  1  0  0  0
 27 54  1  0  0  0
 27 55  1  0  0  0
 28 56  1  0  0  0
 28 57  1  0  0  0
 28 58  1  0  0  0
 31 32  1  0  0  0
 32 33  1  0  0  0
 32 59  1  0  0  0
 32 60  1  0  0  0
 33 34  1  0  0  0
 33 38  2  0  0  0
 34 35  2  0  0  0
 34 61  1  0  0  0
 35 36  1  0  0  0
 35 62  1  0  0  0
 36 37  2  0  0  0
 36 63  1  0  0  0
 37 38  1  0  0  0
 37 64  1  0  0  0
 38 65  1  0  0  0
M  CHG  2  17  -1  29  -1
M  END
>  <Activity>
7.12

>  <set>
1

>  <Min_dist>
999.9

>  <Avg_dist>
999.9

$$$$
ZGPLG
  Cerius2 12110214583D 1   1.00000                          
 
 52 52  0  0  0  0  0  0  0  0999 V2000
   -2.9535   -0.6380   -0.7563 C   0  0  0  0  0  0
   -2.2779   -1.6884   -0.2496 N   0  0  0  0  0  0
   -2.6862   -2.2444    0.4323 H   0  0  0  0  0  0
   -0.9268   -1.9904   -0.7288 C   0  0  0  0  0  0
    0.2933   -1.1022    0.2939 P   0  0  0  0  0  0
    0.1564   -1.5517    1.7657 O   0  0  0  0  0  0
    1.8454   -1.4491   -0.2566 N   0  0  0  0  0  0
    1.8956   -1.1199   -1.2090 H   0  0  0  0  0  0
    2.7673   -0.6160    0.5271 C   0  0  0  0  0  0
    3.4551    0.3668   -0.3851 C   0  0  0  0  0  0
    3.2022    0.3727   -1.5713 O   0  0  0  0  0  0
    4.3512    1.2393    0.1172 N   0  0  0  0  0  0
    4.5534    1.2346    1.0659 H   0  0  0  0  0  0
    5.0198    2.1947   -0.7696 C   0  0  0  0  0  0
    5.9654    3.0493    0.0343 C   0  0  0  0  0  0
    6.0712    2.8763    1.2370 O   0  0  0  0  0  0
    6.6251    3.9140   -0.5177 O   0  5  0  0  0  0
    3.8140   -1.5069    1.1989 C   0  0  0  0  0  0
    4.6966   -2.1527    0.1289 C   0  0  0  0  0  0
    5.8508   -2.8984    0.8017 C   0  0  0  0  0  0
    3.8633   -3.1379   -0.6931 C   0  0  0  0  0  0
    0.0394    0.4185    0.1941 O   0  5  0  0  0  0
   -2.4420    0.0585   -1.6105 O   0  0  0  0  0  0
   -4.1973   -0.3638   -0.3199 O   0  0  0  0  0  0
   -4.9252    0.7678   -0.8657 C   0  0  0  0  0  0
   -6.2814    0.8542   -0.2145 C   0  0  0  0  0  0
   -6.4485    1.5984    0.9384 C   0  0  0  0  0  0
   -7.6925    1.6776    1.5358 C   0  0  0  0  0  0
   -8.7697    1.0128    0.9801 C   0  0  0  0  0  0
   -8.6028    0.2693   -0.1732 C   0  0  0  0  0  0
   -7.3597    0.1937   -0.7731 C   0  0  0  0  0  0
   -0.7476   -3.0632   -0.6583 H   0  0  0  0  0  0
   -0.8302   -1.6733   -1.7671 H   0  0  0  0  0  0
    2.2081   -0.0739    1.2897 H   0  0  0  0  0  0
    5.5789    1.6526   -1.5322 H   0  0  0  0  0  0
    4.2740    2.8294   -1.2482 H   0  0  0  0  0  0
    4.4319   -0.9035    1.8639 H   0  0  0  0  0  0
    3.3131   -2.2851    1.7749 H   0  0  0  0  0  0
    5.0968   -1.3796   -0.5271 H   0  0  0  0  0  0
    6.4796   -3.3584    0.0394 H   0  0  0  0  0  0
    6.4445   -2.1965    1.3874 H   0  0  0  0  0  0
    5.4506   -3.6715    1.4577 H   0  0  0  0  0  0
    3.3582   -3.8338   -0.0233 H   0  0  0  0  0  0
    3.1216   -2.5899   -1.2743 H   0  0  0  0  0  0
    4.5163   -3.6919   -1.3675 H   0  0  0  0  0  0
   -4.3696    1.6852   -0.6712 H   0  0  0  0  0  0
   -5.0462    0.6375   -1.9411 H   0  0  0  0  0  0
   -5.6069    2.1178    1.3725 H   0  0  0  0  0  0
   -7.8229    2.2585    2.4369 H   0  0  0  0  0  0
   -9.7415    1.0741    1.4473 H   0  0  0  0  0  0
   -9.4443   -0.2503   -0.6072 H   0  0  0  0  0  0
   -7.2294   -0.3872   -1.6741 H   0  0  0  0  0  0
  1  2  1  0  0  0
  1 23  2  0  0  0
  1 24  1  0  0  0
  2  3  1  0  0  0
  2  4  1  0  0  0
  4  5  1  0  0  0
  4 32  1  0  0  0
  4 33  1  0  0  0
  5  6  2  0  0  0
  5  7  1  0  0  0
  5 22  1  0  0  0
  7  8  1  0  0  0
  7  9  1  0  0  0
  9 10  1  0  0  0
  9 18  1  0  0  0
  9 34  1  0  0  0
 10 11  2  0  0  0
 10 12  1  0  0  0
 12 13  1  0  0  0
 12 14  1  0  0  0
 14 15  1  0  0  0
 14 35  1  0  0  0
 14 36  1  0  0  0
 15 16  2  0  0  0
 15 17  1  0  0  0
 18 19  1  0  0  0
 18 37  1  0  0  0
 18 38  1  0  0  0
 19 20  1  0  0  0
 19 21  1  0  0  0
 19 39  1  0  0  0
 20 40  1  0  0  0
 20 41  1  0  0  0
 20 42  1  0  0  0
 21 43  1  0  0  0
 21 44  1  0  0  0
 21 45  1  0  0  0
 24 25  1  0  0  0
 25 26  1  0  0  0
 25 46  1  0  0  0
 25 47  1  0  0  0
 26 27  1  0  0  0
 26 31  2  0  0  0
 27 28  2  0  0  0
 27 48  1  0  0  0
 28 29  1  0  0  0
 28 49  1  0  0  0
 29 30  2  0  0  0
 29 50  1  0  0  0
 30 31  1  0  0  0
 30 51  1  0  0  0
 31 52  1  0  0  0
M  CHG  2  17  -1  22  -1
M  END
>  <Activity>
6.57

>  <set>
1

>  <Min_dist>
999.9

>  <Avg_dist>
999.9

$$$$
ZGPLLZNCRYS
  Cerius2 12110214583D 1   1.00000                          
 
 64 64  0  0  0  0  0  0  0  0999 V2000
   -3.8544   -0.5809    1.0506 C   0  0  0  0  0  0
   -3.6541   -1.7674    0.8815 O   0  0  0  0  0  0
   -2.9324    0.1754    1.6787 N   0  0  0  0  0  0
   -3.0923    1.1225    1.8137 H   0  0  0  0  0  0
   -1.6887   -0.4331    2.1575 C   0  0  0  0  0  0
   -0.4247   -0.3440    0.8469 P   0  0  0  0  0  0
   -0.9021   -1.0733   -0.3492 O   0  0  0  0  0  0
   -0.1559    1.1966    0.4644 O   0  5  0  0  0  0
    1.0040   -1.0430    1.3970 N   0  0  0  0  0  0
    0.7980   -2.0122    1.5876 H   0  0  0  0  0  0
    1.9444   -1.0254    0.2686 C   0  0  0  0  0  0
    3.2155   -0.3311    0.6848 C   0  0  0  0  0  0
    3.5525   -0.3302    1.8498 O   0  0  0  0  0  0
    3.9778    0.2889   -0.2377 N   0  0  0  0  0  0
    3.6788    0.3400   -1.1591 H   0  0  0  0  0  0
    5.2580    0.8857    0.1511 C   0  0  0  0  0  0
    6.3547   -0.1372    0.0029 C   0  0  0  0  0  0
    7.3233   -0.0931    0.7237 O   0  0  0  0  0  0
    6.2554   -1.0973   -0.9299 O   0  5  0  0  0  0
    5.5554    2.0864   -0.7494 C   0  0  0  0  0  0
    4.5112    3.1778   -0.5056 C   0  0  0  0  0  0
    4.6561    3.7129    0.9204 C   0  0  0  0  0  0
    4.7236    4.3187   -1.5026 C   0  0  0  0  0  0
    2.2622   -2.4614   -0.1529 C   0  0  0  0  0  0
    3.1386   -2.4428   -1.4069 C   0  0  0  0  0  0
    3.5441   -3.8734   -1.7670 C   0  0  0  0  0  0
    2.3547   -1.8274   -2.5679 C   0  0  0  0  0  0
   -4.9949   -0.0206    0.6056 O   0  0  0  0  0  0
   -5.9855   -0.8341   -0.0764 C   0  0  0  0  0  0
   -7.1583    0.0268   -0.4693 C   0  0  0  0  0  0
   -7.1700    0.6599   -1.6981 C   0  0  0  0  0  0
   -8.2458    1.4497   -2.0584 C   0  0  0  0  0  0
   -9.3101    1.6059   -1.1902 C   0  0  0  0  0  0
   -9.2988    0.9720    0.0382 C   0  0  0  0  0  0
   -8.2250    0.1788    0.3968 C   0  0  0  0  0  0
   -1.3372    0.1040    3.0385 H   0  0  0  0  0  0
   -1.8707   -1.4761    2.4165 H   0  0  0  0  0  0
    1.4963   -0.4915   -0.5694 H   0  0  0  0  0  0
    5.2054    1.2142    1.1891 H   0  0  0  0  0  0
    6.5476    2.4753   -0.5206 H   0  0  0  0  0  0
    5.5189    1.7754   -1.7935 H   0  0  0  0  0  0
    3.5126    2.7612   -0.6376 H   0  0  0  0  0  0
    3.9122    4.4904    1.0941 H   0  0  0  0  0  0
    4.5047    2.9000    1.6307 H   0  0  0  0  0  0
    5.6547    4.1295    1.0524 H   0  0  0  0  0  0
    5.7499    4.6785   -1.4296 H   0  0  0  0  0  0
    4.5363    3.9573   -2.5137 H   0  0  0  0  0  0
    4.0360    5.1332   -1.2746 H   0  0  0  0  0  0
    2.7925   -2.9679    0.6535 H   0  0  0  0  0  0
    1.3338   -2.9914   -0.3663 H   0  0  0  0  0  0
    4.0324   -1.8487   -1.2167 H   0  0  0  0  0  0
    4.1685   -3.8601   -2.6604 H   0  0  0  0  0  0
    4.1026   -4.3119   -0.9400 H   0  0  0  0  0  0
    2.6503   -4.4675   -1.9573 H   0  0  0  0  0  0
    1.4102   -2.3576   -2.6901 H   0  0  0  0  0  0
    2.1567   -0.7766   -2.3560 H   0  0  0  0  0  0
    2.9387   -1.9094   -3.4845 H   0  0  0  0  0  0
   -5.5420   -1.2737   -0.9698 H   0  0  0  0  0  0
   -6.3243   -1.6280    0.5892 H   0  0  0  0  0  0
   -6.3385    0.5379   -2.3764 H   0  0  0  0  0  0
   -8.2547    1.9449   -3.0182 H   0  0  0  0  0  0
  -10.1503    2.2235   -1.4715 H   0  0  0  0  0  0
  -10.1301    1.0944    0.7166 H   0  0  0  0  0  0
   -8.2161   -0.3164    1.3565 H   0  0  0  0  0  0
  1  2  2  0  0  0
  1  3  1  0  0  0
  1 28  1  0  0  0
  3  4  1  0  0  0
  3  5  1  0  0  0
  5  6  1  0  0  0
  5 36  1  0  0  0
  5 37  1  0  0  0
  6  7  2  0  0  0
  6  8  1  0  0  0
  6  9  1  0  0  0
  9 10  1  0  0  0
  9 11  1  0  0  0
 11 12  1  0  0  0
 11 24  1  0  0  0
 11 38  1  0  0  0
 12 13  2  0  0  0
 12 14  1  0  0  0
 14 15  1  0  0  0
 14 16  1  0  0  0
 16 17  1  0  0  0
 16 20  1  0  0  0
 16 39  1  0  0  0
 17 18  2  0  0  0
 17 19  1  0  0  0
 20 21  1  0  0  0
 20 40  1  0  0  0
 20 41  1  0  0  0
 21 22  1  0  0  0
 21 23  1  0  0  0
 21 42  1  0  0  0
 22 43  1  0  0  0
 22 44  1  0  0  0
 22 45  1  0  0  0
 23 46  1  0  0  0
 23 47  1  0  0  0
 23 48  1  0  0  0
 24 25  1  0  0  0
 24 49  1  0  0  0
 24 50  1  0  0  0
 25 26  1  0  0  0
 25 27  1  0  0  0
 25 51  1  0  0  0
 26 52  1  0  0  0
 26 53  1  0  0  0
 26 54  1  0  0  0
 27 55  1  0  0  0
 27 56  1  0  0  0
 27 57  1  0  0  0
 28 29  1  0  0  0
 29 30  1  0  0  0
 29 58  1  0  0  0
 29 59  1  0  0  0
 30 31  1  0  0  0
 30 35  2  0  0  0
 31 32  2  0  0  0
 31 60  1  0  0  0
 32 33  1  0  0  0
 32 61  1  0  0  0
 33 34  2  0  0  0
 33 62  1  0  0  0
 34 35  1  0  0  0
 34 63  1  0  0  0
 35 64  1  0  0  0
M  CHG  2   8  -1  19  -1
M  END
>  <Activity>
8.04

>  <set>
1

>  <Min_dist>
999.9

>  <Avg_dist>
999.9

$$$$
ZGPOLA
  Cerius2 12110214583D 1   1.00000                          
 
 54 54  0  0  0  0  0  0  0  0999 V2000
   -3.3692    0.1967    1.1182 C   0  0  0  0  0  0
   -3.0990   -0.8574    1.6589 O   0  0  0  0  0  0
   -2.5028    1.2272    1.1801 N   0  0  0  0  0  0
   -2.7184    2.0687    0.7484 H   0  0  0  0  0  0
   -1.2354    1.0765    1.8992 C   0  0  0  0  0  0
    0.0446    0.4666    0.7534 P   0  0  0  0  0  0
   -0.3694   -0.8436    0.2034 O   0  0  0  0  0  0
    0.2326    1.5188   -0.4506 O   0  5  0  0  0  0
    1.4375    0.3009    1.5437 O   0  0  0  0  0  0
    2.3704   -0.2666    0.6219 C   0  0  0  0  0  0
    3.5943    0.6091    0.5428 C   0  0  0  0  0  0
    3.7877    1.4587    1.3864 O   0  0  0  0  0  0
    4.4741    0.4481   -0.4655 N   0  0  0  0  0  0
    4.2827   -0.1786   -1.1807 H   0  0  0  0  0  0
    5.7194    1.2195   -0.4813 C   0  0  0  0  0  0
    6.7942    0.4243   -1.1767 C   0  0  0  0  0  0
    6.5454   -0.6741   -1.6142 O   0  0  0  0  0  0
    8.0278    0.9363   -1.3100 O   0  5  0  0  0  0
    5.4946    2.5356   -1.2285 C   0  0  0  0  0  0
    2.7728   -1.6636    1.0987 C   0  0  0  0  0  0
    3.6524   -2.3304    0.0392 C   0  0  0  0  0  0
    4.1447   -3.6815    0.5617 C   0  0  0  0  0  0
    2.8386   -2.5435   -1.2388 C   0  0  0  0  0  0
   -4.5315    0.3334    0.4526 O   0  0  0  0  0  0
   -5.4622   -0.7787    0.3808 C   0  0  0  0  0  0
   -6.6747   -0.3686   -0.4145 C   0  0  0  0  0  0
   -6.7004   -0.5595   -1.7834 C   0  0  0  0  0  0
   -7.8127   -0.1833   -2.5130 C   0  0  0  0  0  0
   -8.8993    0.3836   -1.8736 C   0  0  0  0  0  0
   -8.8740    0.5737   -0.5046 C   0  0  0  0  0  0
   -7.7635    0.1935    0.2255 C   0  0  0  0  0  0
   -0.9305    2.0415    2.3042 H   0  0  0  0  0  0
   -1.3626    0.3642    2.7143 H   0  0  0  0  0  0
    1.9101   -0.3376   -0.3635 H   0  0  0  0  0  0
    6.0287    1.4311    0.5423 H   0  0  0  0  0  0
    5.1853    2.3240   -2.2520 H   0  0  0  0  0  0
    4.7172    3.1108   -0.7255 H   0  0  0  0  0  0
    6.4211    3.1096   -1.2402 H   0  0  0  0  0  0
    3.3279   -1.5827    2.0333 H   0  0  0  0  0  0
    1.8778   -2.2648    1.2586 H   0  0  0  0  0  0
    4.5082   -1.6909   -0.1775 H   0  0  0  0  0  0
    4.7713   -4.1565   -0.1932 H   0  0  0  0  0  0
    4.7245   -3.5296    1.4721 H   0  0  0  0  0  0
    3.2889   -4.3209    0.7783 H   0  0  0  0  0  0
    1.9294   -3.0965   -1.0025 H   0  0  0  0  0  0
    2.5748   -1.5766   -1.6671 H   0  0  0  0  0  0
    3.4317   -3.1094   -1.9571 H   0  0  0  0  0  0
   -4.9787   -1.6263   -0.1049 H   0  0  0  0  0  0
   -5.7673   -1.0627    1.3880 H   0  0  0  0  0  0
   -5.8515   -1.0024   -2.2829 H   0  0  0  0  0  0
   -7.8325   -0.3318   -3.5825 H   0  0  0  0  0  0
   -9.7680    0.6782   -2.4437 H   0  0  0  0  0  0
   -9.7228    1.0169   -0.0052 H   0  0  0  0  0  0
   -7.7436    0.3420    1.2951 H   0  0  0  0  0  0
  1  2  2  0  0  0
  1  3  1  0  0  0
  1 24  1  0  0  0
  3  4  1  0  0  0
  3  5  1  0  0  0
  5  6  1  0  0  0
  5 32  1  0  0  0
  5 33  1  0  0  0
  6  7  2  0  0  0
  6  8  1  0  0  0
  6  9  1  0  0  0
  9 10  1  0  0  0
 10 11  1  0  0  0
 10 20  1  0  0  0
 10 34  1  0  0  0
 11 12  2  0  0  0
 11 13  1  0  0  0
 13 14  1  0  0  0
 13 15  1  0  0  0
 15 16  1  0  0  0
 15 19  1  0  0  0
 15 35  1  0  0  0
 16 17  2  0  0  0
 16 18  1  0  0  0
 19 36  1  0  0  0
 19 37  1  0  0  0
 19 38  1  0  0  0
 20 21  1  0  0  0
 20 39  1  0  0  0
 20 40  1  0  0  0
 21 22  1  0  0  0
 21 23  1  0  0  0
 21 41  1  0  0  0
 22 42  1  0  0  0
 22 43  1  0  0  0
 22 44  1  0  0  0
 23 45  1  0  0  0
 23 46  1  0  0  0
 23 47  1  0  0  0
 24 25  1  0  0  0
 25 26  1  0  0  0
 25 48  1  0  0  0
 25 49  1  0  0  0
 26 27  1  0  0  0
 26 31  2  0  0  0
 27 28  2  0  0  0
 27 50  1  0  0  0
 28 29  1  0  0  0
 28 51  1  0  0  0
 29 30  2  0  0  0
 29 52  1  0  0  0
 30 31  1  0  0  0
 30 53  1  0  0  0
 31 54  1  0  0  0
M  CHG  2   8  -1  18  -1
M  END
>  <Activity>
4.89

>  <set>
1

>  <Min_dist>
999.9

>  <Avg_dist>
999.9

$$$$
ZGPOLF
  Cerius2 12110214583D 1   1.00000                          
 
 64 65  0  0  0  0  0  0  0  0999 V2000
   -4.0868    0.5912   -1.0724 C   0  0  0  0  0  0
   -3.0723    0.0330   -1.8604 N   0  0  0  0  0  0
   -1.8802    0.8203   -2.1853 C   0  0  0  0  0  0
   -0.6104    0.5571   -0.9040 P   0  0  0  0  0  0
   -1.1401    0.9834    0.4105 O   0  0  0  0  0  0
   -0.2227   -1.0045   -0.8455 O   0  5  0  0  0  0
    0.6996    1.4223   -1.2610 O   0  0  0  0  0  0
    1.6123    1.2575   -0.1738 C   0  0  0  0  0  0
    2.9357    0.7640   -0.6994 C   0  0  0  0  0  0
    3.1666    0.7988   -1.8895 O   0  0  0  0  0  0
    3.8627    0.2841    0.1532 N   0  0  0  0  0  0
    3.6524    0.1897    1.0954 H   0  0  0  0  0  0
    5.1879   -0.0948   -0.3432 C   0  0  0  0  0  0
    6.1087    1.0963   -0.2768 C   0  0  0  0  0  0
    5.9374    1.9854    0.6212 O   0  0  0  0  0  0
    7.0592    1.2151   -1.1186 O   0  5  0  0  0  0
    5.7522   -1.2245    0.5208 C   0  0  0  0  0  0
    4.8315   -2.4156    0.4544 C   0  0  0  0  0  0
    5.0172   -3.3794   -0.5190 C   0  0  0  0  0  0
    4.1725   -4.4719   -0.5799 C   0  0  0  0  0  0
    3.1424   -4.6010    0.3329 C   0  0  0  0  0  0
    2.9573   -3.6377    1.3069 C   0  0  0  0  0  0
    3.8046   -2.5473    1.3705 C   0  0  0  0  0  0
    1.8124    2.6001    0.5320 C   0  0  0  0  0  0
    2.6670    2.3954    1.7845 C   0  0  0  0  0  0
    2.9867    3.7539    2.4114 C   0  0  0  0  0  0
    1.8985    1.5372    2.7915 C   0  0  0  0  0  0
   -3.9653    1.8649   -0.6084 O   0  0  0  0  0  0
   -5.1969   -0.1383   -0.7753 O   0  0  0  0  0  0
   -6.0338    0.6930    0.0312 C   0  0  0  0  0  0
   -7.2872   -0.0598    0.3966 C   0  0  0  0  0  0
   -7.3249   -0.8207    1.5500 C   0  0  0  0  0  0
   -8.4746   -1.5113    1.8852 C   0  0  0  0  0  0
   -9.5866   -1.4405    1.0671 C   0  0  0  0  0  0
   -9.5492   -0.6788   -0.0858 C   0  0  0  0  0  0
   -8.4009    0.0152   -0.4187 C   0  0  0  0  0  0
   -3.1589   -0.8747   -2.1911 H   0  0  0  0  0  0
   -1.4901    0.5063   -3.1534 H   0  0  0  0  0  0
   -2.1427    1.8775   -2.2249 H   0  0  0  0  0  0
    1.2087    0.5321    0.5326 H   0  0  0  0  0  0
    5.1059   -0.4336   -1.3759 H   0  0  0  0  0  0
    6.7383   -1.5064    0.1515 H   0  0  0  0  0  0
    5.8342   -0.8857    1.5536 H   0  0  0  0  0  0
    5.8219   -3.2786   -1.2321 H   0  0  0  0  0  0
    4.3172   -5.2246   -1.3409 H   0  0  0  0  0  0
    2.4821   -5.4542    0.2849 H   0  0  0  0  0  0
    2.1523   -3.7383    2.0198 H   0  0  0  0  0  0
    3.6600   -1.7947    2.1314 H   0  0  0  0  0  0
    2.3157    3.2934   -0.1419 H   0  0  0  0  0  0
    0.8429    3.0091    0.8165 H   0  0  0  0  0  0
    3.5954    1.8930    1.5129 H   0  0  0  0  0  0
    3.5955    3.6081    3.3037 H   0  0  0  0  0  0
    3.5342    4.3653    1.6940 H   0  0  0  0  0  0
    2.0583    4.2563    2.6831 H   0  0  0  0  0  0
    0.9266    1.9899    2.9876 H   0  0  0  0  0  0
    1.7576    0.5365    2.3832 H   0  0  0  0  0  0
    2.4641    1.4740    3.7212 H   0  0  0  0  0  0
   -5.5005    0.9733    0.9396 H   0  0  0  0  0  0
   -6.2990    1.5914   -0.5262 H   0  0  0  0  0  0
   -6.4561   -0.8760    2.1892 H   0  0  0  0  0  0
   -8.5039   -2.1064    2.7860 H   0  0  0  0  0  0
  -10.4846   -1.9805    1.3286 H   0  0  0  0  0  0
  -10.4179   -0.6237   -0.7252 H   0  0  0  0  0  0
   -8.3716    0.6103   -1.3195 H   0  0  0  0  0  0
  1  2  1  0  0  0
  1 28  2  0  0  0
  1 29  1  0  0  0
  2  3  1  0  0  0
  2 37  1  0  0  0
  3  4  1  0  0  0
  3 38  1  0  0  0
  3 39  1  0  0  0
  4  5  2  0  0  0
  4  6  1  0  0  0
  4  7  1  0  0  0
  7  8  1  0  0  0
  8  9  1  0  0  0
  8 24  1  0  0  0
  8 40  1  0  0  0
  9 10  2  0  0  0
  9 11  1  0  0  0
 11 12  1  0  0  0
 11 13  1  0  0  0
 13 14  1  0  0  0
 13 17  1  0  0  0
 13 41  1  0  0  0
 14 15  2  0  0  0
 14 16  1  0  0  0
 17 18  1  0  0  0
 17 42  1  0  0  0
 17 43  1  0  0  0
 18 19  1  0  0  0
 18 23  2  0  0  0
 19 20  2  0  0  0
 19 44  1  0  0  0
 20 21  1  0  0  0
 20 45  1  0  0  0
 21 22  2  0  0  0
 21 46  1  0  0  0
 22 23  1  0  0  0
 22 47  1  0  0  0
 23 48  1  0  0  0
 24 25  1  0  0  0
 24 49  1  0  0  0
 24 50  1  0  0  0
 25 26  1  0  0  0
 25 27  1  0  0  0
 25 51  1  0  0  0
 26 52  1  0  0  0
 26 53  1  0  0  0
 26 54  1  0  0  0
 27 55  1  0  0  0
 27 56  1  0  0  0
 27 57  1  0  0  0
 29 30  1  0  0  0
 30 31  1  0  0  0
 30 58  1  0  0  0
 30 59  1  0  0  0
 31 32  1  0  0  0
 31 36  2  0  0  0
 32 33  2  0  0  0
 32 60  1  0  0  0
 33 34  1  0  0  0
 33 61  1  0  0  0
 34 35  2  0  0  0
 34 62  1  0  0  0
 35 36  1  0  0  0
 35 63  1  0  0  0
 36 64  1  0  0  0
M  CHG  2   6  -1  16  -1
M  END
>  <Activity>
4.27

>  <set>
1

>  <Min_dist>
999.9

>  <Avg_dist>
999.9

$$$$
ZGPOLLZNCRYS
  Cerius2 12110214583D 1   1.00000                          
 
 63 63  0  0  0  0  0  0  0  0999 V2000
   -3.8623   -0.6940    0.9707 C   0  0  0  0  0  0
   -3.6431   -1.8416    0.6367 O   0  0  0  0  0  0
   -2.9539   -0.0203    1.7037 N   0  0  0  0  0  0
   -3.1289    0.8958    1.9703 H   0  0  0  0  0  0
   -1.7022   -0.6715    2.0979 C   0  0  0  0  0  0
   -0.4362   -0.3793    0.8191 P   0  0  0  0  0  0
   -0.8990   -0.9394   -0.4703 O   0  0  0  0  0  0
   -0.1904    1.2038    0.6593 O   0  5  0  0  0  0
    0.9393   -1.0950    1.2523 O   0  0  0  0  0  0
    1.8549   -0.9201    0.1691 C   0  0  0  0  0  0
    3.1174   -0.2735    0.6780 C   0  0  0  0  0  0
    3.3275   -0.2092    1.8708 O   0  0  0  0  0  0
    4.0131    0.2332   -0.1923 N   0  0  0  0  0  0
    3.8143    0.2440   -1.1416 H   0  0  0  0  0  0
    5.2870    0.7675    0.2955 C   0  0  0  0  0  0
    6.3156   -0.3335    0.3240 C   0  0  0  0  0  0
    7.2062   -0.3072    1.1401 O   0  0  0  0  0  0
    6.2423   -1.3434   -0.5571 O   0  5  0  0  0  0
    5.7615    1.8847   -0.6360 C   0  0  0  0  0  0
    4.7794    3.0560   -0.5693 C   0  0  0  0  0  0
    4.8212    3.6776    0.8282 C   0  0  0  0  0  0
    5.1704    4.1092   -1.6079 C   0  0  0  0  0  0
    2.1897   -2.2827   -0.4408 C   0  0  0  0  0  0
    3.0472   -2.0844   -1.6923 C   0  0  0  0  0  0
    3.5027   -3.4466   -2.2194 C   0  0  0  0  0  0
    2.2239   -1.3712   -2.7668 C   0  0  0  0  0  0
   -5.0102   -0.0936    0.6037 O   0  0  0  0  0  0
   -5.9862   -0.8175   -0.1911 C   0  0  0  0  0  0
   -7.1712    0.0726   -0.4642 C   0  0  0  0  0  0
   -7.1895    0.8727   -1.5913 C   0  0  0  0  0  0
   -8.2765    1.6892   -1.8417 C   0  0  0  0  0  0
   -9.3454    1.7052   -0.9653 C   0  0  0  0  0  0
   -9.3275    0.9044    0.1613 C   0  0  0  0  0  0
   -8.2424    0.0847    0.4095 C   0  0  0  0  0  0
   -1.3614   -0.2591    3.0475 H   0  0  0  0  0  0
   -1.8687   -1.7433    2.2061 H   0  0  0  0  0  0
    1.4014   -0.2835   -0.5906 H   0  0  0  0  0  0
    5.1528    1.1655    1.3013 H   0  0  0  0  0  0
    6.7504    2.2215   -0.3250 H   0  0  0  0  0  0
    5.8104    1.5093   -1.6582 H   0  0  0  0  0  0
    3.7714    2.6972   -0.7773 H   0  0  0  0  0  0
    4.1215    4.5120    0.8757 H   0  0  0  0  0  0
    4.5427    2.9272    1.5681 H   0  0  0  0  0  0
    5.8292    4.0363    1.0362 H   0  0  0  0  0  0
    6.2084    4.4041   -1.4533 H   0  0  0  0  0  0
    5.0563    3.6926   -2.6086 H   0  0  0  0  0  0
    4.5253    4.9813   -1.5016 H   0  0  0  0  0  0
    2.7401   -2.8806    0.2857 H   0  0  0  0  0  0
    1.2671   -2.7968   -0.7101 H   0  0  0  0  0  0
    3.9199   -1.4809   -1.4430 H   0  0  0  0  0  0
    4.1136   -3.3054   -3.1111 H   0  0  0  0  0  0
    4.0892   -3.9548   -1.4540 H   0  0  0  0  0  0
    2.6300   -4.0501   -2.4688 H   0  0  0  0  0  0
    1.3015   -1.9240   -2.9444 H   0  0  0  0  0  0
    1.9839   -0.3624   -2.4306 H   0  0  0  0  0  0
    2.7999   -1.3189   -3.6907 H   0  0  0  0  0  0
   -5.5336   -1.1197   -1.1355 H   0  0  0  0  0  0
   -6.3145   -1.7024    0.3542 H   0  0  0  0  0  0
   -6.3544    0.8602   -2.2760 H   0  0  0  0  0  0
   -8.2904    2.3148   -2.7220 H   0  0  0  0  0  0
  -10.1943    2.3436   -1.1607 H   0  0  0  0  0  0
  -10.1625    0.9172    0.8462 H   0  0  0  0  0  0
   -8.2285   -0.5409    1.2897 H   0  0  0  0  0  0
  1  2  2  0  0  0
  1  3  1  0  0  0
  1 27  1  0  0  0
  3  4  1  0  0  0
  3  5  1  0  0  0
  5  6  1  0  0  0
  5 35  1  0  0  0
  5 36  1  0  0  0
  6  7  2  0  0  0
  6  8  1  0  0  0
  6  9  1  0  0  0
  9 10  1  0  0  0
 10 11  1  0  0  0
 10 23  1  0  0  0
 10 37  1  0  0  0
 11 12  2  0  0  0
 11 13  1  0  0  0
 13 14  1  0  0  0
 13 15  1  0  0  0
 15 16  1  0  0  0
 15 19  1  0  0  0
 15 38  1  0  0  0
 16 17  2  0  0  0
 16 18  1  0  0  0
 19 20  1  0  0  0
 19 39  1  0  0  0
 19 40  1  0  0  0
 20 21  1  0  0  0
 20 22  1  0  0  0
 20 41  1  0  0  0
 21 42  1  0  0  0
 21 43  1  0  0  0
 21 44  1  0  0  0
 22 45  1  0  0  0
 22 46  1  0  0  0
 22 47  1  0  0  0
 23 24  1  0  0  0
 23 48  1  0  0  0
 23 49  1  0  0  0
 24 25  1  0  0  0
 24 26  1  0  0  0
 24 50  1  0  0  0
 25 51  1  0  0  0
 25 52  1  0  0  0
 25 53  1  0  0  0
 26 54  1  0  0  0
 26 55  1  0  0  0
 26 56  1  0  0  0
 27 28  1  0  0  0
 28 29  1  0  0  0
 28 57  1  0  0  0
 28 58  1  0  0  0
 29 30  1  0  0  0
 29 34  2  0  0  0
 30 31  2  0  0  0
 30 59  1  0  0  0
 31 32  1  0  0  0
 31 60  1  0  0  0
 32 33  2  0  0  0
 32 61  1  0  0  0
 33 34  1  0  0  0
 33 62  1  0  0  0
 34 63  1  0  0  0
M  CHG  2   8  -1  18  -1
M  END
>  <Activity>
5.05

>  <set>
1

>  <Min_dist>
999.9

>  <Avg_dist>
999.9

$$$$
ZGPOLNH2
  Cerius2 12110214583D 1   1.00000                          
 
 46 46  0  0  0  0  0  0  0  0999 V2000
   -1.9120   -0.4999   -0.7625 C   0  0  0  0  0  0
   -1.0559   -1.4119   -0.2607 N   0  0  0  0  0  0
   -1.3563   -2.0382    0.4163 H   0  0  0  0  0  0
    0.3285   -1.4572   -0.7379 C   0  0  0  0  0  0
    1.3630   -0.3673    0.2943 P   0  0  0  0  0  0
    0.8343    1.0816    0.2038 O   0  0  0  0  0  0
    1.3084   -0.8447    1.7627 O   0  5  0  0  0  0
    2.8844   -0.4172   -0.2300 O   0  0  0  0  0  0
    3.6181    0.5372    0.5399 C   0  0  0  0  0  0
    4.1050    1.6423   -0.3616 C   0  0  0  0  0  0
    3.8489    1.6152   -1.5468 O   0  0  0  0  0  0
    4.8250    2.6607    0.1492 N   0  0  0  0  0  0
    5.1385    3.3720   -0.4311 H   0  0  0  0  0  0
    5.0298    2.6823    1.0971 H   0  0  0  0  0  0
    4.8166   -0.1505    1.1968 C   0  0  0  0  0  0
    5.7977   -0.6081    0.1156 C   0  0  0  0  0  0
    7.0728   -1.1374    0.7750 C   0  0  0  0  0  0
    5.1559   -1.7187   -0.7184 C   0  0  0  0  0  0
   -1.5357    0.2847   -1.6105 O   0  0  0  0  0  0
   -3.1858   -0.4618   -0.3280 O   0  0  0  0  0  0
   -4.1082    0.5207   -0.8685 C   0  0  0  0  0  0
   -5.4584    0.3519   -0.2207 C   0  0  0  0  0  0
   -5.7612    1.0447    0.9365 C   0  0  0  0  0  0
   -6.9997    0.8899    1.5307 C   0  0  0  0  0  0
   -7.9355    0.0426    0.9675 C   0  0  0  0  0  0
   -7.6329   -0.6495   -0.1903 C   0  0  0  0  0  0
   -6.3960   -0.4914   -0.7869 C   0  0  0  0  0  0
    0.7015   -2.4794   -0.6740 H   0  0  0  0  0  0
    0.3670   -1.1205   -1.7738 H   0  0  0  0  0  0
    2.9717    0.9559    1.3113 H   0  0  0  0  0  0
    5.3151    0.5500    1.8669 H   0  0  0  0  0  0
    4.4730   -1.0149    1.7650 H   0  0  0  0  0  0
    6.0454    0.2343   -0.5303 H   0  0  0  0  0  0
    7.7717   -1.4634    0.0047 H   0  0  0  0  0  0
    7.5300   -0.3461    1.3691 H   0  0  0  0  0  0
    6.8251   -1.9798    1.4209 H   0  0  0  0  0  0
    4.7941   -2.5064   -0.0575 H   0  0  0  0  0  0
    4.3210   -1.3096   -1.2872 H   0  0  0  0  0  0
    5.8956   -2.1314   -1.4045 H   0  0  0  0  0  0
   -3.7309    1.5231   -0.6662 H   0  0  0  0  0  0
   -4.2013    0.3780   -1.9451 H   0  0  0  0  0  0
   -5.0301    1.7067    1.3766 H   0  0  0  0  0  0
   -7.2360    1.4306    2.4353 H   0  0  0  0  0  0
   -8.9028   -0.0790    1.4321 H   0  0  0  0  0  0
   -8.3639   -1.3118   -0.6302 H   0  0  0  0  0  0
   -6.1597   -1.0321   -1.6914 H   0  0  0  0  0  0
  1  2  1  0  0  0
  1 19  2  0  0  0
  1 20  1  0  0  0
  2  3  1  0  0  0
  2  4  1  0  0  0
  4  5  1  0  0  0
  4 28  1  0  0  0
  4 29  1  0  0  0
  5  6  2  0  0  0
  5  7  1  0  0  0
  5  8  1  0  0  0
  8  9  1  0  0  0
  9 10  1  0  0  0
  9 15  1  0  0  0
  9 30  1  0  0  0
 10 11  2  0  0  0
 10 12  1  0  0  0
 12 13  1  0  0  0
 12 14  1  0  0  0
 15 16  1  0  0  0
 15 31  1  0  0  0
 15 32  1  0  0  0
 16 17  1  0  0  0
 16 18  1  0  0  0
 16 33  1  0  0  0
 17 34  1  0  0  0
 17 35  1  0  0  0
 17 36  1  0  0  0
 18 37  1  0  0  0
 18 38  1  0  0  0
 18 39  1  0  0  0
 20 21  1  0  0  0
 21 22  1  0  0  0
 21 40  1  0  0  0
 21 41  1  0  0  0
 22 23  1  0  0  0
 22 27  2  0  0  0
 23 24  2  0  0  0
 23 42  1  0  0  0
 24 25  1  0  0  0
 24 43  1  0  0  0
 25 26  2  0  0  0
 25 44  1  0  0  0
 26 27  1  0  0  0
 26 45  1  0  0  0
 27 46  1  0  0  0
M  CHG  1   7  -1
M  END
>  <Activity>
3.18

>  <set>
1

>  <Min_dist>
999.9

>  <Avg_dist>
999.9

$$$$
ZG_D_LNHOH
  Cerius2 12110214583D 1   1.00000                          
 
 47 47  0  0  0  0  0  0  0  0999 V2000
    7.1997   -1.3164    0.7909 C   0  0  0  0  0  0
    6.1222   -1.1530   -0.0595 C   0  0  0  0  0  0
    5.5835    0.1044   -0.2588 C   0  0  0  0  0  0
    6.1220    1.1983    0.3925 C   0  0  0  0  0  0
    7.1989    1.0348    1.2436 C   0  0  0  0  0  0
    7.7386   -0.2224    1.4419 C   0  0  0  0  0  0
    4.4094    0.2827   -1.1867 C   0  0  0  0  0  0
    3.1741    0.1382   -0.4374 O   0  0  0  0  0  0
    1.9886    0.2586   -1.0642 C   0  0  0  0  0  0
    0.8420    0.1245   -0.3687 N   0  0  0  0  0  0
    0.8708   -0.0587    0.5834 H   0  0  0  0  0  0
   -0.4480    0.2555   -1.0507 C   0  0  0  0  0  0
   -1.5638    0.0639   -0.0560 C   0  0  0  0  0  0
   -2.8473    0.1413   -0.4599 N   0  0  0  0  0  0
   -3.0528    0.3204   -1.3908 H   0  0  0  0  0  0
   -3.9320   -0.0450    0.5070 C   0  0  0  0  0  0
   -5.1494    0.7730    0.0715 C   0  0  0  0  0  0
   -4.7721    2.2544    0.0074 C   0  0  0  0  0  0
   -5.9895    3.0724   -0.4280 C   0  0  0  0  0  0
   -4.3102    2.7232    1.3887 C   0  0  0  0  0  0
   -4.3036   -1.5041    0.5701 C   0  0  0  0  0  0
   -4.7352   -1.9759    1.6006 O   0  0  0  0  0  0
   -4.1564   -2.2847   -0.5187 N   0  0  0  0  0  0
   -3.8112   -1.9073   -1.3429 H   0  0  0  0  0  0
   -4.5056   -3.6556   -0.4594 O   0  0  0  0  0  0
   -1.3068   -0.1600    1.1079 O   0  0  0  0  0  0
    1.9525    0.4880   -2.2569 O   0  0  0  0  0  0
    7.6178   -2.2994    0.9501 H   0  0  0  0  0  0
    5.7015   -2.0076   -0.5684 H   0  0  0  0  0  0
    5.7016    2.1807    0.2362 H   0  0  0  0  0  0
    7.6201    1.8895    1.7520 H   0  0  0  0  0  0
    8.5797   -0.3502    2.1071 H   0  0  0  0  0  0
    4.4483    1.2753   -1.6353 H   0  0  0  0  0  0
    4.4487   -0.4726   -1.9716 H   0  0  0  0  0  0
   -0.5245    1.2474   -1.4959 H   0  0  0  0  0  0
   -0.5241   -0.5005   -1.8322 H   0  0  0  0  0  0
   -3.6029    0.2890    1.4910 H   0  0  0  0  0  0
   -5.4785    0.4390   -0.9125 H   0  0  0  0  0  0
   -5.9565    0.6345    0.7909 H   0  0  0  0  0  0
   -3.9650    2.3930   -0.7120 H   0  0  0  0  0  0
   -5.7207    4.1277   -0.4737 H   0  0  0  0  0  0
   -6.3186    2.7384   -1.4120 H   0  0  0  0  0  0
   -6.7966    2.9338    0.2914 H   0  0  0  0  0  0
   -5.1172    2.5846    2.1081 H   0  0  0  0  0  0
   -3.4429    2.1405    1.6989 H   0  0  0  0  0  0
   -4.0414    3.7786    1.3430 H   0  0  0  0  0  0
   -4.3259   -4.0279   -1.3336 H   0  0  0  0  0  0
  1  2  1  0  0  0
  1  6  2  0  0  0
  1 28  1  0  0  0
  2  3  2  0  0  0
  2 29  1  0  0  0
  3  4  1  0  0  0
  3  7  1  0  0  0
  4  5  2  0  0  0
  4 30  1  0  0  0
  5  6  1  0  0  0
  5 31  1  0  0  0
  6 32  1  0  0  0
  7  8  1  0  0  0
  7 33  1  0  0  0
  7 34  1  0  0  0
  8  9  1  0  0  0
  9 10  1  0  0  0
  9 27  2  0  0  0
 10 11  1  0  0  0
 10 12  1  0  0  0
 12 13  1  0  0  0
 12 35  1  0  0  0
 12 36  1  0  0  0
 13 14  1  0  0  0
 13 26  2  0  0  0
 14 15  1  0  0  0
 14 16  1  0  0  0
 16 17  1  0  0  0
 16 21  1  0  0  0
 16 37  1  0  0  0
 17 18  1  0  0  0
 17 38  1  0  0  0
 17 39  1  0  0  0
 18 19  1  0  0  0
 18 20  1  0  0  0
 18 40  1  0  0  0
 19 41  1  0  0  0
 19 42  1  0  0  0
 19 43  1  0  0  0
 20 44  1  0  0  0
 20 45  1  0  0  0
 20 46  1  0  0  0
 21 22  2  0  0  0
 21 23  1  0  0  0
 23 24  1  0  0  0
 23 25  1  0  0  0
 25 47  1  0  0  0
M  END
>  <Activity>
4.32

>  <set>
1

>  <Min_dist>
999.9

>  <Avg_dist>
999.9

$$$$
ZLGNH2
  Cerius2 12110214583D 1   1.00000                          
 
 46 46  0  0  0  0  0  0  0  0999 V2000
    6.5618   -1.7866   -0.2688 C   0  0  0  0  0  0
    5.3701   -1.3229   -0.7939 C   0  0  0  0  0  0
    4.8813   -0.0872   -0.4130 C   0  0  0  0  0  0
    5.5839    0.6845    0.4935 C   0  0  0  0  0  0
    6.7751    0.2204    1.0193 C   0  0  0  0  0  0
    7.2647   -1.0147    0.6373 C   0  0  0  0  0  0
    3.5827    0.4187   -0.9862 C   0  0  0  0  0  0
    2.4819   -0.0068   -0.1404 O   0  0  0  0  0  0
    1.2183    0.3320   -0.4588 C   0  0  0  0  0  0
    0.1965   -0.0630    0.3263 N   0  0  0  0  0  0
    0.3632   -0.6493    1.0809 H   0  0  0  0  0  0
   -1.1659    0.3931    0.0400 C   0  0  0  0  0  0
   -2.1543   -0.6162    0.5651 C   0  0  0  0  0  0
   -3.3678   -0.7329   -0.0095 N   0  0  0  0  0  0
   -3.5807   -0.2164   -0.8024 H   0  0  0  0  0  0
   -4.3653   -1.6400    0.5636 C   0  0  0  0  0  0
   -5.6261   -1.5853   -0.2602 C   0  0  0  0  0  0
   -5.6855   -0.8600   -1.2304 O   0  0  0  0  0  0
   -6.6875   -2.3424    0.0812 N   0  0  0  0  0  0
   -7.4990   -2.3072   -0.4490 H   0  0  0  0  0  0
   -6.6400   -2.9225    0.8572 H   0  0  0  0  0  0
   -1.8576   -1.3233    1.5047 O   0  0  0  0  0  0
   -1.4054    1.7427    0.7197 C   0  0  0  0  0  0
   -2.7864    2.2727    0.3289 C   0  0  0  0  0  0
   -3.0703    3.5681    1.0920 C   0  0  0  0  0  0
   -2.8197    2.5492   -1.1755 C   0  0  0  0  0  0
    0.9992    0.9938   -1.4540 O   0  0  0  0  0  0
    6.9414   -2.7539   -0.5630 H   0  0  0  0  0  0
    4.8212   -1.9258   -1.5021 H   0  0  0  0  0  0
    5.2024    1.6502    0.7906 H   0  0  0  0  0  0
    7.3244    0.8236    1.7270 H   0  0  0  0  0  0
    8.1952   -1.3774    1.0484 H   0  0  0  0  0  0
    3.6056    1.5075   -1.0323 H   0  0  0  0  0  0
    3.4469    0.0153   -1.9897 H   0  0  0  0  0  0
   -1.2942    0.5008   -1.0371 H   0  0  0  0  0  0
   -3.9744   -2.6575    0.5623 H   0  0  0  0  0  0
   -4.5866   -1.3371    1.5870 H   0  0  0  0  0  0
   -1.3566    1.6185    1.8015 H   0  0  0  0  0  0
   -0.6408    2.4510    0.4005 H   0  0  0  0  0  0
   -3.5445    1.5303    0.5787 H   0  0  0  0  0  0
   -4.0542    3.9456    0.8136 H   0  0  0  0  0  0
   -3.0466    3.3711    2.1638 H   0  0  0  0  0  0
   -2.3122    4.3104    0.8422 H   0  0  0  0  0  0
   -1.9990    3.2158   -1.4406 H   0  0  0  0  0  0
   -2.7157    1.6106   -1.7198 H   0  0  0  0  0  0
   -3.7680    3.0182   -1.4379 H   0  0  0  0  0  0
  1  2  1  0  0  0
  1  6  2  0  0  0
  1 28  1  0  0  0
  2  3  2  0  0  0
  2 29  1  0  0  0
  3  4  1  0  0  0
  3  7  1  0  0  0
  4  5  2  0  0  0
  4 30  1  0  0  0
  5  6  1  0  0  0
  5 31  1  0  0  0
  6 32  1  0  0  0
  7  8  1  0  0  0
  7 33  1  0  0  0
  7 34  1  0  0  0
  8  9  1  0  0  0
  9 10  1  0  0  0
  9 27  2  0  0  0
 10 11  1  0  0  0
 10 12  1  0  0  0
 12 13  1  0  0  0
 12 23  1  0  0  0
 12 35  1  0  0  0
 13 14  1  0  0  0
 13 22  2  0  0  0
 14 15  1  0  0  0
 14 16  1  0  0  0
 16 17  1  0  0  0
 16 36  1  0  0  0
 16 37  1  0  0  0
 17 18  2  0  0  0
 17 19  1  0  0  0
 19 20  1  0  0  0
 19 21  1  0  0  0
 23 24  1  0  0  0
 23 38  1  0  0  0
 23 39  1  0  0  0
 24 25  1  0  0  0
 24 26  1  0  0  0
 24 40  1  0  0  0
 25 41  1  0  0  0
 25 42  1  0  0  0
 25 43  1  0  0  0
 26 44  1  0  0  0
 26 45  1  0  0  0
 26 46  1  0  0  0
M  END
>  <Activity>
2.51

>  <set>
1

>  <Min_dist>
999.9

>  <Avg_dist>
999.9

$$$$
ZLPOLA
  Cerius2 12110214583D 1   1.00000                          
 
 66 66  0  0  0  0  0  0  0  0999 V2000
   -3.3962    0.5244    0.5221 C   0  0  0  0  0  0
   -3.1260    0.2637    1.6778 O   0  0  0  0  0  0
   -2.5257    1.2242   -0.2321 N   0  0  0  0  0  0
   -2.7414    1.4323   -1.1547 H   0  0  0  0  0  0
   -1.2537    1.6707    0.3413 C   0  0  0  0  0  0
    0.0158    0.3897    0.0751 P   0  0  0  0  0  0
   -0.4069   -0.8677    0.7313 O   0  0  0  0  0  0
    0.1989    0.1356   -1.5042 O   0  5  0  0  0  0
    1.4137    0.8804    0.7053 O   0  0  0  0  0  0
    2.3364   -0.2005    0.5554 C   0  0  0  0  0  0
    3.5649    0.2847   -0.1702 C   0  0  0  0  0  0
    3.7696    1.4743   -0.2876 O   0  0  0  0  0  0
    4.4360   -0.6034   -0.6886 N   0  0  0  0  0  0
    4.2356   -1.5521   -0.6613 H   0  0  0  0  0  0
    5.6858   -0.1360   -1.2936 C   0  0  0  0  0  0
    6.7505   -1.1888   -1.1239 C   0  0  0  0  0  0
    6.4920   -2.2235   -0.5560 O   0  0  0  0  0  0
    7.9862   -0.9772   -1.6037 O   0  5  0  0  0  0
    5.4632    0.1288   -2.7839 C   0  0  0  0  0  0
    2.7340   -0.7268    1.9359 C   0  0  0  0  0  0
    3.6017   -1.9766    1.7747 C   0  0  0  0  0  0
    4.0900   -2.4392    3.1489 C   0  0  0  0  0  0
    2.7771   -3.0897    1.1252 C   0  0  0  0  0  0
   -0.8167    2.9706   -0.3371 C   0  0  0  0  0  0
    0.5117    3.4368    0.2618 C   0  0  0  0  0  0
    0.9487    4.7367   -0.4166 C   0  0  0  0  0  0
    0.3378    3.6783    1.7626 C   0  0  0  0  0  0
   -4.5628    0.1093   -0.0065 O   0  0  0  0  0  0
   -5.4980   -0.6498    0.8043 C   0  0  0  0  0  0
   -6.7148   -0.9894   -0.0175 C   0  0  0  0  0  0
   -6.7511   -2.1636   -0.7460 C   0  0  0  0  0  0
   -7.8671   -2.4751   -1.4999 C   0  0  0  0  0  0
   -8.9471   -1.6125   -1.5248 C   0  0  0  0  0  0
   -8.9112   -0.4388   -0.7955 C   0  0  0  0  0  0
   -7.7968   -0.1294   -0.0382 C   0  0  0  0  0  0
   -1.3776    1.8427    1.4105 H   0  0  0  0  0  0
    1.8683   -1.0009   -0.0177 H   0  0  0  0  0  0
    6.0040    0.7847   -0.8045 H   0  0  0  0  0  0
    5.1449   -0.7919   -3.2730 H   0  0  0  0  0  0
    4.6930    0.8903   -2.9066 H   0  0  0  0  0  0
    6.3930    0.4766   -3.2340 H   0  0  0  0  0  0
    3.2965    0.0398    2.4688 H   0  0  0  0  0  0
    1.8366   -0.9780    2.5013 H   0  0  0  0  0  0
    4.4595   -1.7444    1.1436 H   0  0  0  0  0  0
    4.7082   -3.3295    3.0341 H   0  0  0  0  0  0
    4.6774   -1.6462    3.6117 H   0  0  0  0  0  0
    3.2322   -2.6714    3.7801 H   0  0  0  0  0  0
    1.8666   -3.2513    1.7022 H   0  0  0  0  0  0
    2.5157   -2.8014    0.1070 H   0  0  0  0  0  0
    3.3616   -4.0095    1.1036 H   0  0  0  0  0  0
   -0.6928    2.7985   -1.4063 H   0  0  0  0  0  0
   -1.5758    3.7365   -0.1779 H   0  0  0  0  0  0
    1.2708    2.6709    0.1026 H   0  0  0  0  0  0
    1.8951    5.0689    0.0101 H   0  0  0  0  0  0
    1.0726    4.5647   -1.4858 H   0  0  0  0  0  0
    0.1896    5.5026   -0.2574 H   0  0  0  0  0  0
   -0.4213    4.4442    1.9218 H   0  0  0  0  0  0
    0.0265    2.7522    2.2459 H   0  0  0  0  0  0
    1.2842    4.0105    2.1893 H   0  0  0  0  0  0
   -5.0212   -1.5691    1.1444 H   0  0  0  0  0  0
   -5.7969   -0.0548    1.6673 H   0  0  0  0  0  0
   -5.9073   -2.8375   -0.7266 H   0  0  0  0  0  0
   -7.8952   -3.3921   -2.0697 H   0  0  0  0  0  0
   -9.8188   -1.8555   -2.1143 H   0  0  0  0  0  0
   -9.7548    0.2352   -0.8152 H   0  0  0  0  0  0
   -7.7688    0.7876    0.5316 H   0  0  0  0  0  0
  1  2  2  0  0  0
  1  3  1  0  0  0
  1 28  1  0  0  0
  3  4  1  0  0  0
  3  5  1  0  0  0
  5  6  1  0  0  0
  5 24  1  0  0  0
  5 36  1  0  0  0
  6  7  2  0  0  0
  6  8  1  0  0  0
  6  9  1  0  0  0
  9 10  1  0  0  0
 10 11  1  0  0  0
 10 20  1  0  0  0
 10 37  1  0  0  0
 11 12  2  0  0  0
 11 13  1  0  0  0
 13 14  1  0  0  0
 13 15  1  0  0  0
 15 16  1  0  0  0
 15 19  1  0  0  0
 15 38  1  0  0  0
 16 17  2  0  0  0
 16 18  1  0  0  0
 19 39  1  0  0  0
 19 40  1  0  0  0
 19 41  1  0  0  0
 20 21  1  0  0  0
 20 42  1  0  0  0
 20 43  1  0  0  0
 21 22  1  0  0  0
 21 23  1  0  0  0
 21 44  1  0  0  0
 22 45  1  0  0  0
 22 46  1  0  0  0
 22 47  1  0  0  0
 23 48  1  0  0  0
 23 49  1  0  0  0
 23 50  1  0  0  0
 24 25  1  0  0  0
 24 51  1  0  0  0
 24 52  1  0  0  0
 25 26  1  0  0  0
 25 27  1  0  0  0
 25 53  1  0  0  0
 26 54  1  0  0  0
 26 55  1  0  0  0
 26 56  1  0  0  0
 27 57  1  0  0  0
 27 58  1  0  0  0
 27 59  1  0  0  0
 28 29  1  0  0  0
 29 30  1  0  0  0
 29 60  1  0  0  0
 29 61  1  0  0  0
 30 31  1  0  0  0
 30 35  2  0  0  0
 31 32  2  0  0  0
 31 62  1  0  0  0
 32 33  1  0  0  0
 32 63  1  0  0  0
 33 34  2  0  0  0
 33 64  1  0  0  0
 34 35  1  0  0  0
 34 65  1  0  0  0
 35 66  1  0  0  0
M  CHG  2   8  -1  18  -1
M  END
>  <Activity>
6.17

>  <set>
1

>  <Min_dist>
999.9

>  <Avg_dist>
999.9

$$$$
Z_D_APOLA
  Cerius2 12110214583D 1   1.00000                          
 
 57 57  0  0  0  0  0  0  0  0999 V2000
   -3.3478    0.5223    0.8942 C   0  0  0  0  0  0
   -3.0762   -0.2147    1.8213 O   0  0  0  0  0  0
   -2.4844    1.4900    0.5274 N   0  0  0  0  0  0
   -2.7011    2.0784   -0.2127 H   0  0  0  0  0  0
   -1.2185    1.6534    1.2465 C   0  0  0  0  0  0
    0.0663    0.6303    0.4552 P   0  0  0  0  0  0
   -0.3427   -0.7915    0.4930 O   0  0  0  0  0  0
    0.2546    1.0941   -1.0750 O   0  5  0  0  0  0
    1.4574    0.8098    1.2455 O   0  0  0  0  0  0
    2.3944   -0.0835    0.6405 C   0  0  0  0  0  0
    3.6161    0.6863    0.2094 C   0  0  0  0  0  0
    3.8049    1.8086    0.6285 O   0  0  0  0  0  0
    4.4990    0.1275   -0.6420 N   0  0  0  0  0  0
    4.3113   -0.7388   -1.0359 H   0  0  0  0  0  0
    5.7423    0.8285   -0.9724 C   0  0  0  0  0  0
    6.8211   -0.1786   -1.2771 C   0  0  0  0  0  0
    6.5765   -1.3607   -1.2239 O   0  0  0  0  0  0
    8.0537    0.2375   -1.6078 O   0  5  0  0  0  0
    5.5159    1.7193   -2.1955 C   0  0  0  0  0  0
    2.7993   -1.1588    1.6507 C   0  0  0  0  0  0
    3.6836   -2.1996    0.9610 C   0  0  0  0  0  0
    4.1781   -3.2139    1.9941 C   0  0  0  0  0  0
    2.8738   -2.9230   -0.1169 C   0  0  0  0  0  0
   -0.7957    3.1233    1.2074 C   0  0  0  0  0  0
   -4.5086    0.3687    0.2298 O   0  0  0  0  0  0
   -5.4361   -0.6777    0.6211 C   0  0  0  0  0  0
   -6.6476   -0.6358   -0.2742 C   0  0  0  0  0  0
   -6.6691   -1.3736   -1.4430 C   0  0  0  0  0  0
   -7.7804   -1.3351   -2.2643 C   0  0  0  0  0  0
   -8.8703   -0.5592   -1.9165 C   0  0  0  0  0  0
   -8.8491    0.1778   -0.7473 C   0  0  0  0  0  0
   -7.7396    0.1360    0.0762 C   0  0  0  0  0  0
   -1.3460    1.3394    2.2825 H   0  0  0  0  0  0
    1.9369   -0.5557   -0.2290 H   0  0  0  0  0  0
    6.0483    1.4439   -0.1263 H   0  0  0  0  0  0
    5.2099    1.1039   -3.0415 H   0  0  0  0  0  0
    4.7356    2.4478   -1.9751 H   0  0  0  0  0  0
    6.4409    2.2409   -2.4413 H   0  0  0  0  0  0
    3.3517   -0.6982    2.4698 H   0  0  0  0  0  0
    1.9055   -1.6440    2.0428 H   0  0  0  0  0  0
    4.5382   -1.7030    0.5014 H   0  0  0  0  0  0
    4.8081   -3.9553    1.5027 H   0  0  0  0  0  0
    4.7550   -2.6985    2.7620 H   0  0  0  0  0  0
    3.3235   -3.7105    2.4537 H   0  0  0  0  0  0
    1.9655   -3.3329    0.3248 H   0  0  0  0  0  0
    2.6085   -2.2191   -0.9058 H   0  0  0  0  0  0
    3.4704   -3.7323   -0.5377 H   0  0  0  0  0  0
   -0.6682    3.4373    0.1714 H   0  0  0  0  0  0
   -1.5639    3.7350    1.6805 H   0  0  0  0  0  0
    0.1461    3.2448    1.7424 H   0  0  0  0  0  0
   -4.9490   -1.6484    0.5282 H   0  0  0  0  0  0
   -5.7432   -0.5229    1.6555 H   0  0  0  0  0  0
   -5.8176   -1.9798   -1.7147 H   0  0  0  0  0  0
   -7.7969   -1.9110   -3.1778 H   0  0  0  0  0  0
   -9.7382   -0.5286   -2.5586 H   0  0  0  0  0  0
   -9.7006    0.7843   -0.4758 H   0  0  0  0  0  0
   -7.7231    0.7118    0.9897 H   0  0  0  0  0  0
  1  2  2  0  0  0
  1  3  1  0  0  0
  1 25  1  0  0  0
  3  4  1  0  0  0
  3  5  1  0  0  0
  5  6  1  0  0  0
  5 24  1  0  0  0
  5 33  1  0  0  0
  6  7  2  0  0  0
  6  8  1  0  0  0
  6  9  1  0  0  0
  9 10  1  0  0  0
 10 11  1  0  0  0
 10 20  1  0  0  0
 10 34  1  0  0  0
 11 12  2  0  0  0
 11 13  1  0  0  0
 13 14  1  0  0  0
 13 15  1  0  0  0
 15 16  1  0  0  0
 15 19  1  0  0  0
 15 35  1  0  0  0
 16 17  2  0  0  0
 16 18  1  0  0  0
 19 36  1  0  0  0
 19 37  1  0  0  0
 19 38  1  0  0  0
 20 21  1  0  0  0
 20 39  1  0  0  0
 20 40  1  0  0  0
 21 22  1  0  0  0
 21 23  1  0  0  0
 21 41  1  0  0  0
 22 42  1  0  0  0
 22 43  1  0  0  0
 22 44  1  0  0  0
 23 45  1  0  0  0
 23 46  1  0  0  0
 23 47  1  0  0  0
 24 48  1  0  0  0
 24 49  1  0  0  0
 24 50  1  0  0  0
 25 26  1  0  0  0
 26 27  1  0  0  0
 26 51  1  0  0  0
 26 52  1  0  0  0
 27 28  1  0  0  0
 27 32  2  0  0  0
 28 29  2  0  0  0
 28 53  1  0  0  0
 29 30  1  0  0  0
 29 54  1  0  0  0
 30 31  2  0  0  0
 30 55  1  0  0  0
 31 32  1  0  0  0
 31 56  1  0  0  0
 32 57  1  0  0  0
M  CHG  2   8  -1  18  -1
M  END
>  <Activity>
4.62

>  <set>
1

>  <Min_dist>
999.9

>  <Avg_dist>
999.9

$$$$
Z_D_FPLA
  Cerius2 12110214583D 1   1.00000                          
 
 68 69  0  0  0  0  0  0  0  0999 V2000
   -3.4300    0.5685    0.3330 C   0  0  0  0  0  0
   -3.1514    0.7551    1.5010 O   0  0  0  0  0  0
   -2.5728    0.9520   -0.6338 N   0  0  0  0  0  0
   -2.7952    0.8030   -1.5661 H   0  0  0  0  0  0
   -1.3053    1.5938   -0.2766 C   0  0  0  0  0  0
   -0.0181    0.3204   -0.0640 P   0  0  0  0  0  0
   -0.4783   -0.6872    0.9175 O   0  0  0  0  0  0
    0.2653   -0.3973   -1.4770 O   0  5  0  0  0  0
    1.3972    1.0408    0.4932 N   0  0  0  0  0  0
    1.1570    1.5357    1.3391 H   0  0  0  0  0  0
    2.3004   -0.0497    0.8840 C   0  0  0  0  0  0
    3.2058   -0.3905   -0.2715 C   0  0  0  0  0  0
    3.4636    0.4490   -1.1081 O   0  0  0  0  0  0
    3.7291   -1.6282   -0.3753 N   0  0  0  0  0  0
    3.4764   -2.3164    0.2597 H   0  0  0  0  0  0
    4.6797   -1.9340   -1.4474 C   0  0  0  0  0  0
    5.6344   -3.0033   -0.9823 C   0  0  0  0  0  0
    5.5314   -3.4627    0.1305 O   0  0  0  0  0  0
    6.5991   -3.4453   -1.8042 O   0  5  0  0  0  0
    3.9180   -2.4305   -2.6780 C   0  0  0  0  0  0
    3.1452    0.3918    2.0808 C   0  0  0  0  0  0
    3.9730   -0.7919    2.5852 C   0  0  0  0  0  0
    4.9379   -0.3132    3.6718 C   0  0  0  0  0  0
    3.0397   -1.8567    3.1649 C   0  0  0  0  0  0
   -0.8901    2.5577   -1.3899 C   0  0  0  0  0  0
    0.3477    3.3074   -0.9695 C   0  0  0  0  0  0
    1.5841    2.9298   -1.4590 C   0  0  0  0  0  0
    2.7196    3.6175   -1.0733 C   0  0  0  0  0  0
    2.6185    4.6831   -0.1986 C   0  0  0  0  0  0
    1.3820    5.0614    0.2901 C   0  0  0  0  0  0
    0.2461    4.3764   -0.0989 C   0  0  0  0  0  0
   -4.5924   -0.0263    0.0050 O   0  0  0  0  0  0
   -5.5132   -0.4448    1.0468 C   0  0  0  0  0  0
   -6.7280   -1.0780    0.4189 C   0  0  0  0  0  0
   -6.7499   -2.4383    0.1742 C   0  0  0  0  0  0
   -7.8642   -3.0192   -0.4018 C   0  0  0  0  0  0
   -8.9569   -2.2397   -0.7327 C   0  0  0  0  0  0
   -8.9353   -0.8795   -0.4872 C   0  0  0  0  0  0
   -7.8227   -0.2994    0.0928 C   0  0  0  0  0  0
   -1.4275    2.1459    0.6552 H   0  0  0  0  0  0
    1.7140   -0.9270    1.1571 H   0  0  0  0  0  0
    5.2389   -1.0345   -1.7047 H   0  0  0  0  0  0
    3.3588   -3.3300   -2.4207 H   0  0  0  0  0  0
    3.2275   -1.6571   -3.0143 H   0  0  0  0  0  0
    4.6253   -2.6581   -3.4756 H   0  0  0  0  0  0
    3.8123    1.1985    1.7768 H   0  0  0  0  0  0
    2.4901    0.7431    2.8780 H   0  0  0  0  0  0
    4.5402   -1.2176    1.7575 H   0  0  0  0  0  0
    5.5276   -1.1565    4.0312 H   0  0  0  0  0  0
    5.6028    0.4453    3.2588 H   0  0  0  0  0  0
    4.3707    0.1125    4.4996 H   0  0  0  0  0  0
    2.4148   -1.4100    3.9383 H   0  0  0  0  0  0
    2.4070   -2.2558    2.3721 H   0  0  0  0  0  0
    3.6324   -2.6628    3.5973 H   0  0  0  0  0  0
   -0.6823    1.9942   -2.2995 H   0  0  0  0  0  0
   -1.6975    3.2655   -1.5774 H   0  0  0  0  0  0
    1.6630    2.0972   -2.1423 H   0  0  0  0  0  0
    3.6856    3.3220   -1.4552 H   0  0  0  0  0  0
    3.5057    5.2200    0.1032 H   0  0  0  0  0  0
    1.3031    5.8937    0.9737 H   0  0  0  0  0  0
   -0.7200    4.6718    0.2829 H   0  0  0  0  0  0
   -5.0215   -1.1683    1.6971 H   0  0  0  0  0  0
   -5.8173    0.4225    1.6327 H   0  0  0  0  0  0
   -5.8962   -3.0473    0.4327 H   0  0  0  0  0  0
   -7.8811   -4.0818   -0.5937 H   0  0  0  0  0  0
   -9.8272   -2.6933   -1.1834 H   0  0  0  0  0  0
   -9.7888   -0.2705   -0.7460 H   0  0  0  0  0  0
   -7.8058    0.7633    0.2846 H   0  0  0  0  0  0
  1  2  2  0  0  0
  1  3  1  0  0  0
  1 32  1  0  0  0
  3  4  1  0  0  0
  3  5  1  0  0  0
  5  6  1  0  0  0
  5 25  1  0  0  0
  5 40  1  0  0  0
  6  7  2  0  0  0
  6  8  1  0  0  0
  6  9  1  0  0  0
  9 10  1  0  0  0
  9 11  1  0  0  0
 11 12  1  0  0  0
 11 21  1  0  0  0
 11 41  1  0  0  0
 12 13  2  0  0  0
 12 14  1  0  0  0
 14 15  1  0  0  0
 14 16  1  0  0  0
 16 17  1  0  0  0
 16 20  1  0  0  0
 16 42  1  0  0  0
 17 18  2  0  0  0
 17 19  1  0  0  0
 20 43  1  0  0  0
 20 44  1  0  0  0
 20 45  1  0  0  0
 21 22  1  0  0  0
 21 46  1  0  0  0
 21 47  1  0  0  0
 22 23  1  0  0  0
 22 24  1  0  0  0
 22 48  1  0  0  0
 23 49  1  0  0  0
 23 50  1  0  0  0
 23 51  1  0  0  0
 24 52  1  0  0  0
 24 53  1  0  0  0
 24 54  1  0  0  0
 25 26  1  0  0  0
 25 55  1  0  0  0
 25 56  1  0  0  0
 26 27  1  0  0  0
 26 31  2  0  0  0
 27 28  2  0  0  0
 27 57  1  0  0  0
 28 29  1  0  0  0
 28 58  1  0  0  0
 29 30  2  0  0  0
 29 59  1  0  0  0
 30 31  1  0  0  0
 30 60  1  0  0  0
 31 61  1  0  0  0
 32 33  1  0  0  0
 33 34  1  0  0  0
 33 62  1  0  0  0
 33 63  1  0  0  0
 34 35  1  0  0  0
 34 39  2  0  0  0
 35 36  2  0  0  0
 35 64  1  0  0  0
 36 37  1  0  0  0
 36 65  1  0  0  0
 37 38  2  0  0  0
 37 66  1  0  0  0
 38 39  1  0  0  0
 38 67  1  0  0  0
 39 68  1  0  0  0
M  CHG  2   8  -1  19  -1
M  END
>  <Activity>
6.32

>  <set>
1

>  <Min_dist>
999.9

>  <Avg_dist>
999.9

$$$$
Z_D_FPOLA
  Cerius2 12110214583D 1   1.00000                          
 
 67 68  0  0  0  0  0  0  0  0999 V2000
    2.9727    1.0611   -0.4418 C   0  0  0  0  0  0
    2.8913    1.4021   -1.6053 O   0  0  0  0  0  0
    2.0282    1.4436    0.4402 N   0  0  0  0  0  0
    2.0932    1.1713    1.3690 H   0  0  0  0  0  0
    0.9033    2.2705   -0.0037 C   0  0  0  0  0  0
   -0.4671    1.1947   -0.5405 P   0  0  0  0  0  0
   -1.4915    2.0087   -1.2320 O   0  0  0  0  0  0
    0.0953    0.0713   -1.5474 O   0  5  0  0  0  0
   -1.1253    0.4824    0.7447 O   0  0  0  0  0  0
   -2.2406   -0.2750    0.2711 C   0  0  0  0  0  0
   -1.9811   -1.7430    0.4919 C   0  0  0  0  0  0
   -1.1297   -2.0964    1.2800 O   0  0  0  0  0  0
   -2.6950   -2.6631   -0.1865 N   0  0  0  0  0  0
   -3.3415   -2.3809   -0.8523 H   0  0  0  0  0  0
   -2.4946   -4.0893    0.0817 C   0  0  0  0  0  0
   -3.7802   -4.8336   -0.1719 C   0  0  0  0  0  0
   -4.7630   -4.2342   -0.5390 O   0  0  0  0  0  0
   -3.8335   -6.1624    0.0100 O   0  5  0  0  0  0
   -1.4005   -4.6326   -0.8395 C   0  0  0  0  0  0
   -3.5001    0.1406    1.0339 C   0  0  0  0  0  0
   -4.7168   -0.5661    0.4328 C   0  0  0  0  0  0
   -5.9513   -0.2714    1.2873 C   0  0  0  0  0  0
   -4.9494   -0.0582   -0.9916 C   0  0  0  0  0  0
    0.4338    3.1559    1.1523 C   0  0  0  0  0  0
   -0.6284    4.1045    0.6592 C   0  0  0  0  0  0
   -1.9648    3.7916    0.8237 C   0  0  0  0  0  0
   -2.9391    4.6616    0.3713 C   0  0  0  0  0  0
   -2.5770    5.8448   -0.2451 C   0  0  0  0  0  0
   -1.2406    6.1581   -0.4087 C   0  0  0  0  0  0
   -0.2663    5.2901    0.0475 C   0  0  0  0  0  0
    4.0036    0.2965   -0.0350 O   0  0  0  0  0  0
    5.0180   -0.1205   -0.9865 C   0  0  0  0  0  0
    6.0520   -0.9608   -0.2824 C   0  0  0  0  0  0
    5.8919   -2.3316   -0.2039 C   0  0  0  0  0  0
    6.8403   -3.1024    0.4420 C   0  0  0  0  0  0
    7.9491   -2.5025    1.0090 C   0  0  0  0  0  0
    8.1097   -1.1318    0.9297 C   0  0  0  0  0  0
    7.1635   -0.3615    0.2801 C   0  0  0  0  0  0
    1.2202    2.8981   -0.8366 H   0  0  0  0  0  0
   -2.3818   -0.0871   -0.7933 H   0  0  0  0  0  0
   -2.1951   -4.2250    1.1209 H   0  0  0  0  0  0
   -1.7000   -4.4969   -1.8787 H   0  0  0  0  0  0
   -0.4706   -4.0943   -0.6561 H   0  0  0  0  0  0
   -1.2514   -5.6938   -0.6400 H   0  0  0  0  0  0
   -3.3987   -0.1392    2.0825 H   0  0  0  0  0  0
   -3.6320    1.2198    0.9569 H   0  0  0  0  0  0
   -4.5384   -1.6411    0.4107 H   0  0  0  0  0  0
   -6.8181   -0.7749    0.8591 H   0  0  0  0  0  0
   -5.7856   -0.6332    2.3020 H   0  0  0  0  0  0
   -6.1297    0.8036    1.3094 H   0  0  0  0  0  0
   -5.0535    1.0267   -0.9780 H   0  0  0  0  0  0
   -4.1016   -0.3341   -1.6186 H   0  0  0  0  0  0
   -5.8588   -0.5055   -1.3928 H   0  0  0  0  0  0
    0.0230    2.5308    1.9452 H   0  0  0  0  0  0
    1.2784    3.7258    1.5397 H   0  0  0  0  0  0
   -2.2477    2.8672    1.3052 H   0  0  0  0  0  0
   -3.9832    4.4168    0.4991 H   0  0  0  0  0  0
   -3.3382    6.5242   -0.5991 H   0  0  0  0  0  0
   -0.9577    7.0823   -0.8905 H   0  0  0  0  0  0
    0.7778    5.5349   -0.0803 H   0  0  0  0  0  0
    4.5532   -0.7057   -1.7800 H   0  0  0  0  0  0
    5.4964    0.7594   -1.4165 H   0  0  0  0  0  0
    5.0256   -2.8003   -0.6469 H   0  0  0  0  0  0
    6.7148   -4.1733    0.5039 H   0  0  0  0  0  0
    8.6898   -3.1046    1.5143 H   0  0  0  0  0  0
    8.9758   -0.6630    1.3730 H   0  0  0  0  0  0
    7.2889    0.7094    0.2181 H   0  0  0  0  0  0
  1  2  2  0  0  0
  1  3  1  0  0  0
  1 31  1  0  0  0
  3  4  1  0  0  0
  3  5  1  0  0  0
  5  6  1  0  0  0
  5 24  1  0  0  0
  5 39  1  0  0  0
  6  7  2  0  0  0
  6  8  1  0  0  0
  6  9  1  0  0  0
  9 10  1  0  0  0
 10 11  1  0  0  0
 10 20  1  0  0  0
 10 40  1  0  0  0
 11 12  2  0  0  0
 11 13  1  0  0  0
 13 14  1  0  0  0
 13 15  1  0  0  0
 15 16  1  0  0  0
 15 19  1  0  0  0
 15 41  1  0  0  0
 16 17  2  0  0  0
 16 18  1  0  0  0
 19 42  1  0  0  0
 19 43  1  0  0  0
 19 44  1  0  0  0
 20 21  1  0  0  0
 20 45  1  0  0  0
 20 46  1  0  0  0
 21 22  1  0  0  0
 21 23  1  0  0  0
 21 47  1  0  0  0
 22 48  1  0  0  0
 22 49  1  0  0  0
 22 50  1  0  0  0
 23 51  1  0  0  0
 23 52  1  0  0  0
 23 53  1  0  0  0
 24 25  1  0  0  0
 24 54  1  0  0  0
 24 55  1  0  0  0
 25 26  1  0  0  0
 25 30  2  0  0  0
 26 27  2  0  0  0
 26 56  1  0  0  0
 27 28  1  0  0  0
 27 57  1  0  0  0
 28 29  2  0  0  0
 28 58  1  0  0  0
 29 30  1  0  0  0
 29 59  1  0  0  0
 30 60  1  0  0  0
 31 32  1  0  0  0
 32 33  1  0  0  0
 32 61  1  0  0  0
 32 62  1  0  0  0
 33 34  1  0  0  0
 33 38  2  0  0  0
 34 35  2  0  0  0
 34 63  1  0  0  0
 35 36  1  0  0  0
 35 64  1  0  0  0
 36 37  2  0  0  0
 36 65  1  0  0  0
 37 38  1  0  0  0
 37 66  1  0  0  0
 38 67  1  0  0  0
M  CHG  2   8  -1  18  -1
M  END
>  <Activity>
4.52

>  <set>
1

>  <Min_dist>
999.9

>  <Avg_dist>
999.9

$$$$
Z_NH_GLNHOH
  Cerius2 12110214583D 1   1.00000                          
 
 46 46  0  0  0  0  0  0  0  0999 V2000
    6.4183   -1.4589    0.7468 C   0  0  0  0  0  0
    5.4594   -1.1603   -0.2030 C   0  0  0  0  0  0
    4.9854    0.1326   -0.3239 C   0  0  0  0  0  0
    5.4701    1.1268    0.5053 C   0  0  0  0  0  0
    6.4283    0.8280    1.4557 C   0  0  0  0  0  0
    6.9033   -0.4646    1.5756 C   0  0  0  0  0  0
    3.9407    0.4584   -1.3601 C   0  0  0  0  0  0
    2.6186    0.2862   -0.7851 O   0  0  0  0  0  0
    1.5234    0.5226   -1.5322 C   0  0  0  0  0  0
    0.2716    0.3596   -0.9878 N   0  0  0  0  0  0
    0.1509   -0.0052    0.1912 N   0  0  0  0  0  0
   -1.1019   -0.1683    0.7360 C   0  0  0  0  0  0
   -2.1980    0.0683   -0.0117 N   0  0  0  0  0  0
   -2.1036    0.3536   -0.9340 H   0  0  0  0  0  0
   -3.5320   -0.1054    0.5684 C   0  0  0  0  0  0
   -4.5096    0.8618   -0.1021 C   0  0  0  0  0  0
   -4.0390    2.3001    0.1229 C   0  0  0  0  0  0
   -5.0167    3.2674   -0.5476 C   0  0  0  0  0  0
   -3.9839    2.5898    1.6242 C   0  0  0  0  0  0
   -3.9955   -1.5222    0.3468 C   0  0  0  0  0  0
   -4.7445   -2.0467    1.1435 O   0  0  0  0  0  0
   -3.5777   -2.2062   -0.7367 N   0  0  0  0  0  0
   -2.9786   -1.7867   -1.3738 H   0  0  0  0  0  0
   -4.0132   -3.5374   -0.9449 O   0  0  0  0  0  0
   -1.2201   -0.5256    1.8908 O   0  0  0  0  0  0
    1.6415    0.8796   -2.6862 O   0  0  0  0  0  0
    6.7854   -2.4700    0.8442 H   0  0  0  0  0  0
    5.0808   -1.9370   -0.8509 H   0  0  0  0  0  0
    5.1003    2.1371    0.4103 H   0  0  0  0  0  0
    6.8075    1.6049    2.1031 H   0  0  0  0  0  0
    7.6518   -0.6981    2.3184 H   0  0  0  0  0  0
    4.0630    1.4909   -1.6872 H   0  0  0  0  0  0
    4.0553   -0.2093   -2.2140 H   0  0  0  0  0  0
   -3.4927    0.1009    1.6380 H   0  0  0  0  0  0
   -4.5489    0.6554   -1.1716 H   0  0  0  0  0  0
   -5.5021    0.7325    0.3296 H   0  0  0  0  0  0
   -3.0465    2.4294   -0.3087 H   0  0  0  0  0  0
   -4.6814    4.2921   -0.3873 H   0  0  0  0  0  0
   -5.0559    3.0610   -1.6171 H   0  0  0  0  0  0
   -6.0092    3.1381   -0.1159 H   0  0  0  0  0  0
   -4.9764    2.4605    2.0559 H   0  0  0  0  0  0
   -3.2874    1.9007    2.1019 H   0  0  0  0  0  0
   -3.6486    3.6145    1.7845 H   0  0  0  0  0  0
   -3.6034   -3.8402   -1.7667 H   0  0  0  0  0  0
   -0.4603    0.5177   -1.4871 H   0  0  0  0  0  0
    0.8828   -0.1633    0.6905 H   0  0  0  0  0  0
  1  2  1  0  0  0
  1  6  2  0  0  0
  1 27  1  0  0  0
  2  3  2  0  0  0
  2 28  1  0  0  0
  3  4  1  0  0  0
  3  7  1  0  0  0
  4  5  2  0  0  0
  4 29  1  0  0  0
  5  6  1  0  0  0
  5 30  1  0  0  0
  6 31  1  0  0  0
  7  8  1  0  0  0
  7 32  1  0  0  0
  7 33  1  0  0  0
  8  9  1  0  0  0
  9 10  1  0  0  0
  9 26  2  0  0  0
 10 11  1  0  0  0
 10 45  1  0  0  0
 11 12  1  0  0  0
 11 46  1  0  0  0
 12 13  1  0  0  0
 12 25  2  0  0  0
 13 14  1  0  0  0
 13 15  1  0  0  0
 15 16  1  0  0  0
 15 20  1  0  0  0
 15 34  1  0  0  0
 16 17  1  0  0  0
 16 35  1  0  0  0
 16 36  1  0  0  0
 17 18  1  0  0  0
 17 19  1  0  0  0
 17 37  1  0  0  0
 18 38  1  0  0  0
 18 39  1  0  0  0
 18 40  1  0  0  0
 19 41  1  0  0  0
 19 42  1  0  0  0
 19 43  1  0  0  0
 20 21  2  0  0  0
 20 22  1  0  0  0
 22 23  1  0  0  0
 22 24  1  0  0  0
 24 44  1  0  0  0
M  END
>  <Activity>
5.57

>  <set>
1

>  <Min_dist>
999.9

>  <Avg_dist>
999.9

$$$$
C6POLTNME
  Cerius2 12110214583D 1   1.00000                          
 
 70 71  0  0  0  0  0  0  0  0999 V2000
   -3.9728   -0.7825   -0.4757 C   0  0  0  0  0  0
   -4.9948    0.2363    0.0327 C   0  0  0  0  0  0
   -6.2668    0.1482   -0.8129 C   0  0  0  0  0  0
   -7.2888    1.1670   -0.3045 C   0  0  0  0  0  0
   -8.5608    1.0789   -1.1501 C   0  0  0  0  0  0
   -9.5828    2.0978   -0.6417 C   0  0  0  0  0  0
   -2.4572   -0.6776    0.5319 P   0  0  0  0  0  0
   -1.8641    0.7449    0.4233 O   0  0  0  0  0  0
   -2.7978   -0.9823    2.0077 O   0  5  0  0  0  0
   -1.3818   -1.7497   -0.0031 O   0  0  0  0  0  0
   -0.1832   -1.5418    0.7466 C   0  0  0  0  0  0
    0.9098   -1.0659   -0.1753 C   0  0  0  0  0  0
    0.6845   -0.9192   -1.3579 O   0  0  0  0  0  0
    2.1377   -0.8033    0.3145 N   0  0  0  0  0  0
    2.3179   -0.9206    1.2603 H   0  0  0  0  0  0
    3.2002   -0.3407   -0.5817 C   0  0  0  0  0  0
    3.9484   -1.5288   -1.1292 C   0  0  0  0  0  0
    4.4570   -1.4711   -2.2287 O   0  0  0  0  0  0
    4.0523   -2.6555   -0.3969 N   0  0  0  0  0  0
    3.6455   -2.7017    0.4825 H   0  0  0  0  0  0
    4.7796   -3.8105   -0.9291 C   0  0  0  0  0  0
    4.1664    0.5573    0.1936 C   0  0  0  0  0  0
    3.4182    1.7454    0.7410 C   0  0  0  0  0  0
    2.8090    1.8246    1.9345 C   0  0  0  0  0  0
    2.2352    3.0578    2.0846 N   0  0  0  0  0  0
    2.4671    3.8216    0.9627 C   0  0  0  0  0  0
    2.1177    5.1174    0.5975 C   0  0  0  0  0  0
    2.5095    5.6123   -0.6273 C   0  0  0  0  0  0
    3.2505    4.8305   -1.5025 C   0  0  0  0  0  0
    3.6043    3.5546   -1.1642 C   0  0  0  0  0  0
    3.2233    3.0352    0.0742 C   0  0  0  0  0  0
    0.2411   -2.8562    1.4049 C   0  0  0  0  0  0
    0.6333   -3.8648    0.3233 C   0  0  0  0  0  0
    1.2215   -5.1148    0.9809 C   0  0  0  0  0  0
   -0.6054   -4.2503   -0.4879 C   0  0  0  0  0  0
   -4.3913   -1.7861   -0.3991 H   0  0  0  0  0  0
   -3.7326   -0.5676   -1.5169 H   0  0  0  0  0  0
   -5.2351    0.0213    1.0740 H   0  0  0  0  0  0
   -4.5764    1.2399   -0.0439 H   0  0  0  0  0  0
   -6.0266    0.3632   -1.8541 H   0  0  0  0  0  0
   -6.6853   -0.8554   -0.7363 H   0  0  0  0  0  0
   -7.5291    0.9521    0.7368 H   0  0  0  0  0  0
   -6.8704    2.1706   -0.3811 H   0  0  0  0  0  0
   -8.3206    1.2939   -2.1913 H   0  0  0  0  0  0
   -8.9793    0.0754   -1.0735 H   0  0  0  0  0  0
  -10.4890    2.0350   -1.2441 H   0  0  0  0  0  0
   -9.8231    1.8828    0.3996 H   0  0  0  0  0  0
   -9.1644    3.1013   -0.7183 H   0  0  0  0  0  0
   -0.3618   -0.7910    1.5164 H   0  0  0  0  0  0
    2.7614    0.2231   -1.4049 H   0  0  0  0  0  0
    4.7569   -4.6212   -0.2008 H   0  0  0  0  0  0
    4.3092   -4.1408   -1.8553 H   0  0  0  0  0  0
    5.8138   -3.5289   -1.1272 H   0  0  0  0  0  0
    4.6052   -0.0065    1.0168 H   0  0  0  0  0  0
    4.9569    0.9015   -0.4732 H   0  0  0  0  0  0
    2.7762    1.0323    2.6676 H   0  0  0  0  0  0
    1.7390    3.3502    2.8651 H   0  0  0  0  0  0
    1.5410    5.7334    1.2715 H   0  0  0  0  0  0
    2.2370    6.6186   -0.9092 H   0  0  0  0  0  0
    3.5497    5.2336   -2.4588 H   0  0  0  0  0  0
    4.1807    2.9520   -1.8505 H   0  0  0  0  0  0
    1.0935   -2.6760    2.0599 H   0  0  0  0  0  0
   -0.5885   -3.2542    1.9892 H   0  0  0  0  0  0
    1.3761   -3.4183   -0.3377 H   0  0  0  0  0  0
    1.5010   -5.8334    0.2104 H   0  0  0  0  0  0
    2.1040   -4.8402    1.5589 H   0  0  0  0  0  0
    0.4788   -5.5613    1.6420 H   0  0  0  0  0  0
   -1.3947   -4.5789    0.1882 H   0  0  0  0  0  0
   -0.9503   -3.3868   -1.0567 H   0  0  0  0  0  0
   -0.3535   -5.0597   -1.1731 H   0  0  0  0  0  0
  1  2  1  0  0  0
  1  7  1  0  0  0
  1 36  1  0  0  0
  1 37  1  0  0  0
  2  3  1  0  0  0
  2 38  1  0  0  0
  2 39  1  0  0  0
  3  4  1  0  0  0
  3 40  1  0  0  0
  3 41  1  0  0  0
  4  5  1  0  0  0
  4 42  1  0  0  0
  4 43  1  0  0  0
  5  6  1  0  0  0
  5 44  1  0  0  0
  5 45  1  0  0  0
  6 46  1  0  0  0
  6 47  1  0  0  0
  6 48  1  0  0  0
  7  8  2  0  0  0
  7  9  1  0  0  0
  7 10  1  0  0  0
 10 11  1  0  0  0
 11 12  1  0  0  0
 11 32  1  0  0  0
 11 49  1  0  0  0
 12 13  2  0  0  0
 12 14  1  0  0  0
 14 15  1  0  0  0
 14 16  1  0  0  0
 16 17  1  0  0  0
 16 22  1  0  0  0
 16 50  1  0  0  0
 17 18  2  0  0  0
 17 19  1  0  0  0
 19 20  1  0  0  0
 19 21  1  0  0  0
 21 51  1  0  0  0
 21 52  1  0  0  0
 21 53  1  0  0  0
 22 23  1  0  0  0
 22 54  1  0  0  0
 22 55  1  0  0  0
 23 24  2  0  0  0
 23 31  1  0  0  0
 24 25  1  0  0  0
 24 56  1  0  0  0
 25 26  1  0  0  0
 25 57  1  0  0  0
 26 27  2  0  0  0
 26 31  1  0  0  0
 27 28  1  0  0  0
 27 58  1  0  0  0
 28 29  2  0  0  0
 28 59  1  0  0  0
 29 30  1  0  0  0
 29 60  1  0  0  0
 30 31  2  0  0  0
 30 61  1  0  0  0
 32 33  1  0  0  0
 32 62  1  0  0  0
 32 63  1  0  0  0
 33 34  1  0  0  0
 33 35  1  0  0  0
 33 64  1  0  0  0
 34 65  1  0  0  0
 34 66  1  0  0  0
 34 67  1  0  0  0
 35 68  1  0  0  0
 35 69  1  0  0  0
 35 70  1  0  0  0
M  CHG  1   9  -1
M  END
>  <Activity>
5.84

>  <set>
1

>  <Min_dist>
999.9

>  <Avg_dist>
999.9

$$$$
CHO_OHLEU_AGNH2
  Cerius2 12110214583D 1   1.00000                          
 
 43 42  0  0  0  0  0  0  0  0999 V2000
   -2.3954   -0.0738    0.3447 C   0  0  0  0  0  0
   -3.4770    0.9100    0.2523 N   0  0  0  0  0  0
   -3.7374    1.5169   -0.9226 C   0  0  0  0  0  0
   -3.1487    1.2779   -1.7960 H   0  0  0  0  0  0
   -4.6328    2.3313   -0.9991 O   0  0  0  0  0  0
   -4.2489    1.2233    1.3973 O   0  0  0  0  0  0
   -1.0889    0.5799   -0.0249 C   0  0  0  0  0  0
   -1.0730    1.4990   -0.8160 O   0  0  0  0  0  0
    0.0621    0.1431    0.5238 N   0  0  0  0  0  0
    0.0494   -0.5920    1.1565 H   0  0  0  0  0  0
    1.3323    0.7786    0.1645 C   0  0  0  0  0  0
    1.6127    1.9365    1.1245 C   0  0  0  0  0  0
    2.4448   -0.2334    0.2596 C   0  0  0  0  0  0
    2.2008   -1.3733    0.5944 O   0  0  0  0  0  0
    3.7111    0.1282   -0.0275 N   0  0  0  0  0  0
    3.9062    1.0398   -0.2953 H   0  0  0  0  0  0
    4.7926   -0.8556    0.0649 C   0  0  0  0  0  0
    6.0992   -0.2019   -0.3047 C   0  0  0  0  0  0
    7.2397   -0.9200   -0.2906 N   0  0  0  0  0  0
    8.0807   -0.4992   -0.5285 H   0  0  0  0  0  0
    7.2195   -1.8575   -0.0427 H   0  0  0  0  0  0
    6.1245    0.9703   -0.6147 O   0  0  0  0  0  0
   -2.6759   -1.2317   -0.6153 C   0  0  0  0  0  0
   -4.0024   -1.8954   -0.2401 C   0  0  0  0  0  0
   -4.2828   -3.0533   -1.2001 C   0  0  0  0  0  0
   -3.9189   -2.4286    1.1915 C   0  0  0  0  0  0
   -2.3360   -0.4537    1.3646 H   0  0  0  0  0  0
   -4.8990    1.8847    1.1237 H   0  0  0  0  0  0
    1.2728    1.1585   -0.8554 H   0  0  0  0  0  0
    1.6721    1.5566    2.1444 H   0  0  0  0  0  0
    2.5577    2.4093    0.8572 H   0  0  0  0  0  0
    0.8080    2.6685    1.0557 H   0  0  0  0  0  0
    4.8521   -1.2355    1.0848 H   0  0  0  0  0  0
    4.5929   -1.6805   -0.6190 H   0  0  0  0  0  0
   -2.7353   -0.8518   -1.6352 H   0  0  0  0  0  0
   -1.8711   -1.9637   -0.5465 H   0  0  0  0  0  0
   -4.8071   -1.1634   -0.3088 H   0  0  0  0  0  0
   -5.2279   -3.5261   -0.9328 H   0  0  0  0  0  0
   -4.3423   -2.6734   -2.2200 H   0  0  0  0  0  0
   -3.4781   -3.7853   -1.1313 H   0  0  0  0  0  0
   -3.1142   -3.1606    1.2603 H   0  0  0  0  0  0
   -3.7191   -1.6037    1.8754 H   0  0  0  0  0  0
   -4.8640   -2.9014    1.4588 H   0  0  0  0  0  0
  1  2  1  0  0  0
  1  7  1  0  0  0
  1 23  1  0  0  0
  1 27  1  0  0  0
  2  3  1  0  0  0
  2  6  1  0  0  0
  3  4  1  0  0  0
  3  5  2  0  0  0
  6 28  1  0  0  0
  7  8  2  0  0  0
  7  9  1  0  0  0
  9 10  1  0  0  0
  9 11  1  0  0  0
 11 12  1  0  0  0
 11 13  1  0  0  0
 11 29  1  0  0  0
 12 30  1  0  0  0
 12 31  1  0  0  0
 12 32  1  0  0  0
 13 14  2  0  0  0
 13 15  1  0  0  0
 15 16  1  0  0  0
 15 17  1  0  0  0
 17 18  1  0  0  0
 17 33  1  0  0  0
 17 34  1  0  0  0
 18 19  1  0  0  0
 18 22  2  0  0  0
 19 20  1  0  0  0
 19 21  1  0  0  0
 23 24  1  0  0  0
 23 35  1  0  0  0
 23 36  1  0  0  0
 24 25  1  0  0  0
 24 26  1  0  0  0
 24 37  1  0  0  0
 25 38  1  0  0  0
 25 39  1  0  0  0
 25 40  1  0  0  0
 26 41  1  0  0  0
 26 42  1  0  0  0
 26 43  1  0  0  0
M  END
>  <Activity>
2.47

>  <set>
1

>  <Min_dist>
999.9

>  <Avg_dist>
999.9

$$$$
DAH50
  Cerius2 12110214583D 1   1.00000                          
 
 94 97  0  0  0  0  0  0  0  0999 V2000
    9.5374    3.0221    2.0846 C   0  0  0  0  0  0
    8.9254    2.0698    1.2912 C   0  0  0  0  0  0
    8.0437    2.4589    0.3002 C   0  0  0  0  0  0
    7.7736    3.8002    0.1029 C   0  0  0  0  0  0
    8.3849    4.7524    0.8970 C   0  0  0  0  0  0
    9.2677    4.3634    1.8870 C   0  0  0  0  0  0
    7.3772    1.4208   -0.5654 C   0  0  0  0  0  0
    6.1270    1.0094    0.0478 O   0  0  0  0  0  0
    5.3554    0.0836   -0.5524 C   0  0  0  0  0  0
    5.7053   -0.4077   -1.6072 O   0  0  0  0  0  0
    4.1950   -0.2983    0.0169 N   0  0  0  0  0  0
    3.9157    0.0939    0.8590 H   0  0  0  0  0  0
    3.3554   -1.3057   -0.6362 C   0  0  0  0  0  0
    3.7573   -2.6989   -0.1478 C   0  0  0  0  0  0
    5.2032   -2.9528   -0.4882 C   0  0  0  0  0  0
    6.1958   -2.6050    0.4089 C   0  0  0  0  0  0
    7.5222   -2.8379    0.0966 C   0  0  0  0  0  0
    7.8559   -3.4189   -1.1125 C   0  0  0  0  0  0
    6.8632   -3.7675   -2.0091 C   0  0  0  0  0  0
    5.5366   -3.5386   -1.6951 C   0  0  0  0  0  0
    1.9095   -1.0518   -0.2958 C   0  0  0  0  0  0
    1.6098   -0.1210    0.4216 O   0  0  0  0  0  0
    0.9494   -1.8591   -0.7887 N   0  0  0  0  0  0
    1.1891   -2.6035   -1.3625 H   0  0  0  0  0  0
   -0.4563   -1.6123   -0.4578 C   0  0  0  0  0  0
   -1.3331   -2.6644   -1.1398 C   0  0  0  0  0  0
   -2.8011   -2.4066   -0.7942 C   0  0  0  0  0  0
   -3.6647   -3.4429   -1.4660 C   0  0  0  0  0  0
   -4.1565   -3.2119   -2.5453 O   0  0  0  0  0  0
   -3.8877   -4.6224   -0.8654 O   0  5  0  0  0  0
   -2.9829   -2.4865    0.6613 N   0  0  0  0  0  0
   -4.1586   -1.6678    0.9855 C   0  0  0  0  0  0
   -4.7745   -2.1568    2.2979 C   0  0  0  0  0  0
   -5.3306   -3.5690    2.1053 C   0  0  0  0  0  0
   -5.8146   -4.1144    3.4503 C   0  0  0  0  0  0
   -6.5014   -3.5263    1.1212 C   0  0  0  0  0  0
   -3.7424   -0.2268    1.1321 C   0  0  0  0  0  0
   -2.5807    0.0871    0.9813 O   0  0  0  0  0  0
   -4.6611    0.7130    1.4307 N   0  0  0  0  0  0
   -5.5903    0.4619    1.5513 H   0  0  0  0  0  0
   -4.2565    2.1137    1.5732 C   0  0  0  0  0  0
   -5.4181    3.0238    1.1691 C   0  0  0  0  0  0
   -5.7931    2.7527   -0.2651 C   0  0  0  0  0  0
   -6.6944    1.8577   -0.6993 C   0  0  0  0  0  0
   -6.7673    1.8940   -2.0652 N   0  0  0  0  0  0
   -5.8924    2.8373   -2.5556 C   0  0  0  0  0  0
   -5.2479    3.4204   -1.4495 C   0  0  0  0  0  0
   -4.2956    4.4224   -1.6466 C   0  0  0  0  0  0
   -3.9945    4.8319   -2.9148 C   0  0  0  0  0  0
   -4.6281    4.2599   -4.0097 C   0  0  0  0  0  0
   -5.5730    3.2724   -3.8379 C   0  0  0  0  0  0
   -3.8814    2.3848    3.0074 C   0  0  0  0  0  0
   -3.0501    3.2225    3.2665 O   0  0  0  0  0  0
   -4.4709    1.6958    3.9971 O   0  5  0  0  0  0
   10.2229    2.7179    2.8618 H   0  0  0  0  0  0
    9.1364    1.0219    1.4453 H   0  0  0  0  0  0
    7.0853    4.1042   -0.6718 H   0  0  0  0  0  0
    8.1745    5.8003    0.7424 H   0  0  0  0  0  0
    9.7451    5.1073    2.5076 H   0  0  0  0  0  0
    7.1772    1.8430   -1.5503 H   0  0  0  0  0  0
    8.0337    0.5567   -0.6671 H   0  0  0  0  0  0
    3.4903   -1.2464   -1.7162 H   0  0  0  0  0  0
    3.6224   -2.7582    0.9322 H   0  0  0  0  0  0
    3.1326   -3.4484   -0.6337 H   0  0  0  0  0  0
    5.9351   -2.1511    1.3535 H   0  0  0  0  0  0
    8.2977   -2.5655    0.7972 H   0  0  0  0  0  0
    8.8922   -3.6002   -1.3567 H   0  0  0  0  0  0
    7.1240   -4.2211   -2.9539 H   0  0  0  0  0  0
    4.7611   -3.8109   -2.3956 H   0  0  0  0  0  0
   -0.5911   -1.6716    0.6222 H   0  0  0  0  0  0
   -0.7426   -0.6197   -0.8057 H   0  0  0  0  0  0
   -1.1982   -2.6050   -2.2198 H   0  0  0  0  0  0
   -1.0468   -3.6569   -0.7919 H   0  0  0  0  0  0
   -3.0874   -1.4141   -1.1422 H   0  0  0  0  0  0
   -3.2286   -3.4425    0.8707 H   0  0  0  0  0  0
   -4.8934   -1.7541    0.1850 H   0  0  0  0  0  0
   -4.0103   -2.1701    3.0751 H   0  0  0  0  0  0
   -5.5812   -1.4857    2.5930 H   0  0  0  0  0  0
   -4.5480   -4.2171    1.7108 H   0  0  0  0  0  0
   -6.2108   -5.1206    3.3131 H   0  0  0  0  0  0
   -4.9805   -4.1449    4.1514 H   0  0  0  0  0  0
   -6.5973   -3.4664    3.8448 H   0  0  0  0  0  0
   -7.2419   -2.8058    1.4687 H   0  0  0  0  0  0
   -6.1385   -3.2286    0.1375 H   0  0  0  0  0  0
   -6.9579   -4.5139    1.0565 H   0  0  0  0  0  0
   -3.3991    2.3115    0.9299 H   0  0  0  0  0  0
   -6.2754    2.8260    1.8124 H   0  0  0  0  0  0
   -5.1170    4.0660    1.2751 H   0  0  0  0  0  0
   -7.2755    1.2051   -0.0646 H   0  0  0  0  0  0
   -7.3485    1.3379   -2.6072 H   0  0  0  0  0  0
   -3.7992    4.8723   -0.7996 H   0  0  0  0  0  0
   -3.2579    5.6069   -3.0667 H   0  0  0  0  0  0
   -4.3797    4.5945   -5.0061 H   0  0  0  0  0  0
   -6.0604    2.8337   -4.6960 H   0  0  0  0  0  0
  1  2  1  0  0  0
  1  6  2  0  0  0
  1 55  1  0  0  0
  2  3  2  0  0  0
  2 56  1  0  0  0
  3  4  1  0  0  0
  3  7  1  0  0  0
  4  5  2  0  0  0
  4 57  1  0  0  0
  5  6  1  0  0  0
  5 58  1  0  0  0
  6 59  1  0  0  0
  7  8  1  0  0  0
  7 60  1  0  0  0
  7 61  1  0  0  0
  8  9  1  0  0  0
  9 10  2  0  0  0
  9 11  1  0  0  0
 11 12  1  0  0  0
 11 13  1  0  0  0
 13 14  1  0  0  0
 13 21  1  0  0  0
 13 62  1  0  0  0
 14 15  1  0  0  0
 14 63  1  0  0  0
 14 64  1  0  0  0
 15 16  1  0  0  0
 15 20  2  0  0  0
 16 17  2  0  0  0
 16 65  1  0  0  0
 17 18  1  0  0  0
 17 66  1  0  0  0
 18 19  2  0  0  0
 18 67  1  0  0  0
 19 20  1  0  0  0
 19 68  1  0  0  0
 20 69  1  0  0  0
 21 22  2  0  0  0
 21 23  1  0  0  0
 23 24  1  0  0  0
 23 25  1  0  0  0
 25 26  1  0  0  0
 25 70  1  0  0  0
 25 71  1  0  0  0
 26 27  1  0  0  0
 26 72  1  0  0  0
 26 73  1  0  0  0
 27 28  1  0  0  0
 27 31  1  0  0  0
 27 74  1  0  0  0
 28 29  2  0  0  0
 28 30  1  0  0  0
 31 32  1  0  0  0
 31 75  1  0  0  0
 32 33  1  0  0  0
 32 37  1  0  0  0
 32 76  1  0  0  0
 33 34  1  0  0  0
 33 77  1  0  0  0
 33 78  1  0  0  0
 34 35  1  0  0  0
 34 36  1  0  0  0
 34 79  1  0  0  0
 35 80  1  0  0  0
 35 81  1  0  0  0
 35 82  1  0  0  0
 36 83  1  0  0  0
 36 84  1  0  0  0
 36 85  1  0  0  0
 37 38  2  0  0  0
 37 39  1  0  0  0
 39 40  1  0  0  0
 39 41  1  0  0  0
 41 42  1  0  0  0
 41 52  1  0  0  0
 41 86  1  0  0  0
 42 43  1  0  0  0
 42 87  1  0  0  0
 42 88  1  0  0  0
 43 44  2  0  0  0
 43 47  1  0  0  0
 44 45  1  0  0  0
 44 89  1  0  0  0
 45 46  1  0  0  0
 45 90  1  0  0  0
 46 47  2  0  0  0
 46 51  1  0  0  0
 47 48  1  0  0  0
 48 49  2  0  0  0
 48 91  1  0  0  0
 49 50  1  0  0  0
 49 92  1  0  0  0
 50 51  2  0  0  0
 50 93  1  0  0  0
 51 94  1  0  0  0
 52 53  2  0  0  0
 52 54  1  0  0  0
M  CHG  2  30  -1  54  -1
M  END
>  <Activity>
7.96

>  <set>
1

>  <Min_dist>
999.9

>  <Avg_dist>
999.9

$$$$
NHOHMALAGNH2
  Cerius2 12110214583D 1   1.00000                          
 
 34 33  0  0  0  0  0  0  0  0999 V2000
    0.7064    0.5574    0.3545 C   0  0  0  0  0  0
   -0.4994   -0.2319    0.6181 N   0  0  0  0  0  0
   -0.4342   -1.0702    1.1017 H   0  0  0  0  0  0
   -1.6992    0.2068    0.1886 C   0  0  0  0  0  0
   -1.7807    1.2550   -0.4160 O   0  0  0  0  0  0
   -2.9395   -0.6051    0.4597 C   0  0  0  0  0  0
   -4.1383    0.1003   -0.1203 C   0  0  0  0  0  0
   -5.3650   -0.4445    0.0019 N   0  0  0  0  0  0
   -5.4763   -1.2905    0.4631 H   0  0  0  0  0  0
   -6.4915    0.2183   -0.5431 O   0  0  0  0  0  0
   -3.9992    1.1581   -0.6970 O   0  0  0  0  0  0
   -2.7974   -1.9846   -0.1865 C   0  0  0  0  0  0
    0.9377    1.5357    1.5079 C   0  0  0  0  0  0
    1.8928   -0.3637    0.2315 C   0  0  0  0  0  0
    1.7456   -1.5615    0.3521 O   0  0  0  0  0  0
    3.1173    0.1436   -0.0125 N   0  0  0  0  0  0
    3.2350    1.1016   -0.1090 H   0  0  0  0  0  0
    4.2706   -0.7518   -0.1321 C   0  0  0  0  0  0
    5.5110    0.0601   -0.4032 C   0  0  0  0  0  0
    5.4387    1.2678   -0.4882 O   0  0  0  0  0  0
    6.7006   -0.5559   -0.5513 N   0  0  0  0  0  0
    7.4989   -0.0333   -0.7258 H   0  0  0  0  0  0
    6.7584   -1.5217   -0.4833 H   0  0  0  0  0  0
    0.5806    1.1138   -0.5743 H   0  0  0  0  0  0
   -3.0708   -0.7197    1.5357 H   0  0  0  0  0  0
   -7.2616   -0.3331   -0.3480 H   0  0  0  0  0  0
   -2.6661   -1.8700   -1.2625 H   0  0  0  0  0  0
   -1.9303   -2.4948    0.2330 H   0  0  0  0  0  0
   -3.6945   -2.5718    0.0095 H   0  0  0  0  0  0
    1.0635    0.9793    2.4366 H   0  0  0  0  0  0
    1.8348    2.1230    1.3118 H   0  0  0  0  0  0
    0.0796    2.2019    1.5968 H   0  0  0  0  0  0
    4.3964   -1.3083    0.7967 H   0  0  0  0  0  0
    4.1058   -1.4488   -0.9538 H   0  0  0  0  0  0
  1  2  1  0  0  0
  1 13  1  0  0  0
  1 14  1  0  0  0
  1 24  1  0  0  0
  2  3  1  0  0  0
  2  4  1  0  0  0
  4  5  2  0  0  0
  4  6  1  0  0  0
  6  7  1  0  0  0
  6 12  1  0  0  0
  6 25  1  0  0  0
  7  8  1  0  0  0
  7 11  2  0  0  0
  8  9  1  0  0  0
  8 10  1  0  0  0
 10 26  1  0  0  0
 12 27  1  0  0  0
 12 28  1  0  0  0
 12 29  1  0  0  0
 13 30  1  0  0  0
 13 31  1  0  0  0
 13 32  1  0  0  0
 14 15  2  0  0  0
 14 16  1  0  0  0
 16 17  1  0  0  0
 16 18  1  0  0  0
 18 19  1  0  0  0
 18 33  1  0  0  0
 18 34  1  0  0  0
 19 20  2  0  0  0
 19 21  1  0  0  0
 21 22  1  0  0  0
 21 23  1  0  0  0
M  END
>  <Activity>
2.96

>  <set>
1

>  <Min_dist>
999.9

>  <Avg_dist>
999.9

$$$$
PAAOH
  Cerius2 12110214583D 1   1.00000                          
 
 25 24  0  0  0  0  0  0  0  0999 V2000
   -4.3509   -0.6480    0.6713 O   0  0  0  0  0  0
   -3.1021   -0.1640   -0.1415 P   0  0  0  0  0  0
   -1.9043    0.3497    0.9233 N   0  0  0  0  0  0
   -1.5974   -0.4669    1.4303 H   0  0  0  0  0  0
   -0.7683    0.7877    0.1013 C   0  0  0  0  0  0
    0.4450   -0.0398    0.4393 C   0  0  0  0  0  0
    0.3707   -0.9089    1.2820 O   0  0  0  0  0  0
    1.6126    0.1859   -0.1948 N   0  0  0  0  0  0
    1.6721    0.8810   -0.8687 H   0  0  0  0  0  0
    2.7921   -0.6186    0.1338 C   0  0  0  0  0  0
    2.8349   -1.8532   -0.7688 C   0  0  0  0  0  0
    4.0366    0.2038   -0.0805 C   0  0  0  0  0  0
    5.0295   -0.0048    0.5965 O   0  0  0  0  0  0
    4.0510    1.0779   -0.9310 O   0  5  0  0  0  0
   -0.4741    2.2626    0.3824 C   0  0  0  0  0  0
   -2.5552   -1.3464   -1.0118 O   0  5  0  0  0  0
   -3.5152    1.0242   -1.0753 O   0  5  0  0  0  0
   -1.0125    0.6605   -0.9533 H   0  0  0  0  0  0
    2.7389   -0.9323    1.1763 H   0  0  0  0  0  0
    2.8880   -1.5395   -1.8113 H   0  0  0  0  0  0
    3.7124   -2.4518   -0.5243 H   0  0  0  0  0  0
    1.9347   -2.4480   -0.6138 H   0  0  0  0  0  0
   -0.2299    2.3898    1.4371 H   0  0  0  0  0  0
    0.3688    2.5876   -0.2275 H   0  0  0  0  0  0
   -1.3516    2.8611    0.1379 H   0  0  0  0  0  0
  1  2  2  0  0  0
  2  3  1  0  0  0
  2 16  1  0  0  0
  2 17  1  0  0  0
  3  4  1  0  0  0
  3  5  1  0  0  0
  5  6  1  0  0  0
  5 15  1  0  0  0
  5 18  1  0  0  0
  6  7  2  0  0  0
  6  8  1  0  0  0
  8  9  1  0  0  0
  8 10  1  0  0  0
 10 11  1  0  0  0
 10 12  1  0  0  0
 10 19  1  0  0  0
 11 20  1  0  0  0
 11 21  1  0  0  0
 11 22  1  0  0  0
 12 13  2  0  0  0
 12 14  1  0  0  0
 15 23  1  0  0  0
 15 24  1  0  0  0
 15 25  1  0  0  0
M  CHG  3  14  -1  16  -1  17  -1
M  END
>  <Activity>
4.06

>  <set>
1

>  <Min_dist>
999.9

>  <Avg_dist>
999.9

$$$$
PPHEOH
  Cerius2 12110214583D 1   1.00000                          
 
 25 25  0  0  0  0  0  0  0  0999 V2000
    0.8035   -1.6356   -0.3748 C   0  0  0  0  0  0
   -0.4128   -0.8659    0.1438 C   0  0  0  0  0  0
   -0.5679    0.3782   -0.6219 N   0  0  0  0  0  0
   -1.6173    1.2394    0.1335 P   0  0  0  0  0  0
   -1.6859    2.7051   -0.5292 O   0  5  0  0  0  0
   -3.0620    0.5362    0.0317 O   0  5  0  0  0  0
   -1.1914    1.3694    1.6807 O   0  0  0  0  0  0
   -1.6491   -1.7124   -0.0174 C   0  0  0  0  0  0
   -2.0175   -2.4222    0.8883 O   0  0  0  0  0  0
   -2.3410   -1.6778   -1.1671 O   0  5  0  0  0  0
    2.0399   -0.7891   -0.2136 C   0  0  0  0  0  0
    2.7803   -0.8620    0.9514 C   0  0  0  0  0  0
    3.9144   -0.0854    1.0992 C   0  0  0  0  0  0
    4.3082    0.7635    0.0819 C   0  0  0  0  0  0
    3.5682    0.8357   -1.0835 C   0  0  0  0  0  0
    2.4366    0.0560   -1.2331 C   0  0  0  0  0  0
    0.9186   -2.5587    0.1933 H   0  0  0  0  0  0
    0.6607   -1.8732   -1.4290 H   0  0  0  0  0  0
   -0.2700   -0.6283    1.1980 H   0  0  0  0  0  0
    2.4727   -1.5252    1.7462 H   0  0  0  0  0  0
    4.4925   -0.1418    2.0097 H   0  0  0  0  0  0
    5.1938    1.3707    0.1977 H   0  0  0  0  0  0
    3.8757    1.4992   -1.8782 H   0  0  0  0  0  0
    1.8585    0.1123   -2.1436 H   0  0  0  0  0  0
   -0.0904    0.5062   -1.3740 H   0  0  0  0  0  0
  1  2  1  0  0  0
  1 11  1  0  0  0
  1 17  1  0  0  0
  1 18  1  0  0  0
  2  3  1  0  0  0
  2  8  1  0  0  0
  2 19  1  0  0  0
  3  4  1  0  0  0
  3 25  1  0  0  0
  4  5  1  0  0  0
  4  6  1  0  0  0
  4  7  2  0  0  0
  8  9  2  0  0  0
  8 10  1  0  0  0
 11 12  1  0  0  0
 11 16  2  0  0  0
 12 13  2  0  0  0
 12 20  1  0  0  0
 13 14  1  0  0  0
 13 21  1  0  0  0
 14 15  2  0  0  0
 14 22  1  0  0  0
 15 16  1  0  0  0
 15 23  1  0  0  0
 16 24  1  0  0  0
M  CHG  3   5  -1   6  -1  10  -1
M  END
>  <Activity>
4.14

>  <set>
1

>  <Min_dist>
999.9

>  <Avg_dist>
999.9

$$$$
PPPHE
  Cerius2 12110214583D 1   1.00000                          
 
 40 41  0  0  0  0  0  0  0  0999 V2000
    1.4123   -0.3601   -0.1538 C   0  0  0  0  0  0
    0.0788   -0.8209    0.3756 C   0  0  0  0  0  0
   -0.0163   -1.2160    1.5183 O   0  0  0  0  0  0
   -1.0082   -0.7940   -0.4208 N   0  0  0  0  0  0
   -0.9321   -0.4780   -1.3348 H   0  0  0  0  0  0
   -2.3046   -1.2420    0.0938 C   0  0  0  0  0  0
   -2.4642   -2.7183   -0.1633 C   0  0  0  0  0  0
   -1.9264   -3.2304   -1.1308 O   0  0  0  0  0  0
   -3.1311   -3.4010    0.5962 O   0  5  0  0  0  0
   -3.4257   -0.4772   -0.6127 C   0  0  0  0  0  0
   -3.2661    0.9991   -0.3556 C   0  0  0  0  0  0
   -2.5102    1.7729   -1.2163 C   0  0  0  0  0  0
   -2.3638    3.1271   -0.9805 C   0  0  0  0  0  0
   -2.9736    3.7076    0.1159 C   0  0  0  0  0  0
   -3.7303    2.9340    0.9761 C   0  0  0  0  0  0
   -3.8802    1.5806    0.7378 C   0  0  0  0  0  0
    2.4700   -0.4920    0.9438 C   0  0  0  0  0  0
    3.8036   -0.0312    0.4144 C   0  0  0  0  0  0
    4.1751    1.2946    0.5369 C   0  0  0  0  0  0
    5.3984    1.7174    0.0513 C   0  0  0  0  0  0
    6.2503    0.8142   -0.5565 C   0  0  0  0  0  0
    5.8791   -0.5119   -0.6782 C   0  0  0  0  0  0
    4.6577   -0.9354   -0.1887 C   0  0  0  0  0  0
    1.6964   -0.9749   -1.0079 H   0  0  0  0  0  0
    1.3394    0.6821   -0.4647 H   0  0  0  0  0  0
   -2.3551   -1.0524    1.1660 H   0  0  0  0  0  0
   -3.3752   -0.6668   -1.6849 H   0  0  0  0  0  0
   -4.3902   -0.8105   -0.2298 H   0  0  0  0  0  0
   -2.0338    1.3193   -2.0729 H   0  0  0  0  0  0
   -1.7727    3.7314   -1.6526 H   0  0  0  0  0  0
   -2.8587    4.7655    0.3005 H   0  0  0  0  0  0
   -4.2064    3.3875    1.8329 H   0  0  0  0  0  0
   -4.4713    0.9763    1.4099 H   0  0  0  0  0  0
    2.1860    0.1229    1.7978 H   0  0  0  0  0  0
    2.5430   -1.5342    1.2547 H   0  0  0  0  0  0
    3.5096    2.0003    1.0117 H   0  0  0  0  0  0
    5.6884    2.7534    0.1463 H   0  0  0  0  0  0
    7.2057    1.1446   -0.9366 H   0  0  0  0  0  0
    6.5445   -1.2175   -1.1533 H   0  0  0  0  0  0
    4.3677   -1.9714   -0.2837 H   0  0  0  0  0  0
  1  2  1  0  0  0
  1 17  1  0  0  0
  1 24  1  0  0  0
  1 25  1  0  0  0
  2  3  2  0  0  0
  2  4  1  0  0  0
  4  5  1  0  0  0
  4  6  1  0  0  0
  6  7  1  0  0  0
  6 10  1  0  0  0
  6 26  1  0  0  0
  7  8  2  0  0  0
  7  9  1  0  0  0
 10 11  1  0  0  0
 10 27  1  0  0  0
 10 28  1  0  0  0
 11 12  1  0  0  0
 11 16  2  0  0  0
 12 13  2  0  0  0
 12 29  1  0  0  0
 13 14  1  0  0  0
 13 30  1  0  0  0
 14 15  2  0  0  0
 14 31  1  0  0  0
 15 16  1  0  0  0
 15 32  1  0  0  0
 16 33  1  0  0  0
 17 18  1  0  0  0
 17 34  1  0  0  0
 17 35  1  0  0  0
 18 19  1  0  0  0
 18 23  2  0  0  0
 19 20  2  0  0  0
 19 36  1  0  0  0
 20 21  1  0  0  0
 20 37  1  0  0  0
 21 22  2  0  0  0
 21 38  1  0  0  0
 22 23  1  0  0  0
 22 39  1  0  0  0
 23 40  1  0  0  0
M  CHG  1   9  -1
M  END
>  <Activity>
2.79

>  <set>
1

>  <Min_dist>
999.9

>  <Avg_dist>
999.9

$$$$
PO3_FAGNH2
  Cerius2 12110214583D 1   1.00000                          
 
 44 44  0  0  0  0  0  0  0  0999 V2000
   -1.5605   -0.0283    0.2736 C   0  0  0  0  0  0
   -2.5593   -1.0066    0.7248 N   0  0  0  0  0  0
   -2.5719   -2.1494   -0.3275 P   0  0  0  0  0  0
   -3.6135   -3.2886    0.1300 O   0  5  0  0  0  0
   -3.0173   -1.5577   -1.7570 O   0  5  0  0  0  0
   -1.0979   -2.7861   -0.4459 O   0  0  0  0  0  0
   -1.8237    1.3184    0.9504 C   0  0  0  0  0  0
   -3.1418    1.8714    0.4730 C   0  0  0  0  0  0
   -4.2883    1.6646    1.2170 C   0  0  0  0  0  0
   -5.4974    2.1718    0.7791 C   0  0  0  0  0  0
   -5.5598    2.8862   -0.4027 C   0  0  0  0  0  0
   -4.4132    3.0938   -1.1463 C   0  0  0  0  0  0
   -3.2033    2.5903   -0.7061 C   0  0  0  0  0  0
   -0.1814   -0.5133    0.6395 C   0  0  0  0  0  0
   -0.0281   -1.2362    1.6012 O   0  0  0  0  0  0
    0.8816   -0.1438   -0.1021 N   0  0  0  0  0  0
    0.7590    0.4344   -0.8713 H   0  0  0  0  0  0
    2.2223   -0.6152    0.2536 C   0  0  0  0  0  0
    2.5050   -1.9370   -0.4634 C   0  0  0  0  0  0
    3.2432    0.4114   -0.1647 C   0  0  0  0  0  0
    2.8860    1.4360   -0.7064 O   0  0  0  0  0  0
    4.5531    0.1909    0.0634 N   0  0  0  0  0  0
    4.8388   -0.6285    0.4967 H   0  0  0  0  0  0
    5.5455    1.1890   -0.3432 C   0  0  0  0  0  0
    6.9247    0.7040    0.0227 C   0  0  0  0  0  0
    8.0023    1.4633   -0.2575 N   0  0  0  0  0  0
    8.8900    1.1511   -0.0220 H   0  0  0  0  0  0
    7.8903    2.3219   -0.6946 H   0  0  0  0  0  0
    7.0648   -0.3696    0.5692 O   0  0  0  0  0  0
   -1.6294    0.0889   -0.8078 H   0  0  0  0  0  0
   -1.8573    1.1815    2.0312 H   0  0  0  0  0  0
   -1.0244    2.0147    0.6970 H   0  0  0  0  0  0
   -4.2395    1.1064    2.1403 H   0  0  0  0  0  0
   -6.3932    2.0096    1.3600 H   0  0  0  0  0  0
   -6.5046    3.2819   -0.7452 H   0  0  0  0  0  0
   -4.4620    3.6517   -2.0698 H   0  0  0  0  0  0
   -2.3075    2.7524   -1.2871 H   0  0  0  0  0  0
    2.2801   -0.7670    1.3314 H   0  0  0  0  0  0
    2.4472   -1.7853   -1.5412 H   0  0  0  0  0  0
    3.5025   -2.2878   -0.1988 H   0  0  0  0  0  0
    1.7666   -2.6795   -0.1609 H   0  0  0  0  0  0
    5.4878    1.3407   -1.4210 H   0  0  0  0  0  0
    5.3442    2.1306    0.1676 H   0  0  0  0  0  0
   -3.0176   -0.8634    1.4860 H   0  0  0  0  0  0
  1  2  1  0  0  0
  1  7  1  0  0  0
  1 14  1  0  0  0
  1 30  1  0  0  0
  2  3  1  0  0  0
  2 44  1  0  0  0
  3  4  1  0  0  0
  3  5  1  0  0  0
  3  6  2  0  0  0
  7  8  1  0  0  0
  7 31  1  0  0  0
  7 32  1  0  0  0
  8  9  1  0  0  0
  8 13  2  0  0  0
  9 10  2  0  0  0
  9 33  1  0  0  0
 10 11  1  0  0  0
 10 34  1  0  0  0
 11 12  2  0  0  0
 11 35  1  0  0  0
 12 13  1  0  0  0
 12 36  1  0  0  0
 13 37  1  0  0  0
 14 15  2  0  0  0
 14 16  1  0  0  0
 16 17  1  0  0  0
 16 18  1  0  0  0
 18 19  1  0  0  0
 18 20  1  0  0  0
 18 38  1  0  0  0
 19 39  1  0  0  0
 19 40  1  0  0  0
 19 41  1  0  0  0
 20 21  2  0  0  0
 20 22  1  0  0  0
 22 23  1  0  0  0
 22 24  1  0  0  0
 24 25  1  0  0  0
 24 42  1  0  0  0
 24 43  1  0  0  0
 25 26  1  0  0  0
 25 29  2  0  0  0
 26 27  1  0  0  0
 26 28  1  0  0  0
M  CHG  2   4  -1   5  -1
M  END
>  <Activity>
5.59

>  <set>
1

>  <Min_dist>
999.9

>  <Avg_dist>
999.9

$$$$
P_OPHE_OME_LEUNH2
  Cerius2 12110214583D 1   1.00000                          
doobee
 41 41  0  0  0  0  0  0  0  0999 V2000
   -0.5198   -2.3418    0.1603 O   0  0  0  0  0  0
    0.5082   -1.0318    0.2433 P   0  0  0  0  0  0
    1.2702   -1.0688    1.7233 O   0  0  0  0  0  0
    1.5202   -1.0548   -0.8937 O   0  0  0  0  0  0
   -0.4678    0.3992    0.2033 N   0  0  0  0  0  0
   -0.0118    1.7042   -0.3427 C   0  0  0  0  0  0
    1.2212    2.2122    0.3463 C   0  0  0  0  0  0
    2.0362    2.9352   -0.2317 O   0  0  0  0  0  0
   -1.1418    2.7332   -0.1597 C   0  0  0  0  0  0
   -0.8418    4.0672   -0.8557 C   0  0  0  0  0  0
   -1.0518    3.9542   -2.3697 C   0  0  0  0  0  0
   -1.7248    5.1732   -0.2767 C   0  0  0  0  0  0
    1.3652    1.9272    1.7033 N   0  0  0  0  0  0
   -0.0068   -3.5878   -0.1137 C   0  0  0  0  0  0
    1.2192   -3.9948    0.4163 C   0  0  0  0  0  0
    1.7112   -5.2558    0.0943 C   0  0  0  0  0  0
    0.9962   -6.0968   -0.7577 C   0  0  0  0  0  0
   -0.2278   -5.6818   -1.2787 C   0  0  0  0  0  0
   -0.7408   -4.4308   -0.9477 C   0  0  0  0  0  0
    0.6372   -1.6588    2.8583 C   0  0  0  0  0  0
   -1.3075    0.3804    0.5266 H   0  0  0  0  0  0
    0.1700    1.6055   -1.2699 H   0  0  0  0  0  0
   -1.9473    2.3874   -0.5259 H   0  0  0  0  0  0
   -1.2678    2.8911    0.7686 H   0  0  0  0  0  0
    0.0668    4.2927   -0.6943 H   0  0  0  0  0  0
   -0.8607    4.7899   -2.7791 H   0  0  0  0  0  0
   -0.4714    3.2893   -2.7212 H   0  0  0  0  0  0
   -1.9535    3.7134   -2.5472 H   0  0  0  0  0  0
   -1.5315    5.9942   -0.7139 H   0  0  0  0  0  0
   -2.6388    4.9510   -0.4099 H   0  0  0  0  0  0
   -1.5527    5.2615    0.6534 H   0  0  0  0  0  0
    0.7316    1.4546    2.1336 H   0  0  0  0  0  0
    2.0918    2.2158    2.1491 H   0  0  0  0  0  0
    1.7058   -3.4133    0.9886 H   0  0  0  0  0  0
    2.5395   -5.5490    0.4555 H   0  0  0  0  0  0
    1.3436   -6.9519   -0.9825 H   0  0  0  0  0  0
   -0.7143   -6.2531   -1.8613 H   0  0  0  0  0  0
   -1.5833   -4.1496   -1.2848 H   0  0  0  0  0  0
    1.2117   -1.5916    3.6119 H   0  0  0  0  0  0
   -0.1768   -1.2036    3.0391 H   0  0  0  0  0  0
    0.4553   -2.5739    2.6794 H   0  0  0  0  0  0
  1  2  1  0  0  0
  1 14  1  0  0  0
  2  3  1  0  0  0
  2  4  2  0  0  0
  2  5  1  0  0  0
  3 20  1  0  0  0
  5  6  1  0  0  0
  5 21  1  0  0  0
  6  7  1  0  0  0
  6  9  1  0  0  0
  6 22  1  0  0  0
  7  8  2  0  0  0
  7 13  1  0  0  0
  9 10  1  0  0  0
  9 23  1  0  0  0
  9 24  1  0  0  0
 10 11  1  0  0  0
 10 12  1  0  0  0
 10 25  1  0  0  0
 11 26  1  0  0  0
 11 27  1  0  0  0
 11 28  1  0  0  0
 12 29  1  0  0  0
 12 30  1  0  0  0
 12 31  1  0  0  0
 13 32  1  0  0  0
 13 33  1  0  0  0
 14 15  1  0  0  0
 14 19  2  0  0  0
 15 16  2  0  0  0
 15 34  1  0  0  0
 16 17  1  0  0  0
 16 35  1  0  0  0
 17 18  2  0  0  0
 17 36  1  0  0  0
 18 19  1  0  0  0
 18 37  1  0  0  0
 19 38  1  0  0  0
 20 39  1  0  0  0
 20 40  1  0  0  0
 20 41  1  0  0  0
M  END
>  <Activity>
0.52

>  <set>
1

>  <Min_dist>
999.9

>  <Avg_dist>
999.9

$$$$
ZGLNMEOH
  Cerius2 12110214583D 1   1.00000                          
 
 50 50  0  0  0  0  0  0  0  0999 V2000
    7.3376   -1.2680    0.8813 C   0  0  0  0  0  0
    6.2508   -1.1648    0.0333 C   0  0  0  0  0  0
    5.7244    0.0776   -0.2675 C   0  0  0  0  0  0
    6.2845    1.2166    0.2801 C   0  0  0  0  0  0
    7.3708    1.1132    1.1287 C   0  0  0  0  0  0
    7.8981   -0.1290    1.4284 C   0  0  0  0  0  0
    4.5402    0.1902   -1.1927 C   0  0  0  0  0  0
    3.3134    0.1271   -0.4185 O   0  0  0  0  0  0
    2.1211    0.2082   -1.0386 C   0  0  0  0  0  0
    0.9824    0.1497   -0.3200 N   0  0  0  0  0  0
    1.0219    0.0491    0.6440 H   0  0  0  0  0  0
   -0.3150    0.2379   -0.9948 C   0  0  0  0  0  0
   -1.4195    0.1475    0.0264 C   0  0  0  0  0  0
   -2.7073    0.2064   -0.3668 N   0  0  0  0  0  0
   -2.9232    0.3070   -1.3071 H   0  0  0  0  0  0
   -3.7810    0.1185    0.6260 C   0  0  0  0  0  0
   -4.9944    0.9116    0.1364 C   0  0  0  0  0  0
   -4.6005    2.3768   -0.0603 C   0  0  0  0  0  0
   -5.8138    3.1699   -0.5499 C   0  0  0  0  0  0
   -4.1145    2.9572    1.2693 C   0  0  0  0  0  0
   -4.1691   -1.3247    0.8198 C   0  0  0  0  0  0
   -4.5924   -1.7001    1.8925 O   0  0  0  0  0  0
   -4.0458   -2.1983   -0.1991 N   0  0  0  0  0  0
   -3.5516   -1.7601   -1.4516 O   0  0  0  0  0  0
   -4.4230   -3.6013   -0.0107 C   0  0  0  0  0  0
   -1.1496    0.0217    1.2021 O   0  0  0  0  0  0
    2.0717    0.3342   -2.2461 O   0  0  0  0  0  0
    7.7461   -2.2389    1.1198 H   0  0  0  0  0  0
    5.8131   -2.0546   -0.3944 H   0  0  0  0  0  0
    5.8737    2.1872    0.0445 H   0  0  0  0  0  0
    7.8089    2.0032    1.5559 H   0  0  0  0  0  0
    8.7465   -0.2097    2.0917 H   0  0  0  0  0  0
    4.5848    1.1398   -1.7260 H   0  0  0  0  0  0
    4.5599   -0.6305   -1.9097 H   0  0  0  0  0  0
   -0.3857    1.1886   -1.5233 H   0  0  0  0  0  0
   -0.4106   -0.5817   -1.7069 H   0  0  0  0  0  0
   -3.4348    0.5320    1.5732 H   0  0  0  0  0  0
   -5.3406    0.4981   -0.8108 H   0  0  0  0  0  0
   -5.7933    0.8462    0.8751 H   0  0  0  0  0  0
   -3.8015    2.4422   -0.7989 H   0  0  0  0  0  0
   -5.5332    4.2137   -0.6900 H   0  0  0  0  0  0
   -6.1600    2.7564   -1.4971 H   0  0  0  0  0  0
   -6.6127    3.1045    0.1888 H   0  0  0  0  0  0
   -4.9134    2.8918    2.0079 H   0  0  0  0  0  0
   -3.2501    2.3922    1.6181 H   0  0  0  0  0  0
   -3.8338    4.0011    1.1291 H   0  0  0  0  0  0
   -3.5427   -2.5319   -2.0341 H   0  0  0  0  0  0
   -4.7779   -3.7483    1.0094 H   0  0  0  0  0  0
   -5.2155   -3.8618   -0.7122 H   0  0  0  0  0  0
   -3.5562   -4.2377   -0.1891 H   0  0  0  0  0  0
  1  2  1  0  0  0
  1  6  2  0  0  0
  1 28  1  0  0  0
  2  3  2  0  0  0
  2 29  1  0  0  0
  3  4  1  0  0  0
  3  7  1  0  0  0
  4  5  2  0  0  0
  4 30  1  0  0  0
  5  6  1  0  0  0
  5 31  1  0  0  0
  6 32  1  0  0  0
  7  8  1  0  0  0
  7 33  1  0  0  0
  7 34  1  0  0  0
  8  9  1  0  0  0
  9 10  1  0  0  0
  9 27  2  0  0  0
 10 11  1  0  0  0
 10 12  1  0  0  0
 12 13  1  0  0  0
 12 35  1  0  0  0
 12 36  1  0  0  0
 13 14  1  0  0  0
 13 26  2  0  0  0
 14 15  1  0  0  0
 14 16  1  0  0  0
 16 17  1  0  0  0
 16 21  1  0  0  0
 16 37  1  0  0  0
 17 18  1  0  0  0
 17 38  1  0  0  0
 17 39  1  0  0  0
 18 19  1  0  0  0
 18 20  1  0  0  0
 18 40  1  0  0  0
 19 41  1  0  0  0
 19 42  1  0  0  0
 19 43  1  0  0  0
 20 44  1  0  0  0
 20 45  1  0  0  0
 20 46  1  0  0  0
 21 22  2  0  0  0
 21 23  1  0  0  0
 23 24  1  0  0  0
 23 25  1  0  0  0
 24 47  1  0  0  0
 25 48  1  0  0  0
 25 49  1  0  0  0
 25 50  1  0  0  0
M  END
>  <Activity>
2.65

>  <set>
1

>  <Min_dist>
999.9

>  <Avg_dist>
999.9

$$$$
ZGPLNH2
  Cerius2 12110214583D 1   1.00000                          
 
 47 47  0  0  0  0  0  0  0  0999 V2000
   -1.9304   -0.4658   -0.7820 C   0  0  0  0  0  0
   -1.0733   -1.3959   -0.3164 N   0  0  0  0  0  0
   -1.3741   -2.0509    0.3327 H   0  0  0  0  0  0
    0.3126   -1.4176   -0.7908 C   0  0  0  0  0  0
    1.3411   -0.3694    0.2894 P   0  0  0  0  0  0
    1.2834   -0.9082    1.7363 O   0  0  0  0  0  0
    2.9332   -0.3944   -0.2555 N   0  0  0  0  0  0
    2.9257   -0.0148   -1.1904 H   0  0  0  0  0  0
    3.6802    0.5554    0.5797 C   0  0  0  0  0  0
    4.1970    1.6810   -0.2789 C   0  0  0  0  0  0
    4.3435    2.7875    0.1955 O   0  0  0  0  0  0
    4.4963    1.4579   -1.5739 N   0  0  0  0  0  0
    4.8290    2.1823   -2.1266 H   0  0  0  0  0  0
    4.3791    0.5729   -1.9533 H   0  0  0  0  0  0
    4.8578   -0.1635    1.2411 C   0  0  0  0  0  0
    5.8520   -0.6087    0.1668 C   0  0  0  0  0  0
    7.1130   -1.1595    0.8358 C   0  0  0  0  0  0
    5.2152   -1.6992   -0.6970 C   0  0  0  0  0  0
    0.8088    1.0807    0.2582 O   0  5  0  0  0  0
   -1.5537    0.3547   -1.5952 O   0  0  0  0  0  0
   -3.2056   -0.4492   -0.3503 O   0  0  0  0  0  0
   -4.1290    0.5528   -0.8519 C   0  0  0  0  0  0
   -5.4806    0.3535   -0.2159 C   0  0  0  0  0  0
   -5.7887    0.9963    0.9685 C   0  0  0  0  0  0
   -7.0285    0.8135    1.5519 C   0  0  0  0  0  0
   -7.9604   -0.0118    0.9507 C   0  0  0  0  0  0
   -7.6526   -0.6538   -0.2342 C   0  0  0  0  0  0
   -6.4143   -0.4676   -0.8198 C   0  0  0  0  0  0
    0.6881   -2.4407   -0.7688 H   0  0  0  0  0  0
    0.3532   -1.0375   -1.8115 H   0  0  0  0  0  0
    3.0219    0.9584    1.3494 H   0  0  0  0  0  0
    5.3532    0.5143    1.9363 H   0  0  0  0  0  0
    4.4928   -1.0363    1.7826 H   0  0  0  0  0  0
    6.1157    0.2434   -0.4597 H   0  0  0  0  0  0
    7.8213   -1.4766    0.0704 H   0  0  0  0  0  0
    7.5667   -0.3826    1.4512 H   0  0  0  0  0  0
    6.8494   -2.0115    1.4623 H   0  0  0  0  0  0
    4.8310   -2.4925   -0.0558 H   0  0  0  0  0  0
    4.3968   -1.2720   -1.2765 H   0  0  0  0  0  0
    5.9641   -2.1100   -1.3741 H   0  0  0  0  0  0
   -3.7550    1.5468   -0.6065 H   0  0  0  0  0  0
   -4.2185    0.4552   -1.9338 H   0  0  0  0  0  0
   -5.0607    1.6411    1.4382 H   0  0  0  0  0  0
   -7.2690    1.3152    2.4776 H   0  0  0  0  0  0
   -8.9287   -0.1552    1.4068 H   0  0  0  0  0  0
   -8.3805   -1.2989   -0.7037 H   0  0  0  0  0  0
   -6.1738   -0.9693   -1.7455 H   0  0  0  0  0  0
  1  2  1  0  0  0
  1 20  2  0  0  0
  1 21  1  0  0  0
  2  3  1  0  0  0
  2  4  1  0  0  0
  4  5  1  0  0  0
  4 29  1  0  0  0
  4 30  1  0  0  0
  5  6  2  0  0  0
  5  7  1  0  0  0
  5 19  1  0  0  0
  7  8  1  0  0  0
  7  9  1  0  0  0
  9 10  1  0  0  0
  9 15  1  0  0  0
  9 31  1  0  0  0
 10 11  2  0  0  0
 10 12  1  0  0  0
 12 13  1  0  0  0
 12 14  1  0  0  0
 15 16  1  0  0  0
 15 32  1  0  0  0
 15 33  1  0  0  0
 16 17  1  0  0  0
 16 18  1  0  0  0
 16 34  1  0  0  0
 17 35  1  0  0  0
 17 36  1  0  0  0
 17 37  1  0  0  0
 18 38  1  0  0  0
 18 39  1  0  0  0
 18 40  1  0  0  0
 21 22  1  0  0  0
 22 23  1  0  0  0
 22 41  1  0  0  0
 22 42  1  0  0  0
 23 24  1  0  0  0
 23 28  2  0  0  0
 24 25  2  0  0  0
 24 43  1  0  0  0
 25 26  1  0  0  0
 25 44  1  0  0  0
 26 27  2  0  0  0
 26 45  1  0  0  0
 27 28  1  0  0  0
 27 46  1  0  0  0
 28 47  1  0  0  0
M  CHG  1  19  -1
M  END
>  <Activity>
6.12

>  <set>
1

>  <Min_dist>
999.9

>  <Avg_dist>
999.9

$$$$
ZGPOLG
  Cerius2 12110214583D 1   1.00000                          
 
 51 51  0  0  0  0  0  0  0  0999 V2000
   -3.1571    0.7629   -0.8249 C   0  0  0  0  0  0
   -2.2967    0.2037   -1.6986 N   0  0  0  0  0  0
   -2.5114   -0.6459   -2.1145 H   0  0  0  0  0  0
   -1.0370    0.8790   -2.0202 C   0  0  0  0  0  0
    0.2593    0.3310   -0.8614 P   0  0  0  0  0  0
   -0.1418    0.6680    0.5228 O   0  0  0  0  0  0
    0.4561   -1.2617   -0.9905 O   0  5  0  0  0  0
    1.6437    1.0731   -1.2148 O   0  0  0  0  0  0
    2.5900    0.6776   -0.2198 C   0  0  0  0  0  0
    3.8105    0.0998   -0.8889 C   0  0  0  0  0  0
    3.9885    0.2693   -2.0765 O   0  0  0  0  0  0
    4.7042   -0.6054   -0.1674 N   0  0  0  0  0  0
    4.5249   -0.8061    0.7645 H   0  0  0  0  0  0
    5.9464   -1.0688   -0.7907 C   0  0  0  0  0  0
    6.7646   -1.8266    0.2228 C   0  0  0  0  0  0
    6.3525   -1.9654    1.3501 O   0  0  0  0  0  0
    7.9513   -2.3474   -0.1268 O   0  5  0  0  0  0
    2.9937    1.8960    0.6130 C   0  0  0  0  0  0
    3.8887    1.4487    1.7704 C   0  0  0  0  0  0
    4.3810    2.6770    2.5386 C   0  0  0  0  0  0
    3.0910    0.5443    2.7120 C   0  0  0  0  0  0
   -2.8881    1.8271   -0.3040 O   0  0  0  0  0  0
   -4.3173    0.1449   -0.5337 O   0  0  0  0  0  0
   -5.2444    0.7474    0.4076 C   0  0  0  0  0  0
   -6.4551   -0.1375    0.5564 C   0  0  0  0  0  0
   -6.4750   -1.1246    1.5240 C   0  0  0  0  0  0
   -7.5856   -1.9363    1.6605 C   0  0  0  0  0  0
   -8.6764   -1.7607    0.8297 C   0  0  0  0  0  0
   -8.6568   -0.7730   -0.1372 C   0  0  0  0  0  0
   -7.5480    0.0416   -0.2709 C   0  0  0  0  0  0
   -0.7416    0.6308   -3.0396 H   0  0  0  0  0  0
   -1.1702    1.9573   -1.9328 H   0  0  0  0  0  0
    2.1416   -0.0741    0.4298 H   0  0  0  0  0  0
    5.7098   -1.7235   -1.6295 H   0  0  0  0  0  0
    6.5153   -0.2107   -1.1487 H   0  0  0  0  0  0
    3.5375    2.6015   -0.0152 H   0  0  0  0  0  0
    2.0998    2.3771    1.0099 H   0  0  0  0  0  0
    4.7440    0.8994    1.3770 H   0  0  0  0  0  0
    5.0187    2.3583    3.3632 H   0  0  0  0  0  0
    4.9493    3.3213    1.8678 H   0  0  0  0  0  0
    3.5257    3.2263    2.9320 H   0  0  0  0  0  0
    2.1817    1.0575    3.0250 H   0  0  0  0  0  0
    2.8278   -0.3777    2.1937 H   0  0  0  0  0  0
    3.6952    0.3088    3.5881 H   0  0  0  0  0  0
   -4.7565    0.8614    1.3756 H   0  0  0  0  0  0
   -5.5525    1.7256    0.0385 H   0  0  0  0  0  0
   -5.6228   -1.2618    2.1730 H   0  0  0  0  0  0
   -7.6009   -2.7080    2.4159 H   0  0  0  0  0  0
   -9.5438   -2.3953    0.9359 H   0  0  0  0  0  0
   -9.5089   -0.6360   -0.7865 H   0  0  0  0  0  0
   -7.5327    0.8132   -1.0263 H   0  0  0  0  0  0
  1  2  1  0  0  0
  1 22  2  0  0  0
  1 23  1  0  0  0
  2  3  1  0  0  0
  2  4  1  0  0  0
  4  5  1  0  0  0
  4 31  1  0  0  0
  4 32  1  0  0  0
  5  6  2  0  0  0
  5  7  1  0  0  0
  5  8  1  0  0  0
  8  9  1  0  0  0
  9 10  1  0  0  0
  9 18  1  0  0  0
  9 33  1  0  0  0
 10 11  2  0  0  0
 10 12  1  0  0  0
 12 13  1  0  0  0
 12 14  1  0  0  0
 14 15  1  0  0  0
 14 34  1  0  0  0
 14 35  1  0  0  0
 15 16  2  0  0  0
 15 17  1  0  0  0
 18 19  1  0  0  0
 18 36  1  0  0  0
 18 37  1  0  0  0
 19 20  1  0  0  0
 19 21  1  0  0  0
 19 38  1  0  0  0
 20 39  1  0  0  0
 20 40  1  0  0  0
 20 41  1  0  0  0
 21 42  1  0  0  0
 21 43  1  0  0  0
 21 44  1  0  0  0
 23 24  1  0  0  0
 24 25  1  0  0  0
 24 45  1  0  0  0
 24 46  1  0  0  0
 25 26  1  0  0  0
 25 30  2  0  0  0
 26 27  2  0  0  0
 26 47  1  0  0  0
 27 28  1  0  0  0
 27 48  1  0  0  0
 28 29  2  0  0  0
 28 49  1  0  0  0
 29 30  1  0  0  0
 29 50  1  0  0  0
 30 51  1  0  0  0
M  CHG  2   7  -1  17  -1
M  END
>  <Activity>
3.64

>  <set>
1

>  <Min_dist>
999.9

>  <Avg_dist>
999.9

$$$$
C6PCLTNME
  Cerius2 12110214583D 1   1.00000                          
 
 72 73  0  0  0  0  0  0  0  0999 V2000
   -4.2040    0.5711   -0.9245 C   0  0  0  0  0  0
   -5.5386    0.5654   -0.1762 C   0  0  0  0  0  0
   -6.6021    1.2652   -1.0248 C   0  0  0  0  0  0
   -7.9366    1.2596   -0.2766 C   0  0  0  0  0  0
   -9.0001    1.9594   -1.1252 C   0  0  0  0  0  0
  -10.3346    1.9537   -0.3770 C   0  0  0  0  0  0
   -2.9369   -0.2627    0.0867 P   0  0  0  0  0  0
   -2.7772    0.4832    1.4302 O   0  0  0  0  0  0
   -3.3703   -1.7211    0.3557 O   0  5  0  0  0  0
   -1.3468   -0.2560   -0.8049 C   0  0  0  0  0  0
   -0.2833   -0.9558    0.0438 C   0  0  0  0  0  0
    1.0312   -0.9503   -0.6932 C   0  0  0  0  0  0
    1.0483   -0.8507   -1.9018 O   0  0  0  0  0  0
    2.1877   -1.0559   -0.0093 N   0  0  0  0  0  0
    2.1725   -1.2156    0.9473 H   0  0  0  0  0  0
    3.4676   -0.9296   -0.7107 C   0  0  0  0  0  0
    3.8847   -2.2770   -1.2415 C   0  0  0  0  0  0
    4.5339   -2.3518   -2.2632 O   0  0  0  0  0  0
    3.5362   -3.3989   -0.5809 N   0  0  0  0  0  0
    2.9536   -3.3449    0.1928 H   0  0  0  0  0  0
    4.0372   -4.6997   -1.0313 C   0  0  0  0  0  0
    4.5317   -0.4119    0.2592 C   0  0  0  0  0  0
    4.1147    0.9354    0.7900 C   0  0  0  0  0  0
    3.3819    1.1682    1.8903 C   0  0  0  0  0  0
    3.2044    2.5147    2.0565 N   0  0  0  0  0  0
    3.8346    3.1988    1.0412 C   0  0  0  0  0  0
    3.9674    4.5489    0.7347 C   0  0  0  0  0  0
    4.6800    4.9303   -0.3813 C   0  0  0  0  0  0
    5.2680    3.9802   -1.2046 C   0  0  0  0  0  0
    5.1496    2.6483   -0.9224 C   0  0  0  0  0  0
    4.4375    2.2398    0.2066 C   0  0  0  0  0  0
   -0.7125   -2.4000    0.3102 C   0  0  0  0  0  0
   -1.3090   -2.5038    1.7153 C   0  0  0  0  0  0
   -1.8731   -3.9102    1.9273 C   0  0  0  0  0  0
   -0.2192   -2.2296    2.7536 C   0  0  0  0  0  0
   -4.3167    0.0448   -1.8723 H   0  0  0  0  0  0
   -3.8983    1.5999   -1.1143 H   0  0  0  0  0  0
   -5.8443   -0.4634    0.0136 H   0  0  0  0  0  0
   -5.4259    1.0917    0.7716 H   0  0  0  0  0  0
   -6.2963    2.2941   -1.2147 H   0  0  0  0  0  0
   -6.7147    0.7389   -1.9727 H   0  0  0  0  0  0
   -8.2424    0.2307   -0.0868 H   0  0  0  0  0  0
   -7.8239    1.7859    0.6713 H   0  0  0  0  0  0
   -8.6943    2.9883   -1.3150 H   0  0  0  0  0  0
   -9.1127    1.4331   -2.0731 H   0  0  0  0  0  0
  -11.0922    2.4523   -0.9816 H   0  0  0  0  0  0
  -10.6404    0.9249   -0.1872 H   0  0  0  0  0  0
  -10.2219    2.4800    0.5709 H   0  0  0  0  0  0
   -1.4595   -0.7823   -1.7527 H   0  0  0  0  0  0
   -1.0410    0.7729   -0.9947 H   0  0  0  0  0  0
   -0.1706   -0.4295    0.9916 H   0  0  0  0  0  0
    3.3603   -0.2299   -1.5395 H   0  0  0  0  0  0
    3.6517   -5.4833   -0.3789 H   0  0  0  0  0  0
    3.7060   -4.8825   -2.0536 H   0  0  0  0  0  0
    5.1267   -4.7013   -0.9966 H   0  0  0  0  0  0
    4.6391   -1.1116    1.0880 H   0  0  0  0  0  0
    5.4841   -0.3180   -0.2627 H   0  0  0  0  0  0
    2.9901    0.4055    2.5470 H   0  0  0  0  0  0
    2.7084    2.9261    2.7815 H   0  0  0  0  0  0
    3.5133    5.2957    1.3690 H   0  0  0  0  0  0
    4.7817    5.9792   -0.6179 H   0  0  0  0  0  0
    5.8231    4.2960   -2.0755 H   0  0  0  0  0  0
    5.6096    1.9147   -1.5679 H   0  0  0  0  0  0
   -1.4601   -2.6984   -0.4248 H   0  0  0  0  0  0
    0.1542   -3.0566    0.2340 H   0  0  0  0  0  0
   -2.1086   -1.7712    1.8256 H   0  0  0  0  0  0
   -2.2981   -3.9841    2.9283 H   0  0  0  0  0  0
   -2.6495   -4.1055    1.1876 H   0  0  0  0  0  0
   -1.0736   -4.6427    1.8169 H   0  0  0  0  0  0
    0.6285   -2.8907    2.5737 H   0  0  0  0  0  0
    0.1057   -1.1922    2.6739 H   0  0  0  0  0  0
   -0.6155   -2.4105    3.7527 H   0  0  0  0  0  0
  1  2  1  0  0  0
  1  7  1  0  0  0
  1 36  1  0  0  0
  1 37  1  0  0  0
  2  3  1  0  0  0
  2 38  1  0  0  0
  2 39  1  0  0  0
  3  4  1  0  0  0
  3 40  1  0  0  0
  3 41  1  0  0  0
  4  5  1  0  0  0
  4 42  1  0  0  0
  4 43  1  0  0  0
  5  6  1  0  0  0
  5 44  1  0  0  0
  5 45  1  0  0  0
  6 46  1  0  0  0
  6 47  1  0  0  0
  6 48  1  0  0  0
  7  8  2  0  0  0
  7  9  1  0  0  0
  7 10  1  0  0  0
 10 11  1  0  0  0
 10 49  1  0  0  0
 10 50  1  0  0  0
 11 12  1  0  0  0
 11 32  1  0  0  0
 11 51  1  0  0  0
 12 13  2  0  0  0
 12 14  1  0  0  0
 14 15  1  0  0  0
 14 16  1  0  0  0
 16 17  1  0  0  0
 16 22  1  0  0  0
 16 52  1  0  0  0
 17 18  2  0  0  0
 17 19  1  0  0  0
 19 20  1  0  0  0
 19 21  1  0  0  0
 21 53  1  0  0  0
 21 54  1  0  0  0
 21 55  1  0  0  0
 22 23  1  0  0  0
 22 56  1  0  0  0
 22 57  1  0  0  0
 23 24  2  0  0  0
 23 31  1  0  0  0
 24 25  1  0  0  0
 24 58  1  0  0  0
 25 26  1  0  0  0
 25 59  1  0  0  0
 26 27  2  0  0  0
 26 31  1  0  0  0
 27 28  1  0  0  0
 27 60  1  0  0  0
 28 29  2  0  0  0
 28 61  1  0  0  0
 29 30  1  0  0  0
 29 62  1  0  0  0
 30 31  2  0  0  0
 30 63  1  0  0  0
 32 33  1  0  0  0
 32 64  1  0  0  0
 32 65  1  0  0  0
 33 34  1  0  0  0
 33 35  1  0  0  0
 33 66  1  0  0  0
 34 67  1  0  0  0
 34 68  1  0  0  0
 34 69  1  0  0  0
 35 70  1  0  0  0
 35 71  1  0  0  0
 35 72  1  0  0  0
M  CHG  1   9  -1
M  END
>  <Activity>
7.28

>  <set>
2

>  <Min_dist>
0

>  <Avg_dist>
0.417859

$$$$
DAH55
  Cerius2 12110214583D 1   1.00000                          
 
 58 58  0  0  0  0  0  0  0  0999 V2000
   -2.6863    1.1018   -0.2265 C   0  0  0  0  0  0
   -4.0432    1.4136    0.4080 C   0  0  0  0  0  0
   -4.8516    0.1218    0.5439 C   0  0  0  0  0  0
   -6.2532    0.4494    1.0625 C   0  0  0  0  0  0
   -7.0616   -0.8425    1.1984 C   0  0  0  0  0  0
   -1.9438    2.3881   -0.4821 C   0  0  0  0  0  0
   -2.0774    2.9635   -1.5361 O   0  0  0  0  0  0
   -1.1341    2.8945    0.4611 O   0  5  0  0  0  0
   -1.9025    0.2567    0.6843 N   0  0  0  0  0  0
   -0.9434   -0.4831   -0.1468 C   0  0  0  0  0  0
    0.3182   -0.7288    0.6400 C   0  0  0  0  0  0
    0.2709   -0.8215    1.8483 O   0  0  0  0  0  0
    1.4991   -0.8455    0.0009 N   0  0  0  0  0  0
    1.5392   -0.7558   -0.9641 H   0  0  0  0  0  0
    2.7220   -1.1079    0.7636 C   0  0  0  0  0  0
    2.9280   -2.5957    0.8863 C   0  0  0  0  0  0
    3.4921   -3.0497    1.8536 O   0  0  0  0  0  0
    2.4850   -3.4165   -0.0789 O   0  5  0  0  0  0
    3.9178   -0.4854    0.0400 C   0  0  0  0  0  0
    3.7117    1.0024   -0.0827 C   0  0  0  0  0  0
    4.1680    1.8477    0.9114 C   0  0  0  0  0  0
    3.9790    3.2124    0.7988 C   0  0  0  0  0  0
    3.3341    3.7319   -0.3080 C   0  0  0  0  0  0
    2.8786    2.8867   -1.3025 C   0  0  0  0  0  0
    3.0715    1.5223   -1.1920 C   0  0  0  0  0  0
   -1.5549   -1.8229   -0.5614 C   0  0  0  0  0  0
   -0.6288   -2.5187   -1.5609 C   0  0  0  0  0  0
   -1.1538   -3.9269   -1.8477 C   0  0  0  0  0  0
   -0.5870   -1.7152   -2.8622 C   0  0  0  0  0  0
   -2.8382    0.5764   -1.1693 H   0  0  0  0  0  0
   -3.8909    1.8524    1.3941 H   0  0  0  0  0  0
   -4.5862    2.1174   -0.2229 H   0  0  0  0  0  0
   -4.9284   -0.3628   -0.4294 H   0  0  0  0  0  0
   -4.3521   -0.5474    1.2445 H   0  0  0  0  0  0
   -6.1764    0.9340    2.0358 H   0  0  0  0  0  0
   -6.7527    1.1185    0.3619 H   0  0  0  0  0  0
   -8.0601   -0.6091    1.5679 H   0  0  0  0  0  0
   -7.1384   -1.3271    0.2251 H   0  0  0  0  0  0
   -6.5621   -1.5116    1.8990 H   0  0  0  0  0  0
   -1.3623    0.8800    1.2654 H   0  0  0  0  0  0
   -0.7085    0.1001   -1.0372 H   0  0  0  0  0  0
    2.6310   -0.6705    1.7578 H   0  0  0  0  0  0
    4.8277   -0.6806    0.6075 H   0  0  0  0  0  0
    4.0088   -0.9228   -0.9542 H   0  0  0  0  0  0
    4.6719    1.4418    1.7761 H   0  0  0  0  0  0
    4.3348    3.8727    1.5758 H   0  0  0  0  0  0
    3.1858    4.7981   -0.3956 H   0  0  0  0  0  0
    2.3744    3.2925   -2.1671 H   0  0  0  0  0  0
    2.7156    0.8620   -1.9690 H   0  0  0  0  0  0
   -1.6790   -2.4536    0.3189 H   0  0  0  0  0  0
   -2.5263   -1.6510   -1.0250 H   0  0  0  0  0  0
    0.3752   -2.5837   -1.1416 H   0  0  0  0  0  0
   -0.4940   -4.4227   -2.5598 H   0  0  0  0  0  0
   -1.1836   -4.4994   -0.9206 H   0  0  0  0  0  0
   -2.1578   -3.8620   -2.2670 H   0  0  0  0  0  0
   -1.6001   -1.5886   -3.2438 H   0  0  0  0  0  0
   -0.1458   -0.7370   -2.6712 H   0  0  0  0  0  0
    0.0148   -2.2476   -3.5988 H   0  0  0  0  0  0
  1  2  1  0  0  0
  1  6  1  0  0  0
  1  9  1  0  0  0
  1 30  1  0  0  0
  2  3  1  0  0  0
  2 31  1  0  0  0
  2 32  1  0  0  0
  3  4  1  0  0  0
  3 33  1  0  0  0
  3 34  1  0  0  0
  4  5  1  0  0  0
  4 35  1  0  0  0
  4 36  1  0  0  0
  5 37  1  0  0  0
  5 38  1  0  0  0
  5 39  1  0  0  0
  6  7  2  0  0  0
  6  8  1  0  0  0
  9 10  1  0  0  0
  9 40  1  0  0  0
 10 11  1  0  0  0
 10 26  1  0  0  0
 10 41  1  0  0  0
 11 12  2  0  0  0
 11 13  1  0  0  0
 13 14  1  0  0  0
 13 15  1  0  0  0
 15 16  1  0  0  0
 15 19  1  0  0  0
 15 42  1  0  0  0
 16 17  2  0  0  0
 16 18  1  0  0  0
 19 20  1  0  0  0
 19 43  1  0  0  0
 19 44  1  0  0  0
 20 21  1  0  0  0
 20 25  2  0  0  0
 21 22  2  0  0  0
 21 45  1  0  0  0
 22 23  1  0  0  0
 22 46  1  0  0  0
 23 24  2  0  0  0
 23 47  1  0  0  0
 24 25  1  0  0  0
 24 48  1  0  0  0
 25 49  1  0  0  0
 26 27  1  0  0  0
 26 50  1  0  0  0
 26 51  1  0  0  0
 27 28  1  0  0  0
 27 29  1  0  0  0
 27 52  1  0  0  0
 28 53  1  0  0  0
 28 54  1  0  0  0
 28 55  1  0  0  0
 29 56  1  0  0  0
 29 57  1  0  0  0
 29 58  1  0  0  0
M  CHG  2   8  -1  18  -1
M  END
>  <Activity>
2.42

>  <set>
2

>  <Min_dist>
0.016393

>  <Avg_dist>
0.326866

$$$$
HOCH2CO_FAGNH2
  Cerius2 12110214583D 1   1.00000                          
 
 47 47  0  0  0  0  0  0  0  0999 V2000
   -1.5621    0.0797   -0.6396 C   0  0  0  0  0  0
   -2.5874   -0.9295   -0.9163 N   0  0  0  0  0  0
   -3.0693   -0.9132   -1.7580 H   0  0  0  0  0  0
   -2.8611   -1.8806   -0.0014 C   0  0  0  0  0  0
   -2.2586   -1.9010    1.0509 O   0  0  0  0  0  0
   -3.9157   -2.9187   -0.2861 C   0  0  0  0  0  0
   -4.0206   -3.8088    0.8269 O   0  0  0  0  0  0
   -1.9497    0.8708    0.6113 C   0  0  0  0  0  0
   -3.2755    1.5505    0.3851 C   0  0  0  0  0  0
   -4.4504    0.9007    0.7138 C   0  0  0  0  0  0
   -5.6666    1.5242    0.5063 C   0  0  0  0  0  0
   -5.7078    2.7978   -0.0296 C   0  0  0  0  0  0
   -4.5328    3.4480   -0.3575 C   0  0  0  0  0  0
   -3.3164    2.8262   -0.1459 C   0  0  0  0  0  0
   -0.2363   -0.6001   -0.4133 C   0  0  0  0  0  0
   -0.2002   -1.7173    0.0572 O   0  0  0  0  0  0
    0.9092    0.0335   -0.7339 N   0  0  0  0  0  0
    0.8803    0.9271   -1.1102 H   0  0  0  0  0  0
    2.1981   -0.6273   -0.5139 C   0  0  0  0  0  0
    2.5857   -1.4184   -1.7649 C   0  0  0  0  0  0
    3.2528    0.4108   -0.2293 C   0  0  0  0  0  0
    2.9570    1.5868   -0.2119 O   0  0  0  0  0  0
    4.5247    0.0323    0.0059 N   0  0  0  0  0  0
    4.7613   -0.9083   -0.0080 H   0  0  0  0  0  0
    5.5500    1.0415    0.2826 C   0  0  0  0  0  0
    6.8758    0.3617    0.5089 C   0  0  0  0  0  0
    7.9720    1.0967    0.7819 N   0  0  0  0  0  0
    8.8254    0.6591    0.9276 H   0  0  0  0  0  0
    7.9076    2.0632    0.8328 H   0  0  0  0  0  0
    6.9564   -0.8468    0.4453 O   0  0  0  0  0  0
   -1.4821    0.7586   -1.4886 H   0  0  0  0  0  0
   -4.8747   -2.4270   -0.4497 H   0  0  0  0  0  0
   -3.6396   -3.4823   -1.1773 H   0  0  0  0  0  0
   -4.7043   -4.4554    0.6042 H   0  0  0  0  0  0
   -2.0297    0.1918    1.4603 H   0  0  0  0  0  0
   -1.1868    1.6216    0.8172 H   0  0  0  0  0  0
   -4.4182   -0.0943    1.1325 H   0  0  0  0  0  0
   -6.5846    1.0162    0.7624 H   0  0  0  0  0  0
   -6.6579    3.2846   -0.1925 H   0  0  0  0  0  0
   -4.5650    4.4429   -0.7766 H   0  0  0  0  0  0
   -2.3985    3.3342   -0.4021 H   0  0  0  0  0  0
    2.1181   -1.3063    0.3350 H   0  0  0  0  0  0
    2.6657   -0.7395   -2.6138 H   0  0  0  0  0  0
    3.5446   -1.9101   -1.6012 H   0  0  0  0  0  0
    1.8228   -2.1693   -1.9708 H   0  0  0  0  0  0
    5.6300    1.7204   -0.5663 H   0  0  0  0  0  0
    5.2739    1.6051    1.1738 H   0  0  0  0  0  0
  1  2  1  0  0  0
  1  8  1  0  0  0
  1 15  1  0  0  0
  1 31  1  0  0  0
  2  3  1  0  0  0
  2  4  1  0  0  0
  4  5  2  0  0  0
  4  6  1  0  0  0
  6  7  1  0  0  0
  6 32  1  0  0  0
  6 33  1  0  0  0
  7 34  1  0  0  0
  8  9  1  0  0  0
  8 35  1  0  0  0
  8 36  1  0  0  0
  9 10  2  0  0  0
  9 14  1  0  0  0
 10 11  1  0  0  0
 10 37  1  0  0  0
 11 12  2  0  0  0
 11 38  1  0  0  0
 12 13  1  0  0  0
 12 39  1  0  0  0
 13 14  2  0  0  0
 13 40  1  0  0  0
 14 41  1  0  0  0
 15 16  2  0  0  0
 15 17  1  0  0  0
 17 18  1  0  0  0
 17 19  1  0  0  0
 19 20  1  0  0  0
 19 21  1  0  0  0
 19 42  1  0  0  0
 20 43  1  0  0  0
 20 44  1  0  0  0
 20 45  1  0  0  0
 21 22  2  0  0  0
 21 23  1  0  0  0
 23 24  1  0  0  0
 23 25  1  0  0  0
 25 26  1  0  0  0
 25 46  1  0  0  0
 25 47  1  0  0  0
 26 27  1  0  0  0
 26 30  2  0  0  0
 27 28  1  0  0  0
 27 29  1  0  0  0
M  END
>  <Activity>
2.54

>  <set>
2

>  <Min_dist>
0.078125

>  <Avg_dist>
0.362526

$$$$
NHOHIBMAGNH2
  Cerius2 12110214583D 1   1.00000                          
 
 43 42  0  0  0  0  0  0  0  0999 V2000
    1.3306    0.9617    0.3916 C   0  0  0  0  0  0
    0.0663    0.2417    0.5631 N   0  0  0  0  0  0
    0.0218   -0.5261    1.1541 H   0  0  0  0  0  0
   -1.0349    0.6463   -0.1004 C   0  0  0  0  0  0
   -0.9597    1.5495   -0.9063 O   0  0  0  0  0  0
   -2.3596   -0.0236    0.1592 C   0  0  0  0  0  0
   -3.4762    0.8712   -0.3136 C   0  0  0  0  0  0
   -4.4884    1.1834    0.5198 N   0  0  0  0  0  0
   -4.5109    0.8124    1.4157 H   0  0  0  0  0  0
   -5.5188    2.0531    0.0874 O   0  0  0  0  0  0
   -3.4640    1.3104   -1.4440 O   0  0  0  0  0  0
   -2.4160   -1.3524   -0.5971 C   0  0  0  0  0  0
   -3.6702   -2.1234   -0.1807 C   0  0  0  0  0  0
   -3.8366   -3.3503   -1.0795 C   0  0  0  0  0  0
   -3.5329   -2.5727    1.2754 C   0  0  0  0  0  0
    1.3905    2.1293    1.3785 C   0  0  0  0  0  0
    2.4817    0.0245    0.6518 C   0  0  0  0  0  0
    2.3443   -0.9073    1.4160 O   0  0  0  0  0  0
    3.6639    0.2216    0.0353 N   0  0  0  0  0  0
    3.7738    0.9668   -0.5758 H   0  0  0  0  0  0
    4.7829   -0.6895    0.2883 C   0  0  0  0  0  0
    5.9790   -0.2517   -0.5170 C   0  0  0  0  0  0
    5.9042    0.7252   -1.2319 O   0  0  0  0  0  0
    7.1320   -0.9458   -0.4429 N   0  0  0  0  0  0
    7.9019   -0.6640   -0.9612 H   0  0  0  0  0  0
    7.1918   -1.7271    0.1289 H   0  0  0  0  0  0
    1.3961    1.3434   -0.6272 H   0  0  0  0  0  0
   -2.4700   -0.2087    1.2277 H   0  0  0  0  0  0
   -6.1360    2.1441    0.8262 H   0  0  0  0  0  0
   -2.4475   -1.1592   -1.6693 H   0  0  0  0  0  0
   -1.5311   -1.9431   -0.3602 H   0  0  0  0  0  0
   -4.5432   -1.4784   -0.2811 H   0  0  0  0  0  0
   -4.7301   -3.8996   -0.7829 H   0  0  0  0  0  0
   -3.9344   -3.0302   -2.1168 H   0  0  0  0  0  0
   -2.9636   -3.9953   -0.9791 H   0  0  0  0  0  0
   -2.7369   -3.3133    1.3535 H   0  0  0  0  0  0
   -3.2914   -1.7125    1.8998 H   0  0  0  0  0  0
   -4.4724   -3.0123    1.6101 H   0  0  0  0  0  0
    1.3251    1.7475    2.3974 H   0  0  0  0  0  0
    2.3312    2.6650    1.2510 H   0  0  0  0  0  0
    0.5580    2.8072    1.1903 H   0  0  0  0  0  0
    5.0329   -0.6721    1.3491 H   0  0  0  0  0  0
    4.5002   -1.7014   -0.0018 H   0  0  0  0  0  0
  1  2  1  0  0  0
  1 16  1  0  0  0
  1 17  1  0  0  0
  1 27  1  0  0  0
  2  3  1  0  0  0
  2  4  1  0  0  0
  4  5  2  0  0  0
  4  6  1  0  0  0
  6  7  1  0  0  0
  6 12  1  0  0  0
  6 28  1  0  0  0
  7  8  1  0  0  0
  7 11  2  0  0  0
  8  9  1  0  0  0
  8 10  1  0  0  0
 10 29  1  0  0  0
 12 13  1  0  0  0
 12 30  1  0  0  0
 12 31  1  0  0  0
 13 14  1  0  0  0
 13 15  1  0  0  0
 13 32  1  0  0  0
 14 33  1  0  0  0
 14 34  1  0  0  0
 14 35  1  0  0  0
 15 36  1  0  0  0
 15 37  1  0  0  0
 15 38  1  0  0  0
 16 39  1  0  0  0
 16 40  1  0  0  0
 16 41  1  0  0  0
 17 18  2  0  0  0
 17 19  1  0  0  0
 19 20  1  0  0  0
 19 21  1  0  0  0
 21 22  1  0  0  0
 21 42  1  0  0  0
 21 43  1  0  0  0
 22 23  2  0  0  0
 22 24  1  0  0  0
 24 25  1  0  0  0
 24 26  1  0  0  0
M  END
>  <Activity>
6.32

>  <set>
2

>  <Min_dist>
0.111111

>  <Avg_dist>
0.493081

$$$$
PLFOH
  Cerius2 12110214583D 1   1.00000                          
 
 44 44  0  0  0  0  0  0  0  0999 V2000
    2.2190    1.8386    0.1248 C   0  0  0  0  0  0
    1.4451    0.5591   -0.1991 C   0  0  0  0  0  0
    2.1634   -0.1994   -1.2319 N   0  0  0  0  0  0
    3.0799    0.2150   -1.3112 H   0  0  0  0  0  0
    2.3859   -1.7529   -0.6241 P   0  0  0  0  0  0
    3.0891   -2.6413   -1.7061 O   0  0  0  0  0  0
    3.2807   -1.6879    0.6603 O   0  5  0  0  0  0
    0.9950   -2.3757   -0.2606 O   0  5  0  0  0  0
    0.0709    0.9173   -0.7035 C   0  0  0  0  0  0
   -0.1143    1.0880   -1.8899 O   0  0  0  0  0  0
   -0.9524    1.0480    0.1639 N   0  0  0  0  0  0
   -0.8043    0.9115    1.1128 H   0  0  0  0  0  0
   -2.2883    1.3962   -0.3264 C   0  0  0  0  0  0
   -3.3453    0.7856    0.5960 C   0  0  0  0  0  0
   -3.1914   -0.7134    0.6131 C   0  0  0  0  0  0
   -2.3651   -1.3128    1.5453 C   0  0  0  0  0  0
   -2.2240   -2.6879    1.5610 C   0  0  0  0  0  0
   -2.9094   -3.4635    0.6448 C   0  0  0  0  0  0
   -3.7364   -2.8642   -0.2868 C   0  0  0  0  0  0
   -3.8809   -1.4895   -0.2997 C   0  0  0  0  0  0
   -2.4422    2.8953   -0.3435 C   0  0  0  0  0  0
   -1.8101    3.6108    0.5020 O   0  0  0  0  0  0
   -3.2044    3.4482   -1.2035 O   0  5  0  0  0  0
    3.5531    1.4756    0.7800 C   0  0  0  0  0  0
    4.3960    2.7404    0.9552 C   0  0  0  0  0  0
    3.2936    0.8421    2.1483 C   0  0  0  0  0  0
    2.4049    2.3935   -0.7948 H   0  0  0  0  0  0
    1.6339    2.4538    0.8084 H   0  0  0  0  0  0
    1.3547   -0.0486    0.7012 H   0  0  0  0  0  0
   -2.4179    1.0061   -1.3359 H   0  0  0  0  0  0
   -3.2156    1.1757    1.6055 H   0  0  0  0  0  0
   -4.3392    1.0447    0.2312 H   0  0  0  0  0  0
   -1.8296   -0.7068    2.2611 H   0  0  0  0  0  0
   -1.5779   -3.1561    2.2888 H   0  0  0  0  0  0
   -2.7986   -4.5378    0.6566 H   0  0  0  0  0  0
   -4.2716   -3.4702   -1.0028 H   0  0  0  0  0  0
   -4.5270   -1.0212   -1.0275 H   0  0  0  0  0  0
    4.0878    0.7673    0.1472 H   0  0  0  0  0  0
    5.3465    2.4818    1.4220 H   0  0  0  0  0  0
    4.5809    3.1917   -0.0196 H   0  0  0  0  0  0
    3.8613    3.4487    1.5880 H   0  0  0  0  0  0
    2.7062    1.5267    2.7602 H   0  0  0  0  0  0
    2.7452   -0.0910    2.0186 H   0  0  0  0  0  0
    4.2445    0.6392    2.6410 H   0  0  0  0  0  0
  1  2  1  0  0  0
  1 24  1  0  0  0
  1 27  1  0  0  0
  1 28  1  0  0  0
  2  3  1  0  0  0
  2  9  1  0  0  0
  2 29  1  0  0  0
  3  4  1  0  0  0
  3  5  1  0  0  0
  5  6  2  0  0  0
  5  7  1  0  0  0
  5  8  1  0  0  0
  9 10  2  0  0  0
  9 11  1  0  0  0
 11 12  1  0  0  0
 11 13  1  0  0  0
 13 14  1  0  0  0
 13 21  1  0  0  0
 13 30  1  0  0  0
 14 15  1  0  0  0
 14 31  1  0  0  0
 14 32  1  0  0  0
 15 16  1  0  0  0
 15 20  2  0  0  0
 16 17  2  0  0  0
 16 33  1  0  0  0
 17 18  1  0  0  0
 17 34  1  0  0  0
 18 19  2  0  0  0
 18 35  1  0  0  0
 19 20  1  0  0  0
 19 36  1  0  0  0
 20 37  1  0  0  0
 21 22  2  0  0  0
 21 23  1  0  0  0
 24 25  1  0  0  0
 24 26  1  0  0  0
 24 38  1  0  0  0
 25 39  1  0  0  0
 25 40  1  0  0  0
 25 41  1  0  0  0
 26 42  1  0  0  0
 26 43  1  0  0  0
 26 44  1  0  0  0
M  CHG  3   7  -1   8  -1  23  -1
M  END
>  <Activity>
7.72

>  <set>
2

>  <Min_dist>
0

>  <Avg_dist>
0.318889

$$$$
PNHET
  Cerius2 12110214583D 1   1.00000                          
 
 13 12  0  0  0  0  0  0  0  0999 V2000
   -0.8307   -1.5056    0.5854 O   0  5  0  0  0  0
   -0.6979   -0.0216   -0.0247 P   0  0  0  0  0  0
    0.6895    0.1360   -0.7059 N   0  0  0  0  0  0
    1.6996   -0.0931    0.3358 C   0  0  0  0  0  0
    3.0976    0.0477   -0.2697 C   0  0  0  0  0  0
   -1.8602    0.2173   -1.1129 O   0  5  0  0  0  0
   -0.8405    1.0602    1.1591 O   0  0  0  0  0  0
    1.5731    0.6403    1.1322 H   0  0  0  0  0  0
    1.5797   -1.0967    0.7438 H   0  0  0  0  0  0
    3.8472   -0.1223    0.5032 H   0  0  0  0  0  0
    3.2242   -0.6857   -1.0661 H   0  0  0  0  0  0
    3.2175    1.0513   -0.6776 H   0  0  0  0  0  0
    0.7406    0.3323   -1.5828 H   0  0  0  0  0  0
  1  2  1  0  0  0
  2  3  1  0  0  0
  2  6  1  0  0  0
  2  7  2  0  0  0
  3  4  1  0  0  0
  3 13  1  0  0  0
  4  5  1  0  0  0
  4  8  1  0  0  0
  4  9  1  0  0  0
  5 10  1  0  0  0
  5 11  1  0  0  0
  5 12  1  0  0  0
M  CHG  2   1  -1   6  -1
M  END
>  <Activity>
0.52

>  <set>
2

>  <Min_dist>
0.891892

>  <Avg_dist>
0.928952

$$$$
P_ILE_AOH
  Cerius2 12110214583D 1   1.00000                          
 
 34 33  0  0  0  0  0  0  0  0999 V2000
   -0.7986    1.8165    0.4378 C   0  0  0  0  0  0
   -0.6776    0.3098    0.2008 C   0  0  0  0  0  0
   -1.7539   -0.3867    0.9181 N   0  0  0  0  0  0
   -2.3573    0.3266    1.2991 H   0  0  0  0  0  0
   -2.6526   -1.2119   -0.2412 P   0  0  0  0  0  0
   -3.8247   -1.9818    0.4573 O   0  0  0  0  0  0
   -3.2407   -0.1888   -1.2716 O   0  5  0  0  0  0
   -1.7290   -2.2332   -0.9883 O   0  5  0  0  0  0
    0.6574   -0.1727    0.7067 C   0  0  0  0  0  0
    0.7711   -0.5493    1.8540 O   0  0  0  0  0  0
    1.7251   -0.1857   -0.1157 N   0  0  0  0  0  0
    1.6342    0.1154   -1.0333 H   0  0  0  0  0  0
    3.0229   -0.6548    0.3761 C   0  0  0  0  0  0
    3.1438   -2.1615    0.1391 C   0  0  0  0  0  0
    4.1270    0.0597   -0.3597 C   0  0  0  0  0  0
    5.1948    0.2649    0.1928 O   0  0  0  0  0  0
    3.9528    0.4327   -1.5078 O   0  5  0  0  0  0
    0.3224    2.5419   -0.3093 C   0  0  0  0  0  0
   -2.1540    2.3064   -0.0759 C   0  0  0  0  0  0
   -2.2749    3.8130    0.1611 C   0  0  0  0  0  0
   -0.7177    2.0241    1.5048 H   0  0  0  0  0  0
   -0.7584    0.1022   -0.8662 H   0  0  0  0  0  0
    3.1037   -0.4472    1.4431 H   0  0  0  0  0  0
    3.0630   -2.3691   -0.9279 H   0  0  0  0  0  0
    4.1094   -2.5105    0.5051 H   0  0  0  0  0  0
    2.3452   -2.6783    0.6714 H   0  0  0  0  0  0
    0.2416    2.3342   -1.3763 H   0  0  0  0  0  0
    0.2362    3.6153   -0.1404 H   0  0  0  0  0  0
    1.2880    2.1929    0.0567 H   0  0  0  0  0  0
   -2.2348    2.0987   -1.1428 H   0  0  0  0  0  0
   -2.9526    1.7896    0.4564 H   0  0  0  0  0  0
   -3.2405    4.1620   -0.2048 H   0  0  0  0  0  0
   -2.1941    4.0207    1.2281 H   0  0  0  0  0  0
   -1.4763    4.3298   -0.3711 H   0  0  0  0  0  0
  1  2  1  0  0  0
  1 18  1  0  0  0
  1 19  1  0  0  0
  1 21  1  0  0  0
  2  3  1  0  0  0
  2  9  1  0  0  0
  2 22  1  0  0  0
  3  4  1  0  0  0
  3  5  1  0  0  0
  5  6  2  0  0  0
  5  7  1  0  0  0
  5  8  1  0  0  0
  9 10  2  0  0  0
  9 11  1  0  0  0
 11 12  1  0  0  0
 11 13  1  0  0  0
 13 14  1  0  0  0
 13 15  1  0  0  0
 13 23  1  0  0  0
 14 24  1  0  0  0
 14 25  1  0  0  0
 14 26  1  0  0  0
 15 16  2  0  0  0
 15 17  1  0  0  0
 18 27  1  0  0  0
 18 28  1  0  0  0
 18 29  1  0  0  0
 19 20  1  0  0  0
 19 30  1  0  0  0
 19 31  1  0  0  0
 20 32  1  0  0  0
 20 33  1  0  0  0
 20 34  1  0  0  0
M  CHG  3   7  -1   8  -1  17  -1
M  END
>  <Activity>
6.44

>  <set>
2

>  <Min_dist>
0.204545

>  <Avg_dist>
0.446628

$$$$
R_THIORPHAN
  Cerius2 12110214583D 1   1.00000                          
 
 31 31  0  0  0  0  0  0  0  0999 V2000
    2.0193    2.7280    0.1764 S   0  0  0  0  0  0
    0.2952    2.8598   -0.3722 C   0  0  0  0  0  0
   -0.4428    1.5584   -0.0518 C   0  0  0  0  0  0
   -1.8969    1.6696   -0.5144 C   0  0  0  0  0  0
   -2.6239    0.3878   -0.1988 C   0  0  0  0  0  0
   -3.2645    0.2379    1.0169 C   0  0  0  0  0  0
   -3.9313   -0.9379    1.3064 C   0  0  0  0  0  0
   -3.9578   -1.9636    0.3800 C   0  0  0  0  0  0
   -3.3179   -1.8133   -0.8360 C   0  0  0  0  0  0
   -2.6548   -0.6359   -1.1273 C   0  0  0  0  0  0
    0.2071    0.4446   -0.7469 N   0  0  0  0  0  0
   -0.0793    0.1970   -1.6400 H   0  0  0  0  0  0
    1.2028   -0.2361   -0.1455 C   0  0  0  0  0  0
    1.5608    0.0734    0.9711 O   0  0  0  0  0  0
    1.8713   -1.3819   -0.8606 C   0  0  0  0  0  0
    2.9423   -1.9688    0.0223 C   0  0  0  0  0  0
    3.1422   -1.5043    1.1196 O   0  0  0  0  0  0
    3.6741   -3.0075   -0.4103 O   0  5  0  0  0  0
    2.4739    3.9400   -0.1888 H   0  0  0  0  0  0
   -0.1883    3.6885    0.1450 H   0  0  0  0  0  0
    0.2686    3.0374   -1.4473 H   0  0  0  0  0  0
   -0.4162    1.3809    1.0234 H   0  0  0  0  0  0
   -2.3804    2.4983    0.0028 H   0  0  0  0  0  0
   -1.9236    1.8471   -1.5895 H   0  0  0  0  0  0
   -3.2439    1.0392    1.7406 H   0  0  0  0  0  0
   -4.4313   -1.0553    2.2565 H   0  0  0  0  0  0
   -4.4781   -2.8825    0.6065 H   0  0  0  0  0  0
   -3.3383   -2.6148   -1.5596 H   0  0  0  0  0  0
   -2.1548   -0.5185   -2.0773 H   0  0  0  0  0  0
    1.1308   -2.1477   -1.0915 H   0  0  0  0  0  0
    2.3206   -1.0204   -1.7855 H   0  0  0  0  0  0
  1  2  1  0  0  0
  1 19  1  0  0  0
  2  3  1  0  0  0
  2 20  1  0  0  0
  2 21  1  0  0  0
  3  4  1  0  0  0
  3 11  1  0  0  0
  3 22  1  0  0  0
  4  5  1  0  0  0
  4 23  1  0  0  0
  4 24  1  0  0  0
  5  6  1  0  0  0
  5 10  2  0  0  0
  6  7  2  0  0  0
  6 25  1  0  0  0
  7  8  1  0  0  0
  7 26  1  0  0  0
  8  9  2  0  0  0
  8 27  1  0  0  0
  9 10  1  0  0  0
  9 28  1  0  0  0
 10 29  1  0  0  0
 11 12  1  0  0  0
 11 13  1  0  0  0
 13 14  2  0  0  0
 13 15  1  0  0  0
 15 16  1  0  0  0
 15 30  1  0  0  0
 15 31  1  0  0  0
 16 17  2  0  0  0
 16 18  1  0  0  0
M  CHG  1  18  -1
M  END
>  <Activity>
5.64

>  <set>
2

>  <Min_dist>
0.183333

>  <Avg_dist>
0.457357

$$$$
SO3_FAGNH2
  Cerius2 12110214583D 1   1.00000                          
 
 45 45  0  0  0  0  0  0  0  0999 V2000
    1.3179   -0.0823   -0.2452 C   0  0  0  0  0  0
    2.3250   -1.0402   -0.7084 N   0  0  0  0  0  0
    2.4120   -1.2327   -1.6551 H   0  0  0  0  0  0
    3.3147   -1.7943    0.3843 S   0  0  0  0  0  0
    4.0370   -2.7681   -0.3569 O   0  0  0  0  0  0
    3.8946   -0.7554    1.1612 O   0  0  0  0  0  0
    2.4252   -2.5774    1.3392 O   0  0  0  0  0  0
    1.5858    1.2850   -0.8773 C   0  0  0  0  0  0
    2.9570    1.7641   -0.4757 C   0  0  0  0  0  0
    4.0551    1.4473   -1.2533 C   0  0  0  0  0  0
    5.3129    1.8867   -0.8848 C   0  0  0  0  0  0
    5.4725    2.6434    0.2610 C   0  0  0  0  0  0
    4.3742    2.9610    1.0381 C   0  0  0  0  0  0
    3.1159    2.5252    0.6673 C   0  0  0  0  0  0
   -0.0533   -0.5614   -0.6469 C   0  0  0  0  0  0
   -0.1934   -1.2250   -1.6524 O   0  0  0  0  0  0
   -1.1239   -0.2525    0.1112 N   0  0  0  0  0  0
   -1.0119    0.2782    0.9154 H   0  0  0  0  0  0
   -2.4569   -0.7183   -0.2793 C   0  0  0  0  0  0
   -2.7248   -2.0856    0.3528 C   0  0  0  0  0  0
   -3.4928    0.2670    0.1972 C   0  0  0  0  0  0
   -3.1513    1.2605    0.8032 O   0  0  0  0  0  0
   -4.7988    0.0442   -0.0502 N   0  0  0  0  0  0
   -5.0720   -0.7503   -0.5349 H   0  0  0  0  0  0
   -5.8059    1.0021    0.4130 C   0  0  0  0  0  0
   -7.1771    0.5230    0.0113 C   0  0  0  0  0  0
   -7.3009   -0.5163   -0.6015 O   0  0  0  0  0  0
   -8.2658    1.2494    0.3331 N   0  0  0  0  0  0
   -9.1484    0.9410    0.0745 H   0  0  0  0  0  0
   -8.1668    2.0806    0.8232 H   0  0  0  0  0  0
    1.3695    0.0028    0.8402 H   0  0  0  0  0  0
    3.0111   -3.0138    1.9727 H   0  0  0  0  0  0
    1.5342    1.1999   -1.9628 H   0  0  0  0  0  0
    0.8365    1.9977   -0.5327 H   0  0  0  0  0  0
    3.9304    0.8561   -2.1485 H   0  0  0  0  0  0
    6.1709    1.6386   -1.4919 H   0  0  0  0  0  0
    6.4553    2.9861    0.5493 H   0  0  0  0  0  0
    4.4990    3.5519    1.9335 H   0  0  0  0  0  0
    2.2578    2.7733    1.2745 H   0  0  0  0  0  0
   -2.5085   -0.8034   -1.3647 H   0  0  0  0  0  0
   -2.6732   -2.0005    1.4383 H   0  0  0  0  0  0
   -3.7166   -2.4322    0.0623 H   0  0  0  0  0  0
   -1.9755   -2.7983    0.0082 H   0  0  0  0  0  0
   -5.7543    1.0872    1.4984 H   0  0  0  0  0  0
   -5.6150    1.9762   -0.0374 H   0  0  0  0  0  0
  1  2  1  0  0  0
  1  8  1  0  0  0
  1 15  1  0  0  0
  1 31  1  0  0  0
  2  3  1  0  0  0
  2  4  1  0  0  0
  4  5  2  0  0  0
  4  6  2  0  0  0
  4  7  1  0  0  0
  7 32  1  0  0  0
  8  9  1  0  0  0
  8 33  1  0  0  0
  8 34  1  0  0  0
  9 10  1  0  0  0
  9 14  2  0  0  0
 10 11  2  0  0  0
 10 35  1  0  0  0
 11 12  1  0  0  0
 11 36  1  0  0  0
 12 13  2  0  0  0
 12 37  1  0  0  0
 13 14  1  0  0  0
 13 38  1  0  0  0
 14 39  1  0  0  0
 15 16  2  0  0  0
 15 17  1  0  0  0
 17 18  1  0  0  0
 17 19  1  0  0  0
 19 20  1  0  0  0
 19 21  1  0  0  0
 19 40  1  0  0  0
 20 41  1  0  0  0
 20 42  1  0  0  0
 20 43  1  0  0  0
 21 22  2  0  0  0
 21 23  1  0  0  0
 23 24  1  0  0  0
 23 25  1  0  0  0
 25 26  1  0  0  0
 25 44  1  0  0  0
 25 45  1  0  0  0
 26 27  2  0  0  0
 26 28  1  0  0  0
 28 29  1  0  0  0
 28 30  1  0  0  0
M  END
>  <Activity>
2.37

>  <set>
2

>  <Min_dist>
0.202703

>  <Avg_dist>
0.452556

$$$$
ZFPLAZNCRYS
  Cerius2 12110214583D 1   1.00000                          
 
 68 69  0  0  0  0  0  0  0  0999 V2000
   -3.4300    0.5685    0.3330 C   0  0  0  0  0  0
   -3.1514    0.7551    1.5010 O   0  0  0  0  0  0
   -2.5728    0.9520   -0.6338 N   0  0  0  0  0  0
   -2.7952    0.8030   -1.5661 H   0  0  0  0  0  0
   -1.3053    1.5938   -0.2766 C   0  0  0  0  0  0
   -0.0181    0.3204   -0.0640 P   0  0  0  0  0  0
   -0.4783   -0.6872    0.9175 O   0  0  0  0  0  0
    0.2653   -0.3973   -1.4770 O   0  5  0  0  0  0
    1.3972    1.0408    0.4932 N   0  0  0  0  0  0
    1.1570    1.5357    1.3391 H   0  0  0  0  0  0
    2.3004   -0.0497    0.8840 C   0  0  0  0  0  0
    3.2058   -0.3905   -0.2715 C   0  0  0  0  0  0
    3.4636    0.4490   -1.1081 O   0  0  0  0  0  0
    3.7291   -1.6282   -0.3753 N   0  0  0  0  0  0
    3.4764   -2.3164    0.2597 H   0  0  0  0  0  0
    4.6797   -1.9340   -1.4474 C   0  0  0  0  0  0
    5.6344   -3.0033   -0.9823 C   0  0  0  0  0  0
    5.5314   -3.4627    0.1305 O   0  0  0  0  0  0
    6.5991   -3.4453   -1.8042 O   0  5  0  0  0  0
    3.9180   -2.4305   -2.6780 C   0  0  0  0  0  0
    3.1452    0.3918    2.0808 C   0  0  0  0  0  0
    3.9730   -0.7919    2.5852 C   0  0  0  0  0  0
    4.9379   -0.3132    3.6718 C   0  0  0  0  0  0
    3.0397   -1.8567    3.1649 C   0  0  0  0  0  0
   -0.8901    2.5577   -1.3899 C   0  0  0  0  0  0
    0.3477    3.3074   -0.9695 C   0  0  0  0  0  0
    1.5841    2.9298   -1.4590 C   0  0  0  0  0  0
    2.7196    3.6175   -1.0733 C   0  0  0  0  0  0
    2.6185    4.6831   -0.1986 C   0  0  0  0  0  0
    1.3820    5.0614    0.2901 C   0  0  0  0  0  0
    0.2461    4.3764   -0.0989 C   0  0  0  0  0  0
   -4.5924   -0.0263    0.0050 O   0  0  0  0  0  0
   -5.5132   -0.4448    1.0468 C   0  0  0  0  0  0
   -6.7280   -1.0780    0.4189 C   0  0  0  0  0  0
   -6.7499   -2.4383    0.1742 C   0  0  0  0  0  0
   -7.8642   -3.0192   -0.4018 C   0  0  0  0  0  0
   -8.9569   -2.2397   -0.7327 C   0  0  0  0  0  0
   -8.9353   -0.8795   -0.4872 C   0  0  0  0  0  0
   -7.8227   -0.2994    0.0928 C   0  0  0  0  0  0
   -1.4275    2.1459    0.6552 H   0  0  0  0  0  0
    1.7140   -0.9270    1.1571 H   0  0  0  0  0  0
    5.2389   -1.0345   -1.7047 H   0  0  0  0  0  0
    3.3588   -3.3300   -2.4207 H   0  0  0  0  0  0
    3.2275   -1.6571   -3.0143 H   0  0  0  0  0  0
    4.6253   -2.6581   -3.4756 H   0  0  0  0  0  0
    3.8123    1.1985    1.7768 H   0  0  0  0  0  0
    2.4901    0.7431    2.8780 H   0  0  0  0  0  0
    4.5402   -1.2176    1.7575 H   0  0  0  0  0  0
    5.5276   -1.1565    4.0312 H   0  0  0  0  0  0
    5.6028    0.4453    3.2588 H   0  0  0  0  0  0
    4.3707    0.1125    4.4996 H   0  0  0  0  0  0
    2.4148   -1.4100    3.9383 H   0  0  0  0  0  0
    2.4070   -2.2558    2.3721 H   0  0  0  0  0  0
    3.6324   -2.6628    3.5973 H   0  0  0  0  0  0
   -0.6823    1.9942   -2.2995 H   0  0  0  0  0  0
   -1.6975    3.2655   -1.5774 H   0  0  0  0  0  0
    1.6630    2.0972   -2.1423 H   0  0  0  0  0  0
    3.6856    3.3220   -1.4552 H   0  0  0  0  0  0
    3.5057    5.2200    0.1032 H   0  0  0  0  0  0
    1.3031    5.8937    0.9737 H   0  0  0  0  0  0
   -0.7200    4.6718    0.2829 H   0  0  0  0  0  0
   -5.0215   -1.1683    1.6971 H   0  0  0  0  0  0
   -5.8173    0.4225    1.6327 H   0  0  0  0  0  0
   -5.8962   -3.0473    0.4327 H   0  0  0  0  0  0
   -7.8811   -4.0818   -0.5937 H   0  0  0  0  0  0
   -9.8272   -2.6933   -1.1834 H   0  0  0  0  0  0
   -9.7888   -0.2705   -0.7460 H   0  0  0  0  0  0
   -7.8058    0.7633    0.2846 H   0  0  0  0  0  0
  1  2  2  0  0  0
  1  3  1  0  0  0
  1 32  1  0  0  0
  3  4  1  0  0  0
  3  5  1  0  0  0
  5  6  1  0  0  0
  5 25  1  0  0  0
  5 40  1  0  0  0
  6  7  2  0  0  0
  6  8  1  0  0  0
  6  9  1  0  0  0
  9 10  1  0  0  0
  9 11  1  0  0  0
 11 12  1  0  0  0
 11 21  1  0  0  0
 11 41  1  0  0  0
 12 13  2  0  0  0
 12 14  1  0  0  0
 14 15  1  0  0  0
 14 16  1  0  0  0
 16 17  1  0  0  0
 16 20  1  0  0  0
 16 42  1  0  0  0
 17 18  2  0  0  0
 17 19  1  0  0  0
 20 43  1  0  0  0
 20 44  1  0  0  0
 20 45  1  0  0  0
 21 22  1  0  0  0
 21 46  1  0  0  0
 21 47  1  0  0  0
 22 23  1  0  0  0
 22 24  1  0  0  0
 22 48  1  0  0  0
 23 49  1  0  0  0
 23 50  1  0  0  0
 23 51  1  0  0  0
 24 52  1  0  0  0
 24 53  1  0  0  0
 24 54  1  0  0  0
 25 26  1  0  0  0
 25 55  1  0  0  0
 25 56  1  0  0  0
 26 27  1  0  0  0
 26 31  2  0  0  0
 27 28  2  0  0  0
 27 57  1  0  0  0
 28 29  1  0  0  0
 28 58  1  0  0  0
 29 30  2  0  0  0
 29 59  1  0  0  0
 30 31  1  0  0  0
 30 60  1  0  0  0
 31 61  1  0  0  0
 32 33  1  0  0  0
 33 34  1  0  0  0
 33 62  1  0  0  0
 33 63  1  0  0  0
 34 35  1  0  0  0
 34 39  2  0  0  0
 35 36  2  0  0  0
 35 64  1  0  0  0
 36 37  1  0  0  0
 36 65  1  0  0  0
 37 38  2  0  0  0
 37 66  1  0  0  0
 38 39  1  0  0  0
 38 67  1  0  0  0
 39 68  1  0  0  0
M  CHG  2   8  -1  19  -1
M  END
>  <Activity>
10.17

>  <set>
2

>  <Min_dist>
0

>  <Avg_dist>
0.237485

$$$$
ZGPCLNH2
  Cerius2 12110214583D 1   1.00000                          
 
 48 48  0  0  0  0  0  0  0  0999 V2000
   -1.9160   -0.4632   -0.9094 C   0  0  0  0  0  0
   -1.0349   -1.4203   -0.5574 N   0  0  0  0  0  0
   -1.3008   -2.1220    0.0573 H   0  0  0  0  0  0
    0.3246   -1.4009   -1.1030 C   0  0  0  0  0  0
    1.4065   -0.4285   -0.0042 P   0  0  0  0  0  0
    0.8716    1.0174    0.0973 O   0  0  0  0  0  0
    1.4246   -1.0708    1.4008 O   0  5  0  0  0  0
    3.0982   -0.4043   -0.6831 C   0  0  0  0  0  0
    3.9850    0.4870    0.1887 C   0  0  0  0  0  0
    3.6729    1.9343   -0.0919 C   0  0  0  0  0  0
    3.3335    2.2767   -1.2048 O   0  0  0  0  0  0
    3.7710    2.8483    0.8937 N   0  0  0  0  0  0
    3.5008    3.7659    0.7330 H   0  0  0  0  0  0
    4.1118    2.5884    1.7639 H   0  0  0  0  0  0
    5.4557    0.2112   -0.1302 C   0  0  0  0  0  0
    5.8125   -1.2131    0.2999 C   0  0  0  0  0  0
    7.2467   -1.5309   -0.1277 C   0  0  0  0  0  0
    5.6958   -1.3309    1.8209 C   0  0  0  0  0  0
   -1.5829    0.4158   -1.6794 O   0  0  0  0  0  0
   -3.1671   -0.4842   -0.4124 O   0  0  0  0  0  0
   -4.1164    0.5469   -0.7917 C   0  0  0  0  0  0
   -5.4330    0.2955   -0.1029 C   0  0  0  0  0  0
   -5.6800    0.8494    1.1393 C   0  0  0  0  0  0
   -6.8877    0.6188    1.7712 C   0  0  0  0  0  0
   -7.8485   -0.1654    1.1606 C   0  0  0  0  0  0
   -7.6018   -0.7186   -0.0820 C   0  0  0  0  0  0
   -6.3958   -0.4844   -0.7157 C   0  0  0  0  0  0
    0.7020   -2.4210   -1.1746 H   0  0  0  0  0  0
    0.3118   -0.9478   -2.0942 H   0  0  0  0  0  0
    3.5000   -1.4175   -0.6937 H   0  0  0  0  0  0
    3.0761   -0.0116   -1.6997 H   0  0  0  0  0  0
    3.7946    0.2715    1.2402 H   0  0  0  0  0  0
    5.6215    0.3193   -1.2021 H   0  0  0  0  0  0
    6.0836    0.9213    0.4080 H   0  0  0  0  0  0
    5.1279   -1.9176   -0.1726 H   0  0  0  0  0  0
    7.5009   -2.5456    0.1787 H   0  0  0  0  0  0
    7.3298   -1.4470   -1.2113 H   0  0  0  0  0  0
    7.9312   -0.8264    0.3448 H   0  0  0  0  0  0
    6.3046   -0.5596    2.2928 H   0  0  0  0  0  0
    4.6544   -1.2032    2.1164 H   0  0  0  0  0  0
    6.0453   -2.3137    2.1371 H   0  0  0  0  0  0
   -3.7314    1.5224   -0.4945 H   0  0  0  0  0  0
   -4.2619    0.5273   -1.8717 H   0  0  0  0  0  0
   -4.9294    1.4621    1.6163 H   0  0  0  0  0  0
   -7.0804    1.0510    2.7420 H   0  0  0  0  0  0
   -8.7918   -0.3462    1.6546 H   0  0  0  0  0  0
   -8.3524   -1.3316   -0.5588 H   0  0  0  0  0  0
   -6.2031   -0.9166   -1.6865 H   0  0  0  0  0  0
  1  2  1  0  0  0
  1 19  2  0  0  0
  1 20  1  0  0  0
  2  3  1  0  0  0
  2  4  1  0  0  0
  4  5  1  0  0  0
  4 28  1  0  0  0
  4 29  1  0  0  0
  5  6  2  0  0  0
  5  7  1  0  0  0
  5  8  1  0  0  0
  8  9  1  0  0  0
  8 30  1  0  0  0
  8 31  1  0  0  0
  9 10  1  0  0  0
  9 15  1  0  0  0
  9 32  1  0  0  0
 10 11  2  0  0  0
 10 12  1  0  0  0
 12 13  1  0  0  0
 12 14  1  0  0  0
 15 16  1  0  0  0
 15 33  1  0  0  0
 15 34  1  0  0  0
 16 17  1  0  0  0
 16 18  1  0  0  0
 16 35  1  0  0  0
 17 36  1  0  0  0
 17 37  1  0  0  0
 17 38  1  0  0  0
 18 39  1  0  0  0
 18 40  1  0  0  0
 18 41  1  0  0  0
 20 21  1  0  0  0
 21 22  1  0  0  0
 21 42  1  0  0  0
 21 43  1  0  0  0
 22 23  1  0  0  0
 22 27  2  0  0  0
 23 24  2  0  0  0
 23 44  1  0  0  0
 24 25  1  0  0  0
 24 45  1  0  0  0
 25 26  2  0  0  0
 25 46  1  0  0  0
 26 27  1  0  0  0
 26 47  1  0  0  0
 27 48  1  0  0  0
M  CHG  1   7  -1
M  END
>  <Activity>
5.85

>  <set>
2

>  <Min_dist>
0.079365

>  <Avg_dist>
0.366973

$$$$
Z_D_LPOLA
  Cerius2 12110214583D 1   1.00000                          
 
 66 66  0  0  0  0  0  0  0  0999 V2000
   -3.3962    0.5244    0.5221 C   0  0  0  0  0  0
   -3.1260    0.2637    1.6778 O   0  0  0  0  0  0
   -2.5257    1.2242   -0.2321 N   0  0  0  0  0  0
   -2.7414    1.4323   -1.1547 H   0  0  0  0  0  0
   -1.2537    1.6707    0.3413 C   0  0  0  0  0  0
    0.0158    0.3897    0.0751 P   0  0  0  0  0  0
   -0.4069   -0.8677    0.7313 O   0  0  0  0  0  0
    0.1989    0.1356   -1.5042 O   0  5  0  0  0  0
    1.4137    0.8804    0.7053 O   0  0  0  0  0  0
    2.3364   -0.2005    0.5554 C   0  0  0  0  0  0
    3.5649    0.2847   -0.1702 C   0  0  0  0  0  0
    3.7696    1.4743   -0.2876 O   0  0  0  0  0  0
    4.4360   -0.6034   -0.6886 N   0  0  0  0  0  0
    4.2356   -1.5521   -0.6613 H   0  0  0  0  0  0
    5.6858   -0.1360   -1.2936 C   0  0  0  0  0  0
    6.7505   -1.1888   -1.1239 C   0  0  0  0  0  0
    6.4920   -2.2235   -0.5560 O   0  0  0  0  0  0
    7.9862   -0.9772   -1.6037 O   0  5  0  0  0  0
    5.4632    0.1288   -2.7839 C   0  0  0  0  0  0
    2.7340   -0.7268    1.9359 C   0  0  0  0  0  0
    3.6017   -1.9766    1.7747 C   0  0  0  0  0  0
    4.0900   -2.4392    3.1489 C   0  0  0  0  0  0
    2.7771   -3.0897    1.1252 C   0  0  0  0  0  0
   -0.8167    2.9706   -0.3371 C   0  0  0  0  0  0
    0.5117    3.4368    0.2618 C   0  0  0  0  0  0
    0.9487    4.7367   -0.4166 C   0  0  0  0  0  0
    0.3378    3.6783    1.7626 C   0  0  0  0  0  0
   -4.5628    0.1093   -0.0065 O   0  0  0  0  0  0
   -5.4980   -0.6498    0.8043 C   0  0  0  0  0  0
   -6.7148   -0.9894   -0.0175 C   0  0  0  0  0  0
   -6.7511   -2.1636   -0.7460 C   0  0  0  0  0  0
   -7.8671   -2.4751   -1.4999 C   0  0  0  0  0  0
   -8.9471   -1.6125   -1.5248 C   0  0  0  0  0  0
   -8.9112   -0.4388   -0.7955 C   0  0  0  0  0  0
   -7.7968   -0.1294   -0.0382 C   0  0  0  0  0  0
   -1.3776    1.8427    1.4105 H   0  0  0  0  0  0
    1.8683   -1.0009   -0.0177 H   0  0  0  0  0  0
    6.0040    0.7847   -0.8045 H   0  0  0  0  0  0
    5.1449   -0.7919   -3.2730 H   0  0  0  0  0  0
    4.6930    0.8903   -2.9066 H   0  0  0  0  0  0
    6.3930    0.4766   -3.2340 H   0  0  0  0  0  0
    3.2965    0.0398    2.4688 H   0  0  0  0  0  0
    1.8366   -0.9780    2.5013 H   0  0  0  0  0  0
    4.4595   -1.7444    1.1436 H   0  0  0  0  0  0
    4.7082   -3.3295    3.0341 H   0  0  0  0  0  0
    4.6774   -1.6462    3.6117 H   0  0  0  0  0  0
    3.2322   -2.6714    3.7801 H   0  0  0  0  0  0
    1.8666   -3.2513    1.7022 H   0  0  0  0  0  0
    2.5157   -2.8014    0.1070 H   0  0  0  0  0  0
    3.3616   -4.0095    1.1036 H   0  0  0  0  0  0
   -0.6928    2.7985   -1.4063 H   0  0  0  0  0  0
   -1.5758    3.7365   -0.1779 H   0  0  0  0  0  0
    1.2708    2.6709    0.1026 H   0  0  0  0  0  0
    1.8951    5.0689    0.0101 H   0  0  0  0  0  0
    1.0726    4.5647   -1.4858 H   0  0  0  0  0  0
    0.1896    5.5026   -0.2574 H   0  0  0  0  0  0
   -0.4213    4.4442    1.9218 H   0  0  0  0  0  0
    0.0265    2.7522    2.2459 H   0  0  0  0  0  0
    1.2842    4.0105    2.1893 H   0  0  0  0  0  0
   -5.0212   -1.5691    1.1444 H   0  0  0  0  0  0
   -5.7969   -0.0548    1.6673 H   0  0  0  0  0  0
   -5.9073   -2.8375   -0.7266 H   0  0  0  0  0  0
   -7.8952   -3.3921   -2.0697 H   0  0  0  0  0  0
   -9.8188   -1.8555   -2.1143 H   0  0  0  0  0  0
   -9.7548    0.2352   -0.8152 H   0  0  0  0  0  0
   -7.7688    0.7876    0.5316 H   0  0  0  0  0  0
  1  2  2  0  0  0
  1  3  1  0  0  0
  1 28  1  0  0  0
  3  4  1  0  0  0
  3  5  1  0  0  0
  5  6  1  0  0  0
  5 24  1  0  0  0
  5 36  1  0  0  0
  6  7  2  0  0  0
  6  8  1  0  0  0
  6  9  1  0  0  0
  9 10  1  0  0  0
 10 11  1  0  0  0
 10 20  1  0  0  0
 10 37  1  0  0  0
 11 12  2  0  0  0
 11 13  1  0  0  0
 13 14  1  0  0  0
 13 15  1  0  0  0
 15 16  1  0  0  0
 15 19  1  0  0  0
 15 38  1  0  0  0
 16 17  2  0  0  0
 16 18  1  0  0  0
 19 39  1  0  0  0
 19 40  1  0  0  0
 19 41  1  0  0  0
 20 21  1  0  0  0
 20 42  1  0  0  0
 20 43  1  0  0  0
 21 22  1  0  0  0
 21 23  1  0  0  0
 21 44  1  0  0  0
 22 45  1  0  0  0
 22 46  1  0  0  0
 22 47  1  0  0  0
 23 48  1  0  0  0
 23 49  1  0  0  0
 23 50  1  0  0  0
 24 25  1  0  0  0
 24 51  1  0  0  0
 24 52  1  0  0  0
 25 26  1  0  0  0
 25 27  1  0  0  0
 25 53  1  0  0  0
 26 54  1  0  0  0
 26 55  1  0  0  0
 26 56  1  0  0  0
 27 57  1  0  0  0
 27 58  1  0  0  0
 27 59  1  0  0  0
 28 29  1  0  0  0
 29 30  1  0  0  0
 29 60  1  0  0  0
 29 61  1  0  0  0
 30 31  1  0  0  0
 30 35  2  0  0  0
 31 32  2  0  0  0
 31 62  1  0  0  0
 32 33  1  0  0  0
 32 63  1  0  0  0
 33 34  2  0  0  0
 33 64  1  0  0  0
 34 35  1  0  0  0
 34 65  1  0  0  0
 35 66  1  0  0  0
M  CHG  2   8  -1  18  -1
M  END
>  <Activity>
4.38

>  <set>
2

>  <Min_dist>
0

>  <Avg_dist>
0.258885

$$$$
CBZPHE
  Cerius2 12110214583D 1   1.00000                          
 
 38 39  0  0  0  0  0  0  0  0999 V2000
    1.3260   -0.4776    0.1658 O   0  0  0  0  0  0
    0.0912   -0.8721    0.5296 C   0  0  0  0  0  0
   -0.1055   -1.2951    1.6516 O   0  0  0  0  0  0
   -0.9267   -0.7977   -0.3506 N   0  0  0  0  0  0
   -0.7696   -0.4599   -1.2462 H   0  0  0  0  0  0
   -2.2703   -1.2269    0.0453 C   0  0  0  0  0  0
   -2.4416   -2.6916   -0.2650 C   0  0  0  0  0  0
   -1.8387   -3.1914   -1.2001 O   0  0  0  0  0  0
   -3.1830   -3.3772    0.4189 O   0  5  0  0  0  0
   -3.3129   -0.4165   -0.7275 C   0  0  0  0  0  0
   -3.1416    1.0482   -0.4171 C   0  0  0  0  0  0
   -2.3012    1.8253   -1.1923 C   0  0  0  0  0  0
   -2.1441    3.1689   -0.9076 C   0  0  0  0  0  0
   -2.8277    3.7354    0.1520 C   0  0  0  0  0  0
   -3.6688    2.9586    0.9265 C   0  0  0  0  0  0
   -3.8292    1.6160    0.6392 C   0  0  0  0  0  0
    2.4227   -0.5578    1.1141 C   0  0  0  0  0  0
    3.6872   -0.0596    0.4631 C   0  0  0  0  0  0
    4.0233    1.2790    0.5404 C   0  0  0  0  0  0
    5.1832    1.7360   -0.0568 C   0  0  0  0  0  0
    6.0072    0.8543   -0.7309 C   0  0  0  0  0  0
    5.6716   -0.4845   -0.8074 C   0  0  0  0  0  0
    4.5139   -0.9423   -0.2065 C   0  0  0  0  0  0
   -2.4033   -1.0641    1.1148 H   0  0  0  0  0  0
   -3.1799   -0.5793   -1.7970 H   0  0  0  0  0  0
   -4.3126   -0.7358   -0.4329 H   0  0  0  0  0  0
   -1.7672    1.3827   -2.0200 H   0  0  0  0  0  0
   -1.4870    3.7758   -1.5127 H   0  0  0  0  0  0
   -2.7044    4.7850    0.3748 H   0  0  0  0  0  0
   -4.2026    3.4011    1.7545 H   0  0  0  0  0  0
   -4.4864    1.0090    1.2443 H   0  0  0  0  0  0
    2.1957    0.0572    1.9849 H   0  0  0  0  0  0
    2.5583   -1.5934    1.4261 H   0  0  0  0  0  0
    3.3795    1.9679    1.0670 H   0  0  0  0  0  0
    5.4454    2.7820    0.0029 H   0  0  0  0  0  0
    6.9131    1.2115   -1.1981 H   0  0  0  0  0  0
    6.3152   -1.1733   -1.3344 H   0  0  0  0  0  0
    4.2517   -1.9882   -0.2663 H   0  0  0  0  0  0
  1  2  1  0  0  0
  1 17  1  0  0  0
  2  3  2  0  0  0
  2  4  1  0  0  0
  4  5  1  0  0  0
  4  6  1  0  0  0
  6  7  1  0  0  0
  6 10  1  0  0  0
  6 24  1  0  0  0
  7  8  2  0  0  0
  7  9  1  0  0  0
 10 11  1  0  0  0
 10 25  1  0  0  0
 10 26  1  0  0  0
 11 12  2  0  0  0
 11 16  1  0  0  0
 12 13  1  0  0  0
 12 27  1  0  0  0
 13 14  2  0  0  0
 13 28  1  0  0  0
 14 15  1  0  0  0
 14 29  1  0  0  0
 15 16  2  0  0  0
 15 30  1  0  0  0
 16 31  1  0  0  0
 17 18  1  0  0  0
 17 32  1  0  0  0
 17 33  1  0  0  0
 18 19  2  0  0  0
 18 23  1  0  0  0
 19 20  1  0  0  0
 19 34  1  0  0  0
 20 21  2  0  0  0
 20 35  1  0  0  0
 21 22  1  0  0  0
 21 36  1  0  0  0
 22 23  2  0  0  0
 22 37  1  0  0  0
 23 38  1  0  0  0
M  CHG  1   9  -1
M  END
>  <Activity>
3.29

>  <set>
2

>  <Min_dist>
0.109589

>  <Avg_dist>
0.329124

$$$$
CH3O2S_FAGNH2
  Cerius2 12110214583D 1   1.00000                          
 
 47 47  0  0  0  0  0  0  0  0999 V2000
   -1.3435   -0.1063    0.2301 C   0  0  0  0  0  0
   -2.3468   -1.0730    0.6831 N   0  0  0  0  0  0
   -3.3287   -1.8248   -0.4182 S   0  0  0  0  0  0
   -4.0738   -2.7268    0.3882 O   0  0  0  0  0  0
   -3.9396   -0.7332   -1.0923 O   0  0  0  0  0  0
   -2.1546   -2.6993   -1.4894 C   0  0  0  0  0  0
   -1.6211    1.2550    0.8710 C   0  0  0  0  0  0
   -2.9935    1.7294    0.4680 C   0  0  0  0  0  0
   -4.0925    1.4010    1.2397 C   0  0  0  0  0  0
   -5.3514    1.8361    0.8701 C   0  0  0  0  0  0
   -5.5114    2.6000   -0.2709 C   0  0  0  0  0  0
   -4.4123    2.9291   -1.0420 C   0  0  0  0  0  0
   -3.1528    2.4976   -0.6701 C   0  0  0  0  0  0
    0.0290   -0.5807    0.6330 C   0  0  0  0  0  0
    0.1694   -1.2506    1.6343 O   0  0  0  0  0  0
    1.1004   -0.2605   -0.1193 N   0  0  0  0  0  0
    0.9882    0.2752   -0.9201 H   0  0  0  0  0  0
    2.4347   -0.7217    0.2724 C   0  0  0  0  0  0
    2.7122   -2.0830   -0.3684 C   0  0  0  0  0  0
    3.4667    0.2727   -0.1936 C   0  0  0  0  0  0
    3.1217    1.2685   -0.7937 O   0  0  0  0  0  0
    4.7731    0.0553    0.0566 N   0  0  0  0  0  0
    5.0490   -0.7411    0.5367 H   0  0  0  0  0  0
    5.7764    1.0220   -0.3963 C   0  0  0  0  0  0
    7.1489    0.5476    0.0066 C   0  0  0  0  0  0
    8.2346    1.2823   -0.3064 N   0  0  0  0  0  0
    9.1180    0.9769   -0.0471 H   0  0  0  0  0  0
    8.1326    2.1163   -0.7910 H   0  0  0  0  0  0
    7.2764   -0.4952    0.6124 O   0  0  0  0  0  0
   -1.3919   -0.0138   -0.8549 H   0  0  0  0  0  0
   -2.4359   -1.2726    1.6282 H   0  0  0  0  0  0
   -2.7009   -3.2377   -2.2638 H   0  0  0  0  0  0
   -1.4807   -1.9794   -1.9538 H   0  0  0  0  0  0
   -1.5768   -3.4063   -0.8941 H   0  0  0  0  0  0
   -1.5726    1.1625    1.9559 H   0  0  0  0  0  0
   -0.8746    1.9742    0.5339 H   0  0  0  0  0  0
   -3.9675    0.8042    2.1311 H   0  0  0  0  0  0
   -6.2101    1.5790    1.4725 H   0  0  0  0  0  0
   -6.4951    2.9393   -0.5601 H   0  0  0  0  0  0
   -4.5373    3.5256   -1.9336 H   0  0  0  0  0  0
   -2.2941    2.7548   -1.2725 H   0  0  0  0  0  0
    2.4831   -0.8142    1.3574 H   0  0  0  0  0  0
    2.6638   -1.9905   -1.4534 H   0  0  0  0  0  0
    3.7049   -2.4261   -0.0770 H   0  0  0  0  0  0
    1.9658   -2.8022   -0.0314 H   0  0  0  0  0  0
    5.7279    1.1145   -1.4813 H   0  0  0  0  0  0
    5.5786    1.9918    0.0602 H   0  0  0  0  0  0
  1  2  1  0  0  0
  1  7  1  0  0  0
  1 14  1  0  0  0
  1 30  1  0  0  0
  2  3  1  0  0  0
  2 31  1  0  0  0
  3  4  2  0  0  0
  3  5  2  0  0  0
  3  6  1  0  0  0
  6 32  1  0  0  0
  6 33  1  0  0  0
  6 34  1  0  0  0
  7  8  1  0  0  0
  7 35  1  0  0  0
  7 36  1  0  0  0
  8  9  2  0  0  0
  8 13  1  0  0  0
  9 10  1  0  0  0
  9 37  1  0  0  0
 10 11  2  0  0  0
 10 38  1  0  0  0
 11 12  1  0  0  0
 11 39  1  0  0  0
 12 13  2  0  0  0
 12 40  1  0  0  0
 13 41  1  0  0  0
 14 15  2  0  0  0
 14 16  1  0  0  0
 16 17  1  0  0  0
 16 18  1  0  0  0
 18 19  1  0  0  0
 18 20  1  0  0  0
 18 42  1  0  0  0
 19 43  1  0  0  0
 19 44  1  0  0  0
 19 45  1  0  0  0
 20 21  2  0  0  0
 20 22  1  0  0  0
 22 23  1  0  0  0
 22 24  1  0  0  0
 24 25  1  0  0  0
 24 46  1  0  0  0
 24 47  1  0  0  0
 25 26  1  0  0  0
 25 29  2  0  0  0
 26 27  1  0  0  0
 26 28  1  0  0  0
M  END
>  <Activity>
0.52

>  <set>
2

>  <Min_dist>
0.24359

>  <Avg_dist>
0.47528

$$$$
DAH54
  Cerius2 12110214583D 1   1.00000                          
 
 67 68  0  0  0  0  0  0  0  0999 V2000
   -1.2450    0.9015   -0.9367 C   0  0  0  0  0  0
   -2.7188    1.1121   -0.5837 C   0  0  0  0  0  0
   -3.4532   -0.2290   -0.6394 C   0  0  0  0  0  0
   -4.9260   -0.0049   -0.4120 C   0  0  0  0  0  0
   -5.7627    0.2351   -1.4862 C   0  0  0  0  0  0
   -7.1134    0.4406   -1.2777 C   0  0  0  0  0  0
   -7.6280    0.4057    0.0051 C   0  0  0  0  0  0
   -6.7918    0.1649    1.0789 C   0  0  0  0  0  0
   -5.4413   -0.0449    0.8698 C   0  0  0  0  0  0
   -7.3526    0.1274    2.4771 C   0  0  0  0  0  0
   -7.7624   -1.2449    2.8037 N   0  0  0  0  0  0
   -0.5506    2.2369   -1.0116 C   0  0  0  0  0  0
   -0.5068    2.8370   -2.0594 O   0  0  0  0  0  0
    0.0191    2.7596    0.0856 O   0  5  0  0  0  0
   -0.6071    0.0752    0.0970 N   0  0  0  0  0  0
    0.5447   -0.5796   -0.5374 C   0  0  0  0  0  0
    1.6360   -0.7755    0.4833 C   0  0  0  0  0  0
    1.3534   -0.9097    1.6551 O   0  0  0  0  0  0
    2.9261   -0.8017    0.0940 N   0  0  0  0  0  0
    3.1531   -0.6788   -0.8411 H   0  0  0  0  0  0
    3.9855   -1.0158    1.0829 C   0  0  0  0  0  0
    4.2579   -2.4921    1.2156 C   0  0  0  0  0  0
    4.6445   -2.9429    2.2678 O   0  0  0  0  0  0
    4.0712   -3.3061    0.1647 O   0  5  0  0  0  0
    5.2595   -0.3009    0.6284 C   0  0  0  0  0  0
    4.9870    1.1753    0.4958 C   0  0  0  0  0  0
    5.1793    2.0136    1.5780 C   0  0  0  0  0  0
    4.9294    3.3677    1.4563 C   0  0  0  0  0  0
    4.4875    3.8836    0.2524 C   0  0  0  0  0  0
    4.2961    3.0454   -0.8301 C   0  0  0  0  0  0
    4.5502    1.6920   -0.7097 C   0  0  0  0  0  0
    0.1162   -1.9391   -1.0932 C   0  0  0  0  0  0
    1.2668   -2.5465   -1.8983 C   0  0  0  0  0  0
    0.9016   -3.9733   -2.3129 C   0  0  0  0  0  0
    1.5170   -1.7004   -3.1483 C   0  0  0  0  0  0
   -1.1706    0.3987   -1.9009 H   0  0  0  0  0  0
   -2.7960    1.5271    0.4212 H   0  0  0  0  0  0
   -3.1683    1.8025   -1.2974 H   0  0  0  0  0  0
   -3.3019   -0.6857   -1.6175 H   0  0  0  0  0  0
   -3.0625   -0.8897    0.1345 H   0  0  0  0  0  0
   -5.3607    0.2623   -2.4883 H   0  0  0  0  0  0
   -7.7669    0.6287   -2.1167 H   0  0  0  0  0  0
   -8.6834    0.5670    0.1681 H   0  0  0  0  0  0
   -4.7878   -0.2331    1.7089 H   0  0  0  0  0  0
   -6.5904    0.4568    3.1833 H   0  0  0  0  0  0
   -8.2164    0.7893    2.5400 H   0  0  0  0  0  0
   -8.1295   -1.2221    3.7433 H   0  0  0  0  0  0
   -8.5358   -1.4690    2.1956 H   0  0  0  0  0  0
   -0.2357    0.7103    0.7874 H   0  0  0  0  0  0
    0.9154    0.0449   -1.3502 H   0  0  0  0  0  0
    3.6690   -0.6168    2.0466 H   0  0  0  0  0  0
    6.0477   -0.4602    1.3642 H   0  0  0  0  0  0
    5.5760   -0.7000   -0.3352 H   0  0  0  0  0  0
    5.5245    1.6106    2.5186 H   0  0  0  0  0  0
    5.0789    4.0226    2.3020 H   0  0  0  0  0  0
    4.2915    4.9414    0.1575 H   0  0  0  0  0  0
    3.9506    3.4484   -1.7706 H   0  0  0  0  0  0
    4.4006    1.0371   -1.5554 H   0  0  0  0  0  0
   -0.1411   -2.6040   -0.2688 H   0  0  0  0  0  0
   -0.7514   -1.8099   -1.7402 H   0  0  0  0  0  0
    2.1683   -2.5655   -1.2860 H   0  0  0  0  0  0
    1.7213   -4.4060   -2.8864 H   0  0  0  0  0  0
    0.7234   -4.5760   -1.4224 H   0  0  0  0  0  0
    0.0001   -3.9542   -2.9252 H   0  0  0  0  0  0
    0.5950   -1.6216   -3.7243 H   0  0  0  0  0  0
    1.8471   -0.7045   -2.8528 H   0  0  0  0  0  0
    2.2873   -2.1724   -3.7583 H   0  0  0  0  0  0
  1  2  1  0  0  0
  1 12  1  0  0  0
  1 15  1  0  0  0
  1 36  1  0  0  0
  2  3  1  0  0  0
  2 37  1  0  0  0
  2 38  1  0  0  0
  3  4  1  0  0  0
  3 39  1  0  0  0
  3 40  1  0  0  0
  4  5  1  0  0  0
  4  9  2  0  0  0
  5  6  2  0  0  0
  5 41  1  0  0  0
  6  7  1  0  0  0
  6 42  1  0  0  0
  7  8  2  0  0  0
  7 43  1  0  0  0
  8  9  1  0  0  0
  8 10  1  0  0  0
  9 44  1  0  0  0
 10 11  1  0  0  0
 10 45  1  0  0  0
 10 46  1  0  0  0
 11 47  1  0  0  0
 11 48  1  0  0  0
 12 13  2  0  0  0
 12 14  1  0  0  0
 15 16  1  0  0  0
 15 49  1  0  0  0
 16 17  1  0  0  0
 16 32  1  0  0  0
 16 50  1  0  0  0
 17 18  2  0  0  0
 17 19  1  0  0  0
 19 20  1  0  0  0
 19 21  1  0  0  0
 21 22  1  0  0  0
 21 25  1  0  0  0
 21 51  1  0  0  0
 22 23  2  0  0  0
 22 24  1  0  0  0
 25 26  1  0  0  0
 25 52  1  0  0  0
 25 53  1  0  0  0
 26 27  1  0  0  0
 26 31  2  0  0  0
 27 28  2  0  0  0
 27 54  1  0  0  0
 28 29  1  0  0  0
 28 55  1  0  0  0
 29 30  2  0  0  0
 29 56  1  0  0  0
 30 31  1  0  0  0
 30 57  1  0  0  0
 31 58  1  0  0  0
 32 33  1  0  0  0
 32 59  1  0  0  0
 32 60  1  0  0  0
 33 34  1  0  0  0
 33 35  1  0  0  0
 33 61  1  0  0  0
 34 62  1  0  0  0
 34 63  1  0  0  0
 34 64  1  0  0  0
 35 65  1  0  0  0
 35 66  1  0  0  0
 35 67  1  0  0  0
M  CHG  2  14  -1  24  -1
M  END
>  <Activity>
5.77

>  <set>
2

>  <Min_dist>
0.138889

>  <Avg_dist>
0.382262

$$$$
NHOHBZMAGNA
  Cerius2 12110214583D 1   1.00000                          
 
 56 57  0  0  0  0  0  0  0  0999 V2000
    0.9425    0.2141   -0.6757 C   0  0  0  0  0  0
    2.2928   -0.1204   -0.2164 N   0  0  0  0  0  0
    2.4532   -0.9549    0.2515 H   0  0  0  0  0  0
    3.3123    0.7313   -0.4438 C   0  0  0  0  0  0
    3.1118    1.7746   -1.0288 O   0  0  0  0  0  0
    4.7013    0.3872    0.0287 C   0  0  0  0  0  0
    5.1487   -0.8976   -0.6197 C   0  0  0  0  0  0
    5.9709   -1.7357    0.0420 N   0  0  0  0  0  0
    6.2146   -1.5499    0.9624 H   0  0  0  0  0  0
    6.4791   -2.8875   -0.6062 O   0  0  0  0  0  0
    4.7687   -1.1773   -1.7370 O   0  0  0  0  0  0
    5.6637    1.5135   -0.3537 C   0  0  0  0  0  0
    7.0366    1.2062    0.1866 C   0  0  0  0  0  0
    7.9478    0.5179   -0.5924 C   0  0  0  0  0  0
    9.2071    0.2360   -0.0967 C   0  0  0  0  0  0
    9.5553    0.6428    1.1777 C   0  0  0  0  0  0
    8.6444    1.3319    1.9563 C   0  0  0  0  0  0
    7.3866    1.6176    1.4591 C   0  0  0  0  0  0
    0.7383   -0.3237   -2.0935 C   0  0  0  0  0  0
   -0.0714   -0.4091    0.2488 C   0  0  0  0  0  0
    0.2977   -1.0678    1.1980 O   0  0  0  0  0  0
   -1.3882   -0.2345    0.0209 N   0  0  0  0  0  0
   -1.6833    0.2923   -0.7382 H   0  0  0  0  0  0
   -2.3738   -0.8403    0.9196 C   0  0  0  0  0  0
   -3.7628   -0.4962    0.4471 C   0  0  0  0  0  0
   -3.9139    0.1851   -0.5391 O   0  0  0  0  0  0
   -4.8365   -0.9485    1.1247 N   0  0  0  0  0  0
   -4.7186   -1.5630    1.8660 H   0  0  0  0  0  0
   -6.0501   -0.5548    0.7791 C   0  0  0  0  0  0
   -6.2846    0.8433    0.3170 C   0  0  0  0  0  0
   -7.5262    1.2297   -0.0321 C   0  0  0  0  0  0
   -8.6421    0.2860    0.0406 C   0  0  0  0  0  0
   -8.4278   -1.0892    0.4921 C   0  0  0  0  0  0
   -7.1963   -1.5063    0.8419 C   0  0  0  0  0  0
  -10.0012    0.7270   -0.3459 N   0  0  0  0  0  0
  -10.9343   -0.0536   -0.2877 O   0  0  0  0  0  0
  -10.1863    1.8705   -0.7222 O   0  0  0  0  0  0
    0.8167    1.2968   -0.6761 H   0  0  0  0  0  0
    4.6968    0.2652    1.1118 H   0  0  0  0  0  0
    7.0397   -3.3448    0.0353 H   0  0  0  0  0  0
    5.7111    1.5980   -1.4394 H   0  0  0  0  0  0
    5.3090    2.4536    0.0688 H   0  0  0  0  0  0
    7.6758    0.2001   -1.5880 H   0  0  0  0  0  0
    9.9188   -0.3024   -0.7051 H   0  0  0  0  0  0
   10.5389    0.4220    1.5652 H   0  0  0  0  0  0
    8.9163    1.6495    2.9521 H   0  0  0  0  0  0
    6.6749    2.1560    2.0674 H   0  0  0  0  0  0
    0.8641   -1.4064   -2.0930 H   0  0  0  0  0  0
   -0.2664   -0.0748   -2.4352 H   0  0  0  0  0  0
    1.4716    0.1271   -2.7622 H   0  0  0  0  0  0
   -2.2480   -1.9230    0.9201 H   0  0  0  0  0  0
   -2.2283   -0.4572    1.9297 H   0  0  0  0  0  0
   -5.4631    1.5423    0.2630 H   0  0  0  0  0  0
   -7.6995    2.2416   -0.3673 H   0  0  0  0  0  0
   -9.2611   -1.7745    0.5409 H   0  0  0  0  0  0
   -7.0412   -2.5221    1.1744 H   0  0  0  0  0  0
  1  2  1  0  0  0
  1 19  1  0  0  0
  1 20  1  0  0  0
  1 38  1  0  0  0
  2  3  1  0  0  0
  2  4  1  0  0  0
  4  5  2  0  0  0
  4  6  1  0  0  0
  6  7  1  0  0  0
  6 12  1  0  0  0
  6 39  1  0  0  0
  7  8  1  0  0  0
  7 11  2  0  0  0
  8  9  1  0  0  0
  8 10  1  0  0  0
 10 40  1  0  0  0
 12 13  1  0  0  0
 12 41  1  0  0  0
 12 42  1  0  0  0
 13 14  2  0  0  0
 13 18  1  0  0  0
 14 15  1  0  0  0
 14 43  1  0  0  0
 15 16  2  0  0  0
 15 44  1  0  0  0
 16 17  1  0  0  0
 16 45  1  0  0  0
 17 18  2  0  0  0
 17 46  1  0  0  0
 18 47  1  0  0  0
 19 48  1  0  0  0
 19 49  1  0  0  0
 19 50  1  0  0  0
 20 21  2  0  0  0
 20 22  1  0  0  0
 22 23  1  0  0  0
 22 24  1  0  0  0
 24 25  1  0  0  0
 24 51  1  0  0  0
 24 52  1  0  0  0
 25 26  2  0  0  0
 25 27  1  0  0  0
 27 28  1  0  0  0
 27 29  1  0  0  0
 29 30  2  0  0  0
 29 34  1  0  0  0
 30 31  1  0  0  0
 30 53  1  0  0  0
 31 32  2  0  0  0
 31 54  1  0  0  0
 32 33  1  0  0  0
 32 35  1  0  0  0
 33 34  2  0  0  0
 33 55  1  0  0  0
 34 56  1  0  0  0
 35 36  2  0  0  0
 35 37  2  0  0  0
M  END
>  <Activity>
6.37

>  <set>
2

>  <Min_dist>
0.168539

>  <Avg_dist>
0.484869

$$$$
NHOHBZMOET
  Cerius2 12110214583D 1   1.00000                          
 
 32 32  0  0  0  0  0  0  0  0999 V2000
    4.3307   -0.6218    0.1185 C   0  0  0  0  0  0
    2.9697   -0.2243    0.4316 O   0  0  0  0  0  0
    1.9372   -0.8272   -0.1784 C   0  0  0  0  0  0
    2.1403   -1.7009   -0.9880 O   0  0  0  0  0  0
    0.5247   -0.4146    0.1465 C   0  0  0  0  0  0
    0.3396    1.0446   -0.1814 C   0  0  0  0  0  0
   -0.4359    1.8186    0.6034 N   0  0  0  0  0  0
   -0.8148    1.4560    1.4194 H   0  0  0  0  0  0
   -0.6976    3.1610    0.2368 O   0  0  0  0  0  0
    0.8885    1.5224   -1.1516 O   0  0  0  0  0  0
   -0.4539   -1.2512   -0.6800 C   0  0  0  0  0  0
   -1.8664   -0.9232   -0.2695 C   0  0  0  0  0  0
   -2.5947    0.0096   -0.9838 C   0  0  0  0  0  0
   -3.8903    0.3106   -0.6073 C   0  0  0  0  0  0
   -4.4577   -0.3217    0.4833 C   0  0  0  0  0  0
   -3.7296   -1.2552    1.1970 C   0  0  0  0  0  0
   -2.4356   -1.5593    0.8178 C   0  0  0  0  0  0
    5.3094    0.2148    0.9450 C   0  0  0  0  0  0
    4.4646   -1.6773    0.3557 H   0  0  0  0  0  0
    4.5213   -0.4609   -0.9426 H   0  0  0  0  0  0
    0.3342   -0.5755    1.2076 H   0  0  0  0  0  0
   -1.2656    3.5331    0.9253 H   0  0  0  0  0  0
   -0.3213   -1.0255   -1.7381 H   0  0  0  0  0  0
   -0.2622   -2.3103   -0.5077 H   0  0  0  0  0  0
   -2.1515    0.5036   -1.8358 H   0  0  0  0  0  0
   -4.4591    1.0399   -1.1649 H   0  0  0  0  0  0
   -5.4697   -0.0860    0.7779 H   0  0  0  0  0  0
   -4.1728   -1.7489    2.0492 H   0  0  0  0  0  0
   -1.8667   -2.2886    1.3754 H   0  0  0  0  0  0
    6.3310   -0.0837    0.7100 H   0  0  0  0  0  0
    5.1755    1.2702    0.7078 H   0  0  0  0  0  0
    5.1188    0.0539    2.0061 H   0  0  0  0  0  0
  1  2  1  0  0  0
  1 18  1  0  0  0
  1 19  1  0  0  0
  1 20  1  0  0  0
  2  3  1  0  0  0
  3  4  2  0  0  0
  3  5  1  0  0  0
  5  6  1  0  0  0
  5 11  1  0  0  0
  5 21  1  0  0  0
  6  7  1  0  0  0
  6 10  2  0  0  0
  7  8  1  0  0  0
  7  9  1  0  0  0
  9 22  1  0  0  0
 11 12  1  0  0  0
 11 23  1  0  0  0
 11 24  1  0  0  0
 12 13  2  0  0  0
 12 17  1  0  0  0
 13 14  1  0  0  0
 13 25  1  0  0  0
 14 15  2  0  0  0
 14 26  1  0  0  0
 15 16  1  0  0  0
 15 27  1  0  0  0
 16 17  2  0  0  0
 16 28  1  0  0  0
 17 29  1  0  0  0
 18 30  1  0  0  0
 18 31  1  0  0  0
 18 32  1  0  0  0
M  END
>  <Activity>
4.7

>  <set>
2

>  <Min_dist>
0.418605

>  <Avg_dist>
0.572667

$$$$
NHOHLEU
  Cerius2 12110214583D 1   1.00000                          
 
 24 23  0  0  0  0  0  0  0  0999 V2000
   -0.2848    1.8584    0.5710 N   0  0  0  0  0  0
    0.0111    0.4251    0.4450 C   0  0  0  0  0  0
    1.4328    0.2447   -0.0210 C   0  0  0  0  0  0
    1.9517    1.0855   -0.7244 O   0  0  0  0  0  0
    2.1278   -0.8508    0.3441 N   0  0  0  0  0  0
    1.7128   -1.5233    0.9067 H   0  0  0  0  0  0
    3.4637   -1.0203   -0.0937 O   0  0  0  0  0  0
   -0.9427   -0.2050   -0.5720 C   0  0  0  0  0  0
   -2.3862   -0.0220   -0.0990 C   0  0  0  0  0  0
   -3.3399   -0.6521   -1.1159 C   0  0  0  0  0  0
   -2.5677   -0.7016    1.2597 C   0  0  0  0  0  0
   -0.1528    2.2633   -0.3437 H   0  0  0  0  0  0
   -1.2686    1.9339    0.7823 H   0  0  0  0  0  0
   -0.1183   -0.0591    1.4129 H   0  0  0  0  0  0
    3.7743   -1.8587    0.2746 H   0  0  0  0  0  0
   -0.8134    0.2792   -1.5399 H   0  0  0  0  0  0
   -0.7231   -1.2686   -0.6655 H   0  0  0  0  0  0
   -2.6057    1.0416   -0.0054 H   0  0  0  0  0  0
   -4.3683   -0.5216   -0.7789 H   0  0  0  0  0  0
   -3.2106   -0.1679   -2.0839 H   0  0  0  0  0  0
   -3.1204   -1.7156   -1.2095 H   0  0  0  0  0  0
   -2.3482   -1.7652    1.1662 H   0  0  0  0  0  0
   -1.8882   -0.2527    1.9842 H   0  0  0  0  0  0
   -3.5961   -0.5712    1.5967 H   0  0  0  0  0  0
  1  2  1  0  0  0
  1 12  1  0  0  0
  1 13  1  0  0  0
  2  3  1  0  0  0
  2  8  1  0  0  0
  2 14  1  0  0  0
  3  4  2  0  0  0
  3  5  1  0  0  0
  5  6  1  0  0  0
  5  7  1  0  0  0
  7 15  1  0  0  0
  8  9  1  0  0  0
  8 16  1  0  0  0
  8 17  1  0  0  0
  9 10  1  0  0  0
  9 11  1  0  0  0
  9 18  1  0  0  0
 10 19  1  0  0  0
 10 20  1  0  0  0
 10 21  1  0  0  0
 11 22  1  0  0  0
 11 23  1  0  0  0
 11 24  1  0  0  0
M  END
>  <Activity>
3.72

>  <set>
2

>  <Min_dist>
0.396825

>  <Avg_dist>
0.636007

$$$$
PHOSPHORAMIDON
  Cerius2 12110214583D 1   1.00000                          
 
 69 71  0  0  0  0  0  0  0  0999 V2000
   -2.4936   -0.4641    1.1856 C   0  0  0  0  0  0
   -2.1837   -0.9655   -0.1162 O   0  0  0  0  0  0
   -1.7120   -2.4931    0.0738 P   0  0  0  0  0  0
   -2.7402   -3.2357    0.8365 O   0  0  0  0  0  0
   -1.5162   -3.1778   -1.3702 O   0  5  0  0  0  0
   -0.2545   -2.5298    0.9144 N   0  0  0  0  0  0
    0.0044   -3.5009    1.0036 H   0  0  0  0  0  0
    0.7502   -1.9033    0.0448 C   0  0  0  0  0  0
    1.7354   -1.1352    0.8878 C   0  0  0  0  0  0
    1.7438   -1.2780    2.0921 O   0  0  0  0  0  0
    2.6070   -0.2896    0.3034 N   0  0  0  0  0  0
    2.5577   -0.1256   -0.6514 H   0  0  0  0  0  0
    3.6291    0.3819    1.1101 C   0  0  0  0  0  0
    4.8724   -0.4685    1.1549 C   0  0  0  0  0  0
    5.5971   -0.4286    2.1209 O   0  0  0  0  0  0
    5.1748   -1.2702    0.1216 O   0  5  0  0  0  0
    3.9614    1.7387    0.4859 C   0  0  0  0  0  0
    2.7180    2.5890    0.4411 C   0  0  0  0  0  0
    2.2928    3.4326    1.3948 C   0  0  0  0  0  0
    1.1267    4.0311    1.0019 N   0  0  0  0  0  0
    0.7641    3.5757   -0.2458 C   0  0  0  0  0  0
    1.7476    2.6567   -0.6542 C   0  0  0  0  0  0
    1.6403    2.0273   -1.8959 C   0  0  0  0  0  0
    0.5787    2.3078   -2.7090 C   0  0  0  0  0  0
   -0.3944    3.2144   -2.3108 C   0  0  0  0  0  0
   -0.3063    3.8492   -1.0914 C   0  0  0  0  0  0
    1.4891   -2.9865   -0.7435 C   0  0  0  0  0  0
    2.4689   -2.3294   -1.7178 C   0  0  0  0  0  0
    3.3106   -3.4094   -2.4006 C   0  0  0  0  0  0
    1.6885   -1.5464   -2.7755 C   0  0  0  0  0  0
   -2.2905    1.0526    1.2081 C   0  0  0  0  0  0
   -0.9254    1.3566    0.9149 O   0  0  0  0  0  0
   -3.1971    1.6937    0.1513 C   0  0  0  0  0  0
   -2.7719    1.2922   -1.1525 O   0  0  0  0  0  0
   -4.6367    1.2243    0.3902 C   0  0  0  0  0  0
   -5.4735    1.6894   -0.6707 O   0  0  0  0  0  0
   -4.6623   -0.3054    0.4295 C   0  0  0  0  0  0
   -3.8490   -0.7748    1.5031 O   0  0  0  0  0  0
   -6.1008   -0.7849    0.6338 C   0  0  0  0  0  0
   -1.8349   -0.9288    1.9192 H   0  0  0  0  0  0
    0.2567   -1.2222   -0.6485 H   0  0  0  0  0  0
    3.2535    0.5299    2.1225 H   0  0  0  0  0  0
    4.7218    2.2383    1.0861 H   0  0  0  0  0  0
    4.3370    1.5906   -0.5266 H   0  0  0  0  0  0
    2.7961    3.6118    2.3334 H   0  0  0  0  0  0
    0.6294    4.6794    1.5247 H   0  0  0  0  0  0
    2.3938    1.3214   -2.2127 H   0  0  0  0  0  0
    0.4961    1.8207   -3.6694 H   0  0  0  0  0  0
   -1.2274    3.4261   -2.9647 H   0  0  0  0  0  0
   -1.0684    4.5528   -0.7906 H   0  0  0  0  0  0
    2.0378   -3.6276   -0.0535 H   0  0  0  0  0  0
    0.7689   -3.5852   -1.3011 H   0  0  0  0  0  0
    3.1233   -1.6498   -1.1719 H   0  0  0  0  0  0
    4.0086   -2.9413   -3.0947 H   0  0  0  0  0  0
    3.8666   -3.9672   -1.6471 H   0  0  0  0  0  0
    2.6562   -4.0890   -2.9464 H   0  0  0  0  0  0
    0.9736   -2.2086   -3.2638 H   0  0  0  0  0  0
    1.1550   -0.7241   -2.2987 H   0  0  0  0  0  0
    2.3808   -1.1487   -3.5175 H   0  0  0  0  0  0
   -2.5468    1.4403    2.1941 H   0  0  0  0  0  0
   -0.3877    0.8806    1.5626 H   0  0  0  0  0  0
   -3.1452    2.7793    0.2348 H   0  0  0  0  0  0
   -1.8595    1.5956   -1.2547 H   0  0  0  0  0  0
   -4.9969    1.6209    1.3394 H   0  0  0  0  0  0
   -6.3672    1.3725   -0.4811 H   0  0  0  0  0  0
   -4.2807   -0.6985   -0.5128 H   0  0  0  0  0  0
   -6.1200   -1.8744    0.6620 H   0  0  0  0  0  0
   -6.4852   -0.3903    1.5744 H   0  0  0  0  0  0
   -6.7219   -0.4317   -0.1893 H   0  0  0  0  0  0
  1  2  1  0  0  0
  1 31  1  0  0  0
  1 38  1  0  0  0
  1 40  1  0  0  0
  2  3  1  0  0  0
  3  4  2  0  0  0
  3  5  1  0  0  0
  3  6  1  0  0  0
  6  7  1  0  0  0
  6  8  1  0  0  0
  8  9  1  0  0  0
  8 27  1  0  0  0
  8 41  1  0  0  0
  9 10  2  0  0  0
  9 11  1  0  0  0
 11 12  1  0  0  0
 11 13  1  0  0  0
 13 14  1  0  0  0
 13 17  1  0  0  0
 13 42  1  0  0  0
 14 15  2  0  0  0
 14 16  1  0  0  0
 17 18  1  0  0  0
 17 43  1  0  0  0
 17 44  1  0  0  0
 18 19  2  0  0  0
 18 22  1  0  0  0
 19 20  1  0  0  0
 19 45  1  0  0  0
 20 21  1  0  0  0
 20 46  1  0  0  0
 21 22  2  0  0  0
 21 26  1  0  0  0
 22 23  1  0  0  0
 23 24  2  0  0  0
 23 47  1  0  0  0
 24 25  1  0  0  0
 24 48  1  0  0  0
 25 26  2  0  0  0
 25 49  1  0  0  0
 26 50  1  0  0  0
 27 28  1  0  0  0
 27 51  1  0  0  0
 27 52  1  0  0  0
 28 29  1  0  0  0
 28 30  1  0  0  0
 28 53  1  0  0  0
 29 54  1  0  0  0
 29 55  1  0  0  0
 29 56  1  0  0  0
 30 57  1  0  0  0
 30 58  1  0  0  0
 30 59  1  0  0  0
 31 32  1  0  0  0
 31 33  1  0  0  0
 31 60  1  0  0  0
 32 61  1  0  0  0
 33 34  1  0  0  0
 33 35  1  0  0  0
 33 62  1  0  0  0
 34 63  1  0  0  0
 35 36  1  0  0  0
 35 37  1  0  0  0
 35 64  1  0  0  0
 36 65  1  0  0  0
 37 38  1  0  0  0
 37 39  1  0  0  0
 37 66  1  0  0  0
 39 67  1  0  0  0
 39 68  1  0  0  0
 39 69  1  0  0  0
M  CHG  2   5  -1  16  -1
M  END
>  <Activity>
7.55

>  <set>
2

>  <Min_dist>
0.344828

>  <Avg_dist>
0.557097

$$$$
PLEUNH2
  Cerius2 12110214583D 1   1.00000                          
 
 26 25  0  0  0  0  0  0  0  0999 V2000
   -2.9156    0.9628    1.1095 O   0  0  0  0  0  0
   -2.0235    0.3230   -0.0082 P   0  0  0  0  0  0
   -0.4166    0.3156    0.4922 N   0  0  0  0  0  0
   -0.3753   -0.2509    1.3261 H   0  0  0  0  0  0
    0.3442   -0.3987   -0.5416 C   0  0  0  0  0  0
    0.9404   -1.6507    0.0485 C   0  0  0  0  0  0
    1.1211   -2.6245   -0.6515 O   0  0  0  0  0  0
    1.2729   -1.6881    1.3541 N   0  0  0  0  0  0
    1.6567   -2.4940    1.7339 H   0  0  0  0  0  0
    1.1284   -0.9093    1.9139 H   0  0  0  0  0  0
    1.4647    0.5024   -1.0643 C   0  0  0  0  0  0
    2.4734    0.7639    0.0559 C   0  0  0  0  0  0
    3.6847    1.5067   -0.5115 C   0  0  0  0  0  0
    1.8172    1.6153    1.1446 C   0  0  0  0  0  0
   -2.4943   -1.1474   -0.2743 O   0  5  0  0  0  0
   -2.1564    1.1603   -1.3256 O   0  5  0  0  0  0
   -0.3208   -0.6653   -1.3631 H   0  0  0  0  0  0
    1.9667    0.0115   -1.8980 H   0  0  0  0  0  0
    1.0423    1.4491   -1.4012 H   0  0  0  0  0  0
    2.7966   -0.1856    0.4827 H   0  0  0  0  0  0
    4.4033    1.6930    0.2866 H   0  0  0  0  0  0
    4.1522    0.9001   -1.2872 H   0  0  0  0  0  0
    3.3614    2.4561   -0.9383 H   0  0  0  0  0  0
    1.3757    2.5043    0.6940 H   0  0  0  0  0  0
    1.0391    1.0348    1.6403 H   0  0  0  0  0  0
    2.5691    1.9136    1.8752 H   0  0  0  0  0  0
  1  2  2  0  0  0
  2  3  1  0  0  0
  2 15  1  0  0  0
  2 16  1  0  0  0
  3  4  1  0  0  0
  3  5  1  0  0  0
  5  6  1  0  0  0
  5 11  1  0  0  0
  5 17  1  0  0  0
  6  7  2  0  0  0
  6  8  1  0  0  0
  8  9  1  0  0  0
  8 10  1  0  0  0
 11 12  1  0  0  0
 11 18  1  0  0  0
 11 19  1  0  0  0
 12 13  1  0  0  0
 12 14  1  0  0  0
 12 20  1  0  0  0
 13 21  1  0  0  0
 13 22  1  0  0  0
 13 23  1  0  0  0
 14 24  1  0  0  0
 14 25  1  0  0  0
 14 26  1  0  0  0
M  CHG  2  15  -1  16  -1
M  END
>  <Activity>
4.1

>  <set>
2

>  <Min_dist>
0.261905

>  <Avg_dist>
0.604616

$$$$
S02P_FAGNH2
  Cerius2 12110214583D 1   1.00000                          
 
 45 45  0  0  0  0  0  0  0  0999 V2000
   -1.5165    0.1140    0.2982 C   0  0  0  0  0  0
   -2.5210   -0.8367    0.7934 N   0  0  0  0  0  0
   -2.6350   -1.9612   -0.2725 P   0  0  0  0  0  0
   -3.8552   -2.9400    0.1085 O   0  0  0  0  0  0
   -2.9045   -1.3052   -1.7179 O   0  5  0  0  0  0
   -0.8292   -3.0705   -0.3254 S   0  0  0  0  0  0
   -1.7675    1.4901    0.9181 C   0  0  0  0  0  0
   -3.0966    2.0195    0.4446 C   0  0  0  0  0  0
   -4.2258    1.8487    1.2235 C   0  0  0  0  0  0
   -5.4450    2.3343    0.7891 C   0  0  0  0  0  0
   -5.5349    2.9911   -0.4239 C   0  0  0  0  0  0
   -4.4056    3.1626   -1.2024 C   0  0  0  0  0  0
   -3.1856    2.6809   -0.7660 C   0  0  0  0  0  0
   -0.1398   -0.3655    0.6802 C   0  0  0  0  0  0
    0.0105   -1.0533    1.6677 O   0  0  0  0  0  0
    0.9244   -0.0299   -0.0757 N   0  0  0  0  0  0
    0.8042    0.5202   -0.8656 H   0  0  0  0  0  0
    2.2627   -0.4960    0.2956 C   0  0  0  0  0  0
    2.5365   -1.8450   -0.3725 C   0  0  0  0  0  0
    3.2891    0.5083   -0.1614 C   0  0  0  0  0  0
    2.9374    1.5144   -0.7402 O   0  0  0  0  0  0
    4.5980    0.2885    0.0732 N   0  0  0  0  0  0
    4.8793   -0.5161    0.5361 H   0  0  0  0  0  0
    5.5958    1.2649   -0.3710 C   0  0  0  0  0  0
    6.9725    0.7854    0.0109 C   0  0  0  0  0  0
    8.0544    1.5274   -0.2983 N   0  0  0  0  0  0
    8.9405    1.2188   -0.0525 H   0  0  0  0  0  0
    7.9468    2.3700   -0.7666 H   0  0  0  0  0  0
    7.1070   -0.2681    0.5964 O   0  0  0  0  0  0
   -1.5882    0.1858   -0.7870 H   0  0  0  0  0  0
   -1.7774    1.4028    2.0046 H   0  0  0  0  0  0
   -0.9751    2.1748    0.6158 H   0  0  0  0  0  0
   -4.1556    1.3356    2.1712 H   0  0  0  0  0  0
   -6.3274    2.2002    1.3973 H   0  0  0  0  0  0
   -6.4876    3.3698   -0.7636 H   0  0  0  0  0  0
   -4.4759    3.6754   -2.1503 H   0  0  0  0  0  0
   -2.3032    2.8149   -1.3742 H   0  0  0  0  0  0
    2.3210   -0.6082    1.3782 H   0  0  0  0  0  0
    2.4782   -1.7328   -1.4551 H   0  0  0  0  0  0
    3.5323   -2.1918   -0.0962 H   0  0  0  0  0  0
    1.7941   -2.5714   -0.0420 H   0  0  0  0  0  0
    5.5375    1.3771   -1.4537 H   0  0  0  0  0  0
    5.4008    2.2259    0.1049 H   0  0  0  0  0  0
   -0.9210   -3.9752   -1.1830 H   0  0  0  0  0  0
   -2.9289   -0.6902    1.5822 H   0  0  0  0  0  0
  1  2  1  0  0  0
  1  7  1  0  0  0
  1 14  1  0  0  0
  1 30  1  0  0  0
  2  3  1  0  0  0
  2 45  1  0  0  0
  3  4  2  0  0  0
  3  5  1  0  0  0
  3  6  1  0  0  0
  6 44  1  0  0  0
  7  8  1  0  0  0
  7 31  1  0  0  0
  7 32  1  0  0  0
  8  9  1  0  0  0
  8 13  2  0  0  0
  9 10  2  0  0  0
  9 33  1  0  0  0
 10 11  1  0  0  0
 10 34  1  0  0  0
 11 12  2  0  0  0
 11 35  1  0  0  0
 12 13  1  0  0  0
 12 36  1  0  0  0
 13 37  1  0  0  0
 14 15  2  0  0  0
 14 16  1  0  0  0
 16 17  1  0  0  0
 16 18  1  0  0  0
 18 19  1  0  0  0
 18 20  1  0  0  0
 18 38  1  0  0  0
 19 39  1  0  0  0
 19 40  1  0  0  0
 19 41  1  0  0  0
 20 21  2  0  0  0
 20 22  1  0  0  0
 22 23  1  0  0  0
 22 24  1  0  0  0
 24 25  1  0  0  0
 24 42  1  0  0  0
 24 43  1  0  0  0
 25 26  1  0  0  0
 25 29  2  0  0  0
 26 27  1  0  0  0
 26 28  1  0  0  0
M  CHG  1   5  -1
M  END
>  <Activity>
5.16

>  <set>
2

>  <Min_dist>
0.063492

>  <Avg_dist>
0.391116

$$$$
S_THIORPHAN
  Cerius2 12110214583D 1   1.00000                          
 
 31 31  0  0  0  0  0  0  0  0999 V2000
    3.7134    1.9139   -0.7436 S   0  0  0  0  0  0
    2.1718    2.1026    0.1937 C   0  0  0  0  0  0
    1.2978    0.8630   -0.0071 C   0  0  0  0  0  0
    1.9843   -0.3521    0.6199 C   0  0  0  0  0  0
    1.1873   -1.5936    0.3125 C   0  0  0  0  0  0
    1.4040   -2.2794   -0.8680 C   0  0  0  0  0  0
    0.6728   -3.4182   -1.1499 C   0  0  0  0  0  0
   -0.2747   -3.8713   -0.2512 C   0  0  0  0  0  0
   -0.4908   -3.1860    0.9297 C   0  0  0  0  0  0
    0.2435   -2.0497    1.2137 C   0  0  0  0  0  0
   -0.0401    1.0796    0.6517 C   0  0  0  0  0  0
   -0.0988    1.3333    1.8363 O   0  0  0  0  0  0
   -1.1715    0.9913   -0.0754 N   0  0  0  0  0  0
   -1.1246    0.7884   -1.0227 H   0  0  0  0  0  0
   -2.4721    1.2019    0.5651 C   0  0  0  0  0  0
   -3.5670    1.0487   -0.4590 C   0  0  0  0  0  0
   -3.2894    0.7902   -1.6061 O   0  0  0  0  0  0
   -4.8507    1.1995   -0.0967 O   0  5  0  0  0  0
    4.3165    3.0766   -0.4379 H   0  0  0  0  0  0
    2.4023    2.2170    1.2529 H   0  0  0  0  0  0
    1.6377    2.9848   -0.1592 H   0  0  0  0  0  0
    1.1538    0.6889   -1.0734 H   0  0  0  0  0  0
    2.9887   -0.4541    0.2090 H   0  0  0  0  0  0
    2.0455   -0.2177    1.6999 H   0  0  0  0  0  0
    2.1443   -1.9253   -1.5701 H   0  0  0  0  0  0
    0.8416   -3.9536   -2.0725 H   0  0  0  0  0  0
   -0.8464   -4.7606   -0.4718 H   0  0  0  0  0  0
   -1.2313   -3.5399    1.6317 H   0  0  0  0  0  0
    0.0747   -1.5142    2.1363 H   0  0  0  0  0  0
   -2.6103    0.4662    1.3575 H   0  0  0  0  0  0
   -2.5098    2.2049    0.9900 H   0  0  0  0  0  0
  1  2  1  0  0  0
  1 19  1  0  0  0
  2  3  1  0  0  0
  2 20  1  0  0  0
  2 21  1  0  0  0
  3  4  1  0  0  0
  3 11  1  0  0  0
  3 22  1  0  0  0
  4  5  1  0  0  0
  4 23  1  0  0  0
  4 24  1  0  0  0
  5  6  1  0  0  0
  5 10  2  0  0  0
  6  7  2  0  0  0
  6 25  1  0  0  0
  7  8  1  0  0  0
  7 26  1  0  0  0
  8  9  2  0  0  0
  8 27  1  0  0  0
  9 10  1  0  0  0
  9 28  1  0  0  0
 10 29  1  0  0  0
 11 12  2  0  0  0
 11 13  1  0  0  0
 13 14  1  0  0  0
 13 15  1  0  0  0
 15 16  1  0  0  0
 15 30  1  0  0  0
 15 31  1  0  0  0
 16 17  2  0  0  0
 16 18  1  0  0  0
M  CHG  1  18  -1
M  END
>  <Activity>
5.74

>  <set>
2

>  <Min_dist>
0.119403

>  <Avg_dist>
0.4089

$$$$
ZGGNHOH
  Cerius2 12110214583D 1   1.00000                          
 
 35 35  0  0  0  0  0  0  0  0999 V2000
    6.6123   -0.9507   -1.1971 C   0  0  0  0  0  0
    5.5018   -0.1275   -1.1972 C   0  0  0  0  0  0
    4.9468    0.2846    0.0000 C   0  0  0  0  0  0
    5.5021   -0.1269    1.1972 C   0  0  0  0  0  0
    6.6120   -0.9508    1.1972 C   0  0  0  0  0  0
    7.1679   -1.3617    0.0001 C   0  0  0  0  0  0
    3.7368    1.1829   -0.0001 C   0  0  0  0  0  0
    2.5322    0.3722    0.0000 O   0  0  0  0  0  0
    1.3227    0.9636   -0.0001 C   0  0  0  0  0  0
    0.2046    0.2111    0.0000 N   0  0  0  0  0  0
    0.2712   -0.7566    0.0001 H   0  0  0  0  0  0
   -1.1115    0.8546   -0.0001 C   0  0  0  0  0  0
   -2.1869   -0.2011    0.0000 C   0  0  0  0  0  0
   -3.4855    0.1598    0.0000 N   0  0  0  0  0  0
   -3.7279    1.0990   -0.0001 H   0  0  0  0  0  0
   -4.5309   -0.8665    0.0001 C   0  0  0  0  0  0
   -5.8847   -0.2045    0.0000 C   0  0  0  0  0  0
   -5.9681    1.0054   -0.0001 O   0  0  0  0  0  0
   -7.0028   -0.9570    0.0001 N   0  0  0  0  0  0
   -6.9362   -1.9247    0.0002 H   0  0  0  0  0  0
   -8.2749   -0.3350    0.0001 O   0  0  0  0  0  0
   -1.8839   -1.3754    0.0001 O   0  0  0  0  0  0
    1.2392    2.1758   -0.0002 O   0  0  0  0  0  0
    7.0432   -1.2762   -2.1323 H   0  0  0  0  0  0
    5.0680    0.1940   -2.1325 H   0  0  0  0  0  0
    5.0689    0.1957    2.1324 H   0  0  0  0  0  0
    7.0463   -1.2717    2.1326 H   0  0  0  0  0  0
    8.0348   -2.0058    0.0002 H   0  0  0  0  0  0
    3.7513    1.8121    0.8898 H   0  0  0  0  0  0
    3.7513    1.8119   -0.8902 H   0  0  0  0  0  0
   -1.2122    1.4759    0.8898 H   0  0  0  0  0  0
   -1.2122    1.4758   -0.8901 H   0  0  0  0  0  0
   -4.4302   -1.4878   -0.8898 H   0  0  0  0  0  0
   -4.4302   -1.4876    0.8901 H   0  0  0  0  0  0
   -8.9326   -1.0438    0.0001 H   0  0  0  0  0  0
  1  2  1  0  0  0
  1  6  2  0  0  0
  1 24  1  0  0  0
  2  3  2  0  0  0
  2 25  1  0  0  0
  3  4  1  0  0  0
  3  7  1  0  0  0
  4  5  2  0  0  0
  4 26  1  0  0  0
  5  6  1  0  0  0
  5 27  1  0  0  0
  6 28  1  0  0  0
  7  8  1  0  0  0
  7 29  1  0  0  0
  7 30  1  0  0  0
  8  9  1  0  0  0
  9 10  1  0  0  0
  9 23  2  0  0  0
 10 11  1  0  0  0
 10 12  1  0  0  0
 12 13  1  0  0  0
 12 31  1  0  0  0
 12 32  1  0  0  0
 13 14  1  0  0  0
 13 22  2  0  0  0
 14 15  1  0  0  0
 14 16  1  0  0  0
 16 17  1  0  0  0
 16 33  1  0  0  0
 16 34  1  0  0  0
 17 18  2  0  0  0
 17 19  1  0  0  0
 19 20  1  0  0  0
 19 21  1  0  0  0
 21 35  1  0  0  0
M  END
>  <Activity>
3.03

>  <set>
2

>  <Min_dist>
0.152941

>  <Avg_dist>
0.414604

$$$$
ZYGNH2
  Cerius2 12110214583D 1   1.00000                          
 
 48 49  0  0  0  0  0  0  0  0999 V2000
    5.6985   -1.6853    0.5527 C   0  0  0  0  0  0
    4.5277   -1.6238   -0.1797 C   0  0  0  0  0  0
    4.0358   -0.4007   -0.5953 C   0  0  0  0  0  0
    4.7144    0.7612   -0.2781 C   0  0  0  0  0  0
    5.8847    0.6998    0.4551 C   0  0  0  0  0  0
    6.3773   -0.5235    0.8695 C   0  0  0  0  0  0
    2.7600   -0.3338   -1.3946 C   0  0  0  0  0  0
    1.6295   -0.2084   -0.4922 O   0  0  0  0  0  0
    0.3793   -0.1309   -0.9860 C   0  0  0  0  0  0
   -0.6701   -0.0145   -0.1483 N   0  0  0  0  0  0
   -0.5247    0.0135    0.8103 H   0  0  0  0  0  0
   -2.0304    0.0697   -0.6856 C   0  0  0  0  0  0
   -2.6075   -1.3167   -0.8117 C   0  0  0  0  0  0
   -2.2186   -2.2882    0.0377 N   0  0  0  0  0  0
   -1.5674   -2.0951    0.7301 H   0  0  0  0  0  0
   -2.7796   -3.6360   -0.0849 C   0  0  0  0  0  0
   -2.1846   -4.5261    0.9756 C   0  0  0  0  0  0
   -1.3719   -4.0788    1.7568 O   0  0  0  0  0  0
   -2.5555   -5.8194    1.0558 N   0  0  0  0  0  0
   -2.1725   -6.3923    1.7384 H   0  0  0  0  0  0
   -3.2054   -6.1772    0.4310 H   0  0  0  0  0  0
   -3.4217   -1.5582   -1.6774 O   0  0  0  0  0  0
   -2.9012    0.9007    0.2589 C   0  0  0  0  0  0
   -2.3242    2.2871    0.3850 C   0  0  0  0  0  0
   -2.7239    3.2829   -0.4870 C   0  0  0  0  0  0
   -2.1964    4.5546   -0.3735 C   0  0  0  0  0  0
   -1.2649    4.8322    0.6164 C   0  0  0  0  0  0
   -0.8655    3.8312    1.4901 C   0  0  0  0  0  0
   -1.4002    2.5626    1.3760 C   0  0  0  0  0  0
   -0.7442    6.0823    0.7298 O   0  0  0  0  0  0
    0.1971   -0.1660   -2.1868 O   0  0  0  0  0  0
    6.0804   -2.6405    0.8812 H   0  0  0  0  0  0
    3.9976   -2.5315   -0.4275 H   0  0  0  0  0  0
    4.3304    1.7167   -0.6034 H   0  0  0  0  0  0
    6.4152    1.6075    0.7023 H   0  0  0  0  0  0
    7.2915   -0.5714    1.4426 H   0  0  0  0  0  0
    2.7923    0.5298   -2.0589 H   0  0  0  0  0  0
    2.6537   -1.2432   -1.9860 H   0  0  0  0  0  0
   -2.0047    0.5432   -1.6670 H   0  0  0  0  0  0
   -3.8613   -3.5923    0.0424 H   0  0  0  0  0  0
   -2.5457   -4.0387   -1.0704 H   0  0  0  0  0  0
   -3.9134    0.9634   -0.1409 H   0  0  0  0  0  0
   -2.9269    0.4272    1.2404 H   0  0  0  0  0  0
   -3.4488    3.0663   -1.2576 H   0  0  0  0  0  0
   -2.5087    5.3321   -1.0550 H   0  0  0  0  0  0
   -0.1404    4.0448    2.2615 H   0  0  0  0  0  0
   -1.0899    1.7831    2.0561 H   0  0  0  0  0  0
   -1.3213    6.5719    1.3318 H   0  0  0  0  0  0
  1  2  1  0  0  0
  1  6  2  0  0  0
  1 32  1  0  0  0
  2  3  2  0  0  0
  2 33  1  0  0  0
  3  4  1  0  0  0
  3  7  1  0  0  0
  4  5  2  0  0  0
  4 34  1  0  0  0
  5  6  1  0  0  0
  5 35  1  0  0  0
  6 36  1  0  0  0
  7  8  1  0  0  0
  7 37  1  0  0  0
  7 38  1  0  0  0
  8  9  1  0  0  0
  9 10  1  0  0  0
  9 31  2  0  0  0
 10 11  1  0  0  0
 10 12  1  0  0  0
 12 13  1  0  0  0
 12 23  1  0  0  0
 12 39  1  0  0  0
 13 14  1  0  0  0
 13 22  2  0  0  0
 14 15  1  0  0  0
 14 16  1  0  0  0
 16 17  1  0  0  0
 16 40  1  0  0  0
 16 41  1  0  0  0
 17 18  2  0  0  0
 17 19  1  0  0  0
 19 20  1  0  0  0
 19 21  1  0  0  0
 23 24  1  0  0  0
 23 42  1  0  0  0
 23 43  1  0  0  0
 24 25  1  0  0  0
 24 29  2  0  0  0
 25 26  2  0  0  0
 25 44  1  0  0  0
 26 27  1  0  0  0
 26 45  1  0  0  0
 27 28  2  0  0  0
 27 30  1  0  0  0
 28 29  1  0  0  0
 28 46  1  0  0  0
 29 47  1  0  0  0
 30 48  1  0  0  0
M  END
>  <Activity>
3.66

>  <set>
2

>  <Min_dist>
0.061728

>  <Avg_dist>
0.3281

$$$$
Z_NH_GLNH2
  Cerius2 12110214583D 1   1.00000                          
 
 45 45  0  0  0  0  0  0  0  0999 V2000
    6.2855   -1.4917    0.3476 C   0  0  0  0  0  0
    5.3250   -0.9652   -0.4957 C   0  0  0  0  0  0
    4.7877    0.2821   -0.2380 C   0  0  0  0  0  0
    5.2104    1.0027    0.8634 C   0  0  0  0  0  0
    6.1702    0.4758    1.7072 C   0  0  0  0  0  0
    6.7086   -0.7709    1.4487 C   0  0  0  0  0  0
    3.7413    0.8565   -1.1579 C   0  0  0  0  0  0
    2.4223    0.4612   -0.6972 O   0  0  0  0  0  0
    1.3262    0.8616   -1.3696 C   0  0  0  0  0  0
    0.0774    0.4874   -0.9334 N   0  0  0  0  0  0
   -0.0399   -0.2189    0.0790 N   0  0  0  0  0  0
   -1.2898   -0.5935    0.5155 C   0  0  0  0  0  0
   -2.3867   -0.1927   -0.1573 N   0  0  0  0  0  0
   -2.2949    0.3598   -0.9493 H   0  0  0  0  0  0
   -3.7175   -0.5915    0.3074 C   0  0  0  0  0  0
   -4.7342    0.4876   -0.0702 C   0  0  0  0  0  0
   -4.3402    1.8119    0.5869 C   0  0  0  0  0  0
   -5.3569    2.8911    0.2092 C   0  0  0  0  0  0
   -4.3193    1.6405    2.1071 C   0  0  0  0  0  0
   -4.1057   -1.8959   -0.3398 C   0  0  0  0  0  0
   -4.8374   -2.6679    0.2428 O   0  0  0  0  0  0
   -3.6396   -2.2046   -1.5662 N   0  0  0  0  0  0
   -3.8895   -3.0442   -1.9829 H   0  0  0  0  0  0
   -3.0544   -1.5871   -2.0323 H   0  0  0  0  0  0
   -1.4047   -1.2853    1.5072 O   0  0  0  0  0  0
    1.4410    1.5529   -2.3605 O   0  0  0  0  0  0
    6.7021   -2.4681    0.1487 H   0  0  0  0  0  0
    4.9947   -1.5282   -1.3562 H   0  0  0  0  0  0
    4.7911    1.9774    1.0643 H   0  0  0  0  0  0
    6.5010    1.0391    2.5672 H   0  0  0  0  0  0
    7.4582   -1.1827    2.1081 H   0  0  0  0  0  0
    3.8152    1.9440   -1.1582 H   0  0  0  0  0  0
    3.9007    0.4812   -2.1687 H   0  0  0  0  0  0
   -3.7027   -0.7136    1.3905 H   0  0  0  0  0  0
   -4.7491    0.6097   -1.1533 H   0  0  0  0  0  0
   -5.7244    0.1909    0.2756 H   0  0  0  0  0  0
   -3.3500    2.1086    0.2411 H   0  0  0  0  0  0
   -5.0762    3.8345    0.6774 H   0  0  0  0  0  0
   -5.3717    3.0132   -0.8738 H   0  0  0  0  0  0
   -6.3471    2.5943    0.5550 H   0  0  0  0  0  0
   -5.3095    1.3438    2.4529 H   0  0  0  0  0  0
   -3.5950    0.8717    2.3762 H   0  0  0  0  0  0
   -4.0386    2.5840    2.5753 H   0  0  0  0  0  0
   -0.6551    0.7551   -1.3826 H   0  0  0  0  0  0
    0.6926   -0.4865    0.5283 H   0  0  0  0  0  0
  1  2  1  0  0  0
  1  6  2  0  0  0
  1 27  1  0  0  0
  2  3  2  0  0  0
  2 28  1  0  0  0
  3  4  1  0  0  0
  3  7  1  0  0  0
  4  5  2  0  0  0
  4 29  1  0  0  0
  5  6  1  0  0  0
  5 30  1  0  0  0
  6 31  1  0  0  0
  7  8  1  0  0  0
  7 32  1  0  0  0
  7 33  1  0  0  0
  8  9  1  0  0  0
  9 10  1  0  0  0
  9 26  2  0  0  0
 10 11  1  0  0  0
 10 44  1  0  0  0
 11 12  1  0  0  0
 11 45  1  0  0  0
 12 13  1  0  0  0
 12 25  2  0  0  0
 13 14  1  0  0  0
 13 15  1  0  0  0
 15 16  1  0  0  0
 15 20  1  0  0  0
 15 34  1  0  0  0
 16 17  1  0  0  0
 16 35  1  0  0  0
 16 36  1  0  0  0
 17 18  1  0  0  0
 17 19  1  0  0  0
 17 37  1  0  0  0
 18 38  1  0  0  0
 18 39  1  0  0  0
 18 40  1  0  0  0
 19 41  1  0  0  0
 19 42  1  0  0  0
 19 43  1  0  0  0
 20 21  2  0  0  0
 20 22  1  0  0  0
 22 23  1  0  0  0
 22 24  1  0  0  0
M  END
>  <Activity>
3.42

>  <set>
2

>  <Min_dist>
0.123711

>  <Avg_dist>
0.369686

$$$$
