02
  Cerius2 12110215003D 1   1.00000                          
 
 73 75  0  0  0  0  0  0  0  0999 V2000
    3.7140   -3.5464   -2.0134 C   0  0  0  0  0  0
    3.1787   -4.1118   -0.6964 C   0  0  0  0  0  0
    3.0305   -5.6299   -0.8159 C   0  0  0  0  0  0
    4.1553   -3.7822    0.4344 C   0  0  0  0  0  0
    1.8357   -3.4981   -0.3951 C   0  0  0  0  0  0
    1.1528   -3.8582    0.7515 C   0  0  0  0  0  0
   -0.0792   -3.2953    1.0277 C   0  0  0  0  0  0
   -0.6279   -2.3719    0.1576 C   0  0  0  0  0  0
    0.0555   -2.0111   -0.9885 C   0  0  0  0  0  0
    1.2894   -2.5707   -1.2626 C   0  0  0  0  0  0
   -2.1987   -1.6552    0.5092 S   0  0  0  0  0  0
   -2.7080   -1.2094   -0.7402 O   0  0  0  0  0  0
   -2.8503   -2.5642    1.3859 O   0  0  0  0  0  0
   -1.9297   -0.2854    1.4000 N   0  0  0  0  0  0
   -1.1239    0.8040    0.8432 C   0  0  0  0  0  0
    0.0751    1.0430    1.7243 C   0  0  0  0  0  0
    0.0826    0.6280    2.8638 O   0  0  0  0  0  0
    1.1391    1.7178    1.2458 N   0  0  0  0  0  0
    2.2706    2.0496    2.1231 C   0  0  0  0  0  0
    3.5563    1.4987    1.4941 C   0  0  0  0  0  0
    3.6061    1.9155    0.0857 N   0  0  0  0  0  0
    4.9140    2.7437   -0.5024 S   0  0  0  0  0  0
    4.3622    3.4723   -1.5905 O   0  0  0  0  0  0
    5.4256    3.3884    0.6560 O   0  0  0  0  0  0
    6.0172    1.4220   -1.0740 C   0  0  0  0  0  0
    2.4747    1.5837   -0.7916 C   0  0  0  0  0  0
    1.1914    2.1297   -0.1640 C   0  0  0  0  0  0
   -1.9678    2.0784    0.7736 C   0  0  0  0  0  0
   -3.0918    1.8834   -0.2110 C   0  0  0  0  0  0
   -4.3032    1.3803    0.2177 C   0  0  0  0  0  0
   -5.3428    1.2008   -0.6949 C   0  0  0  0  0  0
   -5.1503    1.5318   -2.0368 C   0  0  0  0  0  0
   -3.9347    2.0339   -2.4528 C   0  0  0  0  0  0
   -2.9091    2.2145   -1.5416 C   0  0  0  0  0  0
   -6.6441    0.6613   -0.2421 C   0  3  0  0  0  0
   -7.6345    0.4912   -1.1155 N   0  0  0  0  0  0
   -8.4876    0.1375   -0.8186 H   0  0  0  0  0  0
   -7.5030    0.7208   -2.0487 H   0  0  0  0  0  0
   -6.8246    0.3461    1.0389 N   0  0  0  0  0  0
   -7.6776   -0.0076    1.3358 H   0  0  0  0  0  0
   -6.1030    0.4700    1.6752 H   0  0  0  0  0  0
    4.6854   -3.9903   -2.2313 H   0  0  0  0  0  0
    3.0183   -3.7812   -2.8190 H   0  0  0  0  0  0
    3.8197   -2.4648   -1.9283 H   0  0  0  0  0  0
    2.3348   -5.8647   -1.6215 H   0  0  0  0  0  0
    4.0019   -6.0738   -1.0338 H   0  0  0  0  0  0
    2.6491   -6.0327    0.1224 H   0  0  0  0  0  0
    4.2609   -2.7007    0.5196 H   0  0  0  0  0  0
    3.7739   -4.1851    1.3727 H   0  0  0  0  0  0
    5.1266   -4.2261    0.2166 H   0  0  0  0  0  0
    1.5815   -4.5797    1.4312 H   0  0  0  0  0  0
   -0.6131   -3.5772    1.9232 H   0  0  0  0  0  0
   -0.3734   -1.2899   -1.6685 H   0  0  0  0  0  0
    1.8233   -2.2889   -2.1581 H   0  0  0  0  0  0
   -2.3057   -0.2044    2.2905 H   0  0  0  0  0  0
   -0.7905    0.5338   -0.1588 H   0  0  0  0  0  0
    2.3484    3.1320    2.2262 H   0  0  0  0  0  0
    2.1192    1.5963    3.1027 H   0  0  0  0  0  0
    4.4221    1.8960    2.0240 H   0  0  0  0  0  0
    3.5555    0.4104    1.5538 H   0  0  0  0  0  0
    6.9255    1.8603   -1.4876 H   0  0  0  0  0  0
    6.2751    0.7758   -0.2350 H   0  0  0  0  0  0
    5.5140    0.8358   -1.8429 H   0  0  0  0  0  0
    2.6261    2.0370   -1.7712 H   0  0  0  0  0  0
    2.3969    0.5014   -0.8947 H   0  0  0  0  0  0
    0.3266    1.7317   -0.6948 H   0  0  0  0  0  0
    1.1903    3.2182   -0.2219 H   0  0  0  0  0  0
   -2.3811    2.2947    1.7587 H   0  0  0  0  0  0
   -1.3426    2.9110    0.4511 H   0  0  0  0  0  0
   -4.4459    1.1257    1.2575 H   0  0  0  0  0  0
   -5.9513    1.3948   -2.7482 H   0  0  0  0  0  0
   -3.7843    2.2901   -3.4911 H   0  0  0  0  0  0
   -1.9591    2.6079   -1.8722 H   0  0  0  0  0  0
  1  2  1  0  0  0
  1 42  1  0  0  0
  1 43  1  0  0  0
  1 44  1  0  0  0
  2  3  1  0  0  0
  2  4  1  0  0  0
  2  5  1  0  0  0
  3 45  1  0  0  0
  3 46  1  0  0  0
  3 47  1  0  0  0
  4 48  1  0  0  0
  4 49  1  0  0  0
  4 50  1  0  0  0
  5  6  1  0  0  0
  5 10  2  0  0  0
  6  7  2  0  0  0
  6 51  1  0  0  0
  7  8  1  0  0  0
  7 52  1  0  0  0
  8  9  2  0  0  0
  8 11  1  0  0  0
  9 10  1  0  0  0
  9 53  1  0  0  0
 10 54  1  0  0  0
 11 12  2  0  0  0
 11 13  2  0  0  0
 11 14  1  0  0  0
 14 15  1  0  0  0
 14 55  1  0  0  0
 15 16  1  0  0  0
 15 28  1  0  0  0
 15 56  1  0  0  0
 16 17  2  0  0  0
 16 18  1  0  0  0
 18 19  1  0  0  0
 18 27  1  0  0  0
 19 20  1  0  0  0
 19 57  1  0  0  0
 19 58  1  0  0  0
 20 21  1  0  0  0
 20 59  1  0  0  0
 20 60  1  0  0  0
 21 22  1  0  0  0
 21 26  1  0  0  0
 22 23  2  0  0  0
 22 24  2  0  0  0
 22 25  1  0  0  0
 25 61  1  0  0  0
 25 62  1  0  0  0
 25 63  1  0  0  0
 26 27  1  0  0  0
 26 64  1  0  0  0
 26 65  1  0  0  0
 27 66  1  0  0  0
 27 67  1  0  0  0
 28 29  1  0  0  0
 28 68  1  0  0  0
 28 69  1  0  0  0
 29 30  1  0  0  0
 29 34  2  0  0  0
 30 31  2  0  0  0
 30 70  1  0  0  0
 31 32  1  0  0  0
 31 35  1  0  0  0
 32 33  2  0  0  0
 32 71  1  0  0  0
 33 34  1  0  0  0
 33 72  1  0  0  0
 34 73  1  0  0  0
 35 36  1  0  0  0
 35 39  1  0  0  0
 36 37  1  0  0  0
 36 38  1  0  0  0
 39 40  1  0  0  0
 39 41  1  0  0  0
M  CHG  1  35   1
M  END
>  <Activity>
8.367

>  <set>
1

>  <Min_dist>
999.9

>  <Avg_dist>
999.9

$$$$
03
  Cerius2 12110215003D 1   1.00000                          
Structure written by Cerius2 SD Exporter
 71 73  0  0  0  0  0  0  0  0999 V2000
    3.7140   -3.5464   -2.0134 C   0  0  0  0  0  0
    3.1787   -4.1118   -0.6964 C   0  0  0  0  0  0
    3.0305   -5.6299   -0.8159 C   0  0  0  0  0  0
    4.1553   -3.7822    0.4344 C   0  0  0  0  0  0
    1.8357   -3.4981   -0.3951 C   0  0  0  0  0  0
    1.1528   -3.8582    0.7515 C   0  0  0  0  0  0
   -0.0792   -3.2953    1.0277 C   0  0  0  0  0  0
   -0.6279   -2.3719    0.1576 C   0  0  0  0  0  0
    0.0555   -2.0111   -0.9885 C   0  0  0  0  0  0
    1.2894   -2.5707   -1.2626 C   0  0  0  0  0  0
   -2.1987   -1.6552    0.5092 S   0  0  0  0  0  0
   -2.7080   -1.2094   -0.7402 O   0  0  0  0  0  0
   -2.8503   -2.5642    1.3859 O   0  0  0  0  0  0
   -1.9297   -0.2854    1.4000 N   0  0  0  0  0  0
   -1.1239    0.8040    0.8432 C   0  0  0  0  0  0
    0.0751    1.0430    1.7243 C   0  0  0  0  0  0
    0.0826    0.6280    2.8638 O   0  0  0  0  0  0
    1.1391    1.7178    1.2458 N   0  0  0  0  0  0
    2.2706    2.0496    2.1231 C   0  0  0  0  0  0
    3.5563    1.4987    1.4941 C   0  0  0  0  0  0
    3.6061    1.9155    0.0857 C   0  0  0  0  0  0
    2.4747    1.5837   -0.7916 C   0  0  0  0  0  0
    1.1914    2.1297   -0.1640 C   0  0  0  0  0  0
   -1.9678    2.0784    0.7736 C   0  0  0  0  0  0
   -3.0918    1.8834   -0.2110 C   0  0  0  0  0  0
   -4.3032    1.3803    0.2177 C   0  0  0  0  0  0
   -5.3428    1.2008   -0.6949 C   0  0  0  0  0  0
   -5.1503    1.5318   -2.0368 C   0  0  0  0  0  0
   -3.9347    2.0339   -2.4528 C   0  0  0  0  0  0
   -2.9091    2.2145   -1.5416 C   0  0  0  0  0  0
   -6.6441    0.6613   -0.2421 C   0  3  0  0  0  0
   -7.6345    0.4912   -1.1155 N   0  0  0  0  0  0
   -8.4876    0.1375   -0.8186 H   0  0  0  0  0  0
   -6.8246    0.3461    1.0389 N   0  0  0  0  0  0
   -7.6776   -0.0076    1.3358 H   0  0  0  0  0  0
   -6.1030    0.4700    1.6752 H   0  0  0  0  0  0
    4.6854   -3.9903   -2.2313 H   0  0  0  0  0  0
    3.0183   -3.7812   -2.8190 H   0  0  0  0  0  0
    3.8197   -2.4648   -1.9283 H   0  0  0  0  0  0
    2.3348   -5.8647   -1.6215 H   0  0  0  0  0  0
    4.0019   -6.0738   -1.0338 H   0  0  0  0  0  0
    2.6491   -6.0327    0.1224 H   0  0  0  0  0  0
    4.2609   -2.7007    0.5196 H   0  0  0  0  0  0
    3.7739   -4.1851    1.3727 H   0  0  0  0  0  0
    5.1266   -4.2261    0.2166 H   0  0  0  0  0  0
    1.5815   -4.5797    1.4312 H   0  0  0  0  0  0
   -0.6131   -3.5772    1.9232 H   0  0  0  0  0  0
   -0.3734   -1.2899   -1.6685 H   0  0  0  0  0  0
    1.8233   -2.2889   -2.1581 H   0  0  0  0  0  0
   -2.3057   -0.2044    2.2905 H   0  0  0  0  0  0
   -0.7905    0.5338   -0.1588 H   0  0  0  0  0  0
    2.3484    3.1320    2.2262 H   0  0  0  0  0  0
    2.1192    1.5963    3.1027 H   0  0  0  0  0  0
    4.4221    1.8960    2.0240 H   0  0  0  0  0  0
    3.5555    0.4104    1.5538 H   0  0  0  0  0  0
    2.6261    2.0370   -1.7712 H   0  0  0  0  0  0
    2.3969    0.5014   -0.8947 H   0  0  0  0  0  0
    0.3266    1.7317   -0.6948 H   0  0  0  0  0  0
    1.1903    3.2182   -0.2219 H   0  0  0  0  0  0
   -2.3811    2.2947    1.7587 H   0  0  0  0  0  0
   -1.3426    2.9110    0.4511 H   0  0  0  0  0  0
   -4.4459    1.1257    1.2575 H   0  0  0  0  0  0
   -5.9513    1.3948   -2.7482 H   0  0  0  0  0  0
   -3.7843    2.2901   -3.4911 H   0  0  0  0  0  0
   -1.9591    2.6079   -1.8722 H   0  0  0  0  0  0
    3.6772    2.8616    0.0378 H   0  0  0  0  0  0
    4.8210    1.3422   -0.5105 C   0  0  0  0  0  0
    4.8765    1.5978   -1.4238 H   0  0  0  0  0  0
    5.5842    1.6633   -0.0448 H   0  0  0  0  0  0
    4.7875    0.3948   -0.4483 H   0  0  0  0  0  0
   -7.5125    0.7044   -1.9813 H   0  0  0  0  0  0
  1  2  1  0  0  0
  1 37  1  0  0  0
  1 38  1  0  0  0
  1 39  1  0  0  0
  2  3  1  0  0  0
  2  4  1  0  0  0
  2  5  1  0  0  0
  3 40  1  0  0  0
  3 41  1  0  0  0
  3 42  1  0  0  0
  4 43  1  0  0  0
  4 44  1  0  0  0
  4 45  1  0  0  0
  5  6  1  0  0  0
  5 10  2  0  0  0
  6  7  2  0  0  0
  6 46  1  0  0  0
  7  8  1  0  0  0
  7 47  1  0  0  0
  8  9  2  0  0  0
  8 11  1  0  0  0
  9 10  1  0  0  0
  9 48  1  0  0  0
 10 49  1  0  0  0
 11 12  2  0  0  0
 11 13  2  0  0  0
 11 14  1  0  0  0
 14 15  1  0  0  0
 14 50  1  0  0  0
 15 16  1  0  0  0
 15 24  1  0  0  0
 15 51  1  0  0  0
 16 17  2  0  0  0
 16 18  1  0  0  0
 18 19  1  0  0  0
 18 23  1  0  0  0
 19 20  1  0  0  0
 19 52  1  0  0  0
 19 53  1  0  0  0
 20 21  1  0  0  0
 20 54  1  0  0  0
 20 55  1  0  0  0
 21 22  1  0  0  0
 21 66  1  0  0  0
 21 67  1  0  0  0
 22 23  1  0  0  0
 22 56  1  0  0  0
 22 57  1  0  0  0
 23 58  1  0  0  0
 23 59  1  0  0  0
 24 25  1  0  0  0
 24 60  1  0  0  0
 24 61  1  0  0  0
 25 26  1  0  0  0
 25 30  2  0  0  0
 26 27  2  0  0  0
 26 62  1  0  0  0
 27 28  1  0  0  0
 27 31  1  0  0  0
 28 29  2  0  0  0
 28 63  1  0  0  0
 29 30  1  0  0  0
 29 64  1  0  0  0
 30 65  1  0  0  0
 31 32  1  0  0  0
 31 34  1  0  0  0
 32 33  1  0  0  0
 32 71  1  0  0  0
 34 35  1  0  0  0
 34 36  1  0  0  0
 67 68  1  0  0  0
 67 69  1  0  0  0
 67 70  1  0  0  0
M  CHG  1  31   1
M  END
>  <Activity>
8.301

>  <set>
1

>  <Min_dist>
999.9

>  <Avg_dist>
999.9

$$$$
04
  Cerius2 12110215003D 1   1.00000                          
Structure written by Cerius2 SD Exporter
 65 68  0  0  0  0  0  0  0  0999 V2000
   -2.2546    2.4450   -2.1715 C   0  0  0  0  0  0
   -3.4460    3.0769   -2.3566 C   0  0  0  0  0  0
   -3.9092    4.0178   -1.4393 C   0  0  0  0  0  0
   -3.1839    4.3323   -0.3311 C   0  0  0  0  0  0
   -1.9493    3.7005   -0.1059 C   0  0  0  0  0  0
   -1.1722    3.9994    1.0264 C   0  0  0  0  0  0
    0.0189    3.3676    1.2114 C   0  0  0  0  0  0
    0.4823    2.4265    0.2936 C   0  0  0  0  0  0
   -0.2427    2.1121   -0.8143 C   0  0  0  0  0  0
   -1.4780    2.7435   -1.0393 C   0  0  0  0  0  0
    2.0305    1.6325    0.5717 S   0  0  0  0  0  0
    2.4679    1.1821   -0.7031 O   0  0  0  0  0  0
    2.7586    2.4971    1.4329 O   0  0  0  0  0  0
    1.7332    0.2636    1.4549 N   0  0  0  0  0  0
    0.8554   -0.7788    0.9172 C   0  0  0  0  0  0
   -0.3173   -0.9748    1.8431 C   0  0  0  0  0  0
   -0.2599   -0.5763    2.9872 O   0  0  0  0  0  0
   -1.4299   -1.5930    1.3999 N   0  0  0  0  0  0
   -2.5393   -1.8856    2.3183 C   0  0  0  0  0  0
   -3.8224   -1.2671    1.7496 C   0  0  0  0  0  0
   -3.9481   -1.6602    0.3391 C   0  0  0  0  0  0
   -2.8387   -1.3676   -0.5793 C   0  0  0  0  0  0
   -1.5579   -1.9811   -0.0118 C   0  0  0  0  0  0
    1.6349   -2.0898    0.7969 C   0  0  0  0  0  0
    2.7264   -1.9328   -0.2303 C   0  0  0  0  0  0
    3.9763   -1.4929    0.1550 C   0  0  0  0  0  0
    4.9857   -1.3486   -0.7970 C   0  0  0  0  0  0
    4.7240   -1.6504   -2.1340 C   0  0  0  0  0  0
    3.4703   -2.0894   -2.5063 C   0  0  0  0  0  0
    2.4749   -2.2355   -1.5564 C   0  0  0  0  0  0
    6.3281   -0.8768   -0.3909 C   0  3  0  0  0  0
    7.2894   -0.7400   -1.3018 N   0  0  0  0  0  0
    8.1694   -0.4308   -1.0356 H   0  0  0  0  0  0
    7.1098   -0.9496   -2.2317 H   0  0  0  0  0  0
    6.5746   -0.5891    0.8856 N   0  0  0  0  0  0
    7.4546   -0.2799    1.1518 H   0  0  0  0  0  0
   -1.9102    1.7149   -2.8889 H   0  0  0  0  0  0
   -4.0410    2.8457   -3.2278 H   0  0  0  0  0  0
   -4.8576    4.5053   -1.6103 H   0  0  0  0  0  0
   -3.5553    5.0640    0.3711 H   0  0  0  0  0  0
   -1.5182    4.7269    1.7456 H   0  0  0  0  0  0
    0.6142    3.5991    2.0823 H   0  0  0  0  0  0
    0.1294    1.3814   -1.5172 H   0  0  0  0  0  0
    2.1403    0.1520    2.3283 H   0  0  0  0  0  0
    0.4953   -0.4786   -0.0668 H   0  0  0  0  0  0
   -2.6631   -2.9646    2.4104 H   0  0  0  0  0  0
   -2.3277   -1.4542    3.2967 H   0  0  0  0  0  0
   -4.6836   -1.6320    2.3092 H   0  0  0  0  0  0
   -3.7687   -0.1809    1.8232 H   0  0  0  0  0  0
   -3.0502   -1.7990   -1.5577 H   0  0  0  0  0  0
   -2.7149   -0.2886   -0.6715 H   0  0  0  0  0  0
   -0.6975   -1.6154   -0.5723 H   0  0  0  0  0  0
   -1.6096   -3.0675   -0.0838 H   0  0  0  0  0  0
    2.0769   -2.3396    1.7614 H   0  0  0  0  0  0
    0.9588   -2.8876    0.4896 H   0  0  0  0  0  0
    4.1726   -1.2605    1.1913 H   0  0  0  0  0  0
    5.5012   -1.5404   -2.8758 H   0  0  0  0  0  0
    3.2664   -2.3230   -3.5409 H   0  0  0  0  0  0
    1.4950   -2.5794   -1.8529 H   0  0  0  0  0  0
    5.9247   -0.6815    1.5013 H   0  0  0  0  0  0
   -4.0649   -2.6012    0.2818 H   0  0  0  0  0  0
   -5.1580   -1.0230   -0.1995 C   0  0  0  0  0  0
   -5.2621   -1.2622   -1.1129 H   0  0  0  0  0  0
   -5.9160   -1.3157    0.2929 H   0  0  0  0  0  0
   -5.0781   -0.0792   -0.1264 H   0  0  0  0  0  0
  1  2  1  0  0  0
  1 10  2  0  0  0
  1 37  1  0  0  0
  2  3  2  0  0  0
  2 38  1  0  0  0
  3  4  1  0  0  0
  3 39  1  0  0  0
  4  5  2  0  0  0
  4 40  1  0  0  0
  5  6  1  0  0  0
  5 10  1  0  0  0
  6  7  2  0  0  0
  6 41  1  0  0  0
  7  8  1  0  0  0
  7 42  1  0  0  0
  8  9  2  0  0  0
  8 11  1  0  0  0
  9 10  1  0  0  0
  9 43  1  0  0  0
 11 12  2  0  0  0
 11 13  2  0  0  0
 11 14  1  0  0  0
 14 15  1  0  0  0
 14 44  1  0  0  0
 15 16  1  0  0  0
 15 24  1  0  0  0
 15 45  1  0  0  0
 16 17  2  0  0  0
 16 18  1  0  0  0
 18 19  1  0  0  0
 18 23  1  0  0  0
 19 20  1  0  0  0
 19 46  1  0  0  0
 19 47  1  0  0  0
 20 21  1  0  0  0
 20 48  1  0  0  0
 20 49  1  0  0  0
 21 22  1  0  0  0
 21 61  1  0  0  0
 21 62  1  0  0  0
 22 23  1  0  0  0
 22 50  1  0  0  0
 22 51  1  0  0  0
 23 52  1  0  0  0
 23 53  1  0  0  0
 24 25  1  0  0  0
 24 54  1  0  0  0
 24 55  1  0  0  0
 25 26  1  0  0  0
 25 30  2  0  0  0
 26 27  2  0  0  0
 26 56  1  0  0  0
 27 28  1  0  0  0
 27 31  1  0  0  0
 28 29  2  0  0  0
 28 57  1  0  0  0
 29 30  1  0  0  0
 29 58  1  0  0  0
 30 59  1  0  0  0
 31 32  1  0  0  0
 31 35  1  0  0  0
 32 33  1  0  0  0
 32 34  1  0  0  0
 35 36  1  0  0  0
 35 60  1  0  0  0
 62 63  1  0  0  0
 62 64  1  0  0  0
 62 65  1  0  0  0
M  CHG  1  31   1
M  END
>  <Activity>
8.208

>  <set>
1

>  <Min_dist>
999.9

>  <Avg_dist>
999.9

$$$$
06
  Cerius2 12110215003D 1   1.00000                          
 
 71 74  0  0  0  0  0  0  0  0999 V2000
   -1.8961    2.7611   -2.1732 C   0  0  0  0  0  0
   -3.0538    3.4545   -2.3520 C   0  0  0  0  0  0
   -3.5222    4.3323   -1.3767 C   0  0  0  0  0  0
   -2.8359    4.5218   -0.2164 C   0  0  0  0  0  0
   -1.6370    3.8232    0.0041 C   0  0  0  0  0  0
   -0.9006    3.9930    1.1891 C   0  0  0  0  0  0
    0.2568    3.2996    1.3678 C   0  0  0  0  0  0
    0.7254    2.4217    0.3920 C   0  0  0  0  0  0
    0.0394    2.2323   -0.7680 C   0  0  0  0  0  0
   -1.1603    2.9304   -0.9883 C   0  0  0  0  0  0
    2.2291    1.5444    0.6640 S   0  0  0  0  0  0
    2.7059    1.1863   -0.6258 O   0  0  0  0  0  0
    2.9496    2.3023    1.6261 O   0  0  0  0  0  0
    1.8420    0.1188    1.4125 N   0  0  0  0  0  0
    0.9510   -0.8375    0.7508 C   0  0  0  0  0  0
   -0.2684   -1.0634    1.6070 C   0  0  0  0  0  0
   -0.2585   -0.7360    2.7748 O   0  0  0  0  0  0
   -1.3700   -1.6291    1.0751 N   0  0  0  0  0  0
   -2.5419   -1.9177    1.9137 C   0  0  0  0  0  0
   -3.7684   -1.2382    1.2925 C   0  0  0  0  0  0
   -3.8195   -1.5769   -0.1367 N   0  0  0  0  0  0
   -4.9214   -2.1418   -0.6688 C   0  0  0  0  0  0
   -4.8637   -2.6785   -1.7583 O   0  0  0  0  0  0
   -6.0872   -2.1118    0.0067 N   0  0  0  0  0  0
   -7.0778   -3.1723   -0.1941 C   0  0  0  0  0  0
   -6.3640   -1.0185    0.9419 C   0  0  0  0  0  0
   -2.6476   -1.2883   -0.9753 C   0  0  0  0  0  0
   -1.4231   -1.9627   -0.3552 C   0  0  0  0  0  0
    1.6858   -2.1644    0.5498 C   0  0  0  0  0  0
    2.8644   -1.9523   -0.3651 C   0  0  0  0  0  0
    4.0941   -1.6159    0.1630 C   0  0  0  0  0  0
    5.1842   -1.4203   -0.6852 C   0  0  0  0  0  0
    5.0233   -1.5665   -2.0636 C   0  0  0  0  0  0
    3.7887   -1.9030   -2.5790 C   0  0  0  0  0  0
    2.7126   -2.1008   -1.7320 C   0  0  0  0  0  0
    6.5055   -1.0590   -0.1257 C   0  3  0  0  0  0
    7.5441   -0.8730   -0.9379 N   0  0  0  0  0  0
    8.4103   -0.6361   -0.5711 H   0  0  0  0  0  0
    7.4346   -0.9744   -1.8963 H   0  0  0  0  0  0
    6.6559   -0.9198    1.1899 N   0  0  0  0  0  0
    7.5221   -0.6830    1.5567 H   0  0  0  0  0  0
    5.8993   -1.0553    1.7816 H   0  0  0  0  0  0
   -1.5474    2.0809   -2.9362 H   0  0  0  0  0  0
   -3.6175    3.3225   -3.2637 H   0  0  0  0  0  0
   -4.4433    4.8708   -1.5438 H   0  0  0  0  0  0
   -3.2109    5.2057    0.5306 H   0  0  0  0  0  0
   -1.2511    4.6704    1.9537 H   0  0  0  0  0  0
    0.8207    3.4320    2.2793 H   0  0  0  0  0  0
    0.4151    1.5492   -1.5155 H   0  0  0  0  0  0
    2.2052   -0.0831    2.2889 H   0  0  0  0  0  0
    0.6465   -0.4405   -0.2176 H   0  0  0  0  0  0
   -2.7036   -2.9947    1.9581 H   0  0  0  0  0  0
   -2.3776   -1.5283    2.9184 H   0  0  0  0  0  0
   -4.6729   -1.5945    1.7854 H   0  0  0  0  0  0
   -3.6865   -0.1576    1.4096 H   0  0  0  0  0  0
   -7.9487   -2.9793    0.4322 H   0  0  0  0  0  0
   -7.3805   -3.1932   -1.2410 H   0  0  0  0  0  0
   -6.6410   -4.1335    0.0770 H   0  0  0  0  0  0
   -5.5648   -0.2796    0.8838 H   0  0  0  0  0  0
   -7.3126   -0.5490    0.6814 H   0  0  0  0  0  0
   -6.4206   -1.4136    1.9562 H   0  0  0  0  0  0
   -2.8119   -1.6777   -1.9800 H   0  0  0  0  0  0
   -2.4859   -0.2113   -1.0197 H   0  0  0  0  0  0
   -0.5194   -1.6055   -0.8490 H   0  0  0  0  0  0
   -1.5032   -3.0436   -0.4705 H   0  0  0  0  0  0
    2.0358   -2.5355    1.5131 H   0  0  0  0  0  0
    1.0069   -2.8919    0.1050 H   0  0  0  0  0  0
    4.2123   -1.5039    1.2306 H   0  0  0  0  0  0
    5.8633   -1.4161   -2.7255 H   0  0  0  0  0  0
    3.6628   -2.0161   -3.6457 H   0  0  0  0  0  0
    1.7481   -2.3641   -2.1404 H   0  0  0  0  0  0
  1  2  1  0  0  0
  1 10  2  0  0  0
  1 43  1  0  0  0
  2  3  2  0  0  0
  2 44  1  0  0  0
  3  4  1  0  0  0
  3 45  1  0  0  0
  4  5  2  0  0  0
  4 46  1  0  0  0
  5  6  1  0  0  0
  5 10  1  0  0  0
  6  7  2  0  0  0
  6 47  1  0  0  0
  7  8  1  0  0  0
  7 48  1  0  0  0
  8  9  2  0  0  0
  8 11  1  0  0  0
  9 10  1  0  0  0
  9 49  1  0  0  0
 11 12  2  0  0  0
 11 13  2  0  0  0
 11 14  1  0  0  0
 14 15  1  0  0  0
 14 50  1  0  0  0
 15 16  1  0  0  0
 15 29  1  0  0  0
 15 51  1  0  0  0
 16 17  2  0  0  0
 16 18  1  0  0  0
 18 19  1  0  0  0
 18 28  1  0  0  0
 19 20  1  0  0  0
 19 52  1  0  0  0
 19 53  1  0  0  0
 20 21  1  0  0  0
 20 54  1  0  0  0
 20 55  1  0  0  0
 21 22  1  0  0  0
 21 27  1  0  0  0
 22 23  2  0  0  0
 22 24  1  0  0  0
 24 25  1  0  0  0
 24 26  1  0  0  0
 25 56  1  0  0  0
 25 57  1  0  0  0
 25 58  1  0  0  0
 26 59  1  0  0  0
 26 60  1  0  0  0
 26 61  1  0  0  0
 27 28  1  0  0  0
 27 62  1  0  0  0
 27 63  1  0  0  0
 28 64  1  0  0  0
 28 65  1  0  0  0
 29 30  1  0  0  0
 29 66  1  0  0  0
 29 67  1  0  0  0
 30 31  1  0  0  0
 30 35  2  0  0  0
 31 32  2  0  0  0
 31 68  1  0  0  0
 32 33  1  0  0  0
 32 36  1  0  0  0
 33 34  2  0  0  0
 33 69  1  0  0  0
 34 35  1  0  0  0
 34 70  1  0  0  0
 35 71  1  0  0  0
 36 37  1  0  0  0
 36 40  1  0  0  0
 37 38  1  0  0  0
 37 39  1  0  0  0
 40 41  1  0  0  0
 40 42  1  0  0  0
M  CHG  1  36   1
M  END
>  <Activity>
8.056

>  <set>
1

>  <Min_dist>
999.9

>  <Avg_dist>
999.9

$$$$
08
  Cerius2 12110215003D 1   1.00000                          
Structure written by Cerius2 SD Exporter
 65 68  0  0  0  0  0  0  0  0999 V2000
    0.1103    3.2232   -0.9248 C   0  0  0  0  0  0
    0.9489    3.9865   -1.6788 C   0  0  0  0  0  0
    2.2411    4.2727   -1.2494 C   0  0  0  0  0  0
    2.7071    3.7891   -0.0452 C   0  0  0  0  0  0
    1.8597    2.9952    0.7571 C   0  0  0  0  0  0
    0.5462    2.7108    0.3089 C   0  0  0  0  0  0
   -0.2977    1.9201    1.1081 C   0  0  0  0  0  0
    0.1569    1.4401    2.2977 C   0  0  0  0  0  0
    1.4491    1.7204    2.7376 C   0  0  0  0  0  0
    2.2937    2.4827    1.9896 C   0  0  0  0  0  0
   -1.9357    1.5529    0.5728 S   0  0  0  0  0  0
   -2.4765    0.6803    1.5553 O   0  0  0  0  0  0
   -2.4999    2.7954    0.1762 O   0  0  0  0  0  0
   -1.8140    0.6518   -0.8112 N   0  0  0  0  0  0
   -1.2207   -0.6868   -0.7639 C   0  0  0  0  0  0
    0.0651   -0.6944   -1.5500 C   0  0  0  0  0  0
    0.2624    0.1498   -2.3980 O   0  0  0  0  0  0
    0.9957   -1.6395   -1.3105 N   0  0  0  0  0  0
    2.2822   -1.6192   -2.0206 C   0  0  0  0  0  0
    3.4136   -1.6155   -0.9851 C   0  0  0  0  0  0
    3.1602   -2.6844   -0.0088 C   0  0  0  0  0  0
    1.8736   -2.7046    0.7013 C   0  0  0  0  0  0
    0.7445   -2.7052   -0.3302 C   0  0  0  0  0  0
   -2.1952   -1.6983   -1.3705 C   0  0  0  0  0  0
   -3.4280   -1.7875   -0.5082 C   0  0  0  0  0  0
   -4.5008   -0.9546   -0.7525 C   0  0  0  0  0  0
   -5.6413   -1.0387    0.0464 C   0  0  0  0  0  0
   -5.6894   -1.9658    1.0882 C   0  0  0  0  0  0
   -4.6103   -2.7928    1.3220 C   0  0  0  0  0  0
   -3.4839   -2.7080    0.5228 C   0  0  0  0  0  0
   -6.7950   -0.1483   -0.2097 C   0  3  0  0  0  0
   -7.8822   -0.2310    0.5545 N   0  0  0  0  0  0
   -8.6385    0.3527    0.3866 H   0  0  0  0  0  0
   -7.9180   -0.8749    1.2790 H   0  0  0  0  0  0
   -6.7459    0.7356   -1.2043 N   0  0  0  0  0  0
   -7.5023    1.3193   -1.3721 H   0  0  0  0  0  0
   -5.9539    0.7958   -1.7610 H   0  0  0  0  0  0
   -0.8908    3.0154   -1.2727 H   0  0  0  0  0  0
    0.6055    4.3758   -2.6258 H   0  0  0  0  0  0
    2.8864    4.8803   -1.8664 H   0  0  0  0  0  0
   -0.4936    0.8331    2.9100 H   0  0  0  0  0  0
    1.7855    1.3273    3.6856 H   0  0  0  0  0  0
    3.2928    2.6914    2.3426 H   0  0  0  0  0  0
   -2.1355    1.0104   -1.6532 H   0  0  0  0  0  0
   -1.0149   -0.9566    0.2719 H   0  0  0  0  0  0
    2.3662   -2.5045   -2.6509 H   0  0  0  0  0  0
    2.3464   -0.7217   -2.6358 H   0  0  0  0  0  0
    4.3664   -1.7937   -1.4836 H   0  0  0  0  0  0
    3.4393   -0.6526   -0.4749 H   0  0  0  0  0  0
    1.8094   -3.6021    1.3165 H   0  0  0  0  0  0
    1.7897   -1.8193    1.3316 H   0  0  0  0  0  0
   -0.2076   -2.5269    0.1696 H   0  0  0  0  0  0
    0.7172   -3.6670   -0.8422 H   0  0  0  0  0  0
   -2.4758   -1.3762   -2.3733 H   0  0  0  0  0  0
   -1.7174   -2.6765   -1.4235 H   0  0  0  0  0  0
   -4.4573   -0.2389   -1.5601 H   0  0  0  0  0  0
   -6.5694   -2.0355    1.7103 H   0  0  0  0  0  0
   -4.6462   -3.5105    2.1283 H   0  0  0  0  0  0
   -2.6417   -3.3576    0.7099 H   0  0  0  0  0  0
    3.5912    3.9911    0.2377 H   0  0  0  0  0  0
    3.2076   -3.5279   -0.4433 H   0  0  0  0  0  0
    4.2294   -2.6365    0.9985 C   0  0  0  0  0  0
    4.0880   -3.3198    1.6431 H   0  0  0  0  0  0
    5.0694   -2.7694    0.5752 H   0  0  0  0  0  0
    4.2218   -1.7893    1.4282 H   0  0  0  0  0  0
  1  2  1  0  0  0
  1  6  2  0  0  0
  1 38  1  0  0  0
  2  3  2  0  0  0
  2 39  1  0  0  0
  3  4  1  0  0  0
  3 40  1  0  0  0
  4  5  2  0  0  0
  4 60  1  0  0  0
  5  6  1  0  0  0
  5 10  1  0  0  0
  6  7  1  0  0  0
  7  8  2  0  0  0
  7 11  1  0  0  0
  8  9  1  0  0  0
  8 41  1  0  0  0
  9 10  2  0  0  0
  9 42  1  0  0  0
 10 43  1  0  0  0
 11 12  2  0  0  0
 11 13  2  0  0  0
 11 14  1  0  0  0
 14 15  1  0  0  0
 14 44  1  0  0  0
 15 16  1  0  0  0
 15 24  1  0  0  0
 15 45  1  0  0  0
 16 17  2  0  0  0
 16 18  1  0  0  0
 18 19  1  0  0  0
 18 23  1  0  0  0
 19 20  1  0  0  0
 19 46  1  0  0  0
 19 47  1  0  0  0
 20 21  1  0  0  0
 20 48  1  0  0  0
 20 49  1  0  0  0
 21 22  1  0  0  0
 21 61  1  0  0  0
 21 62  1  0  0  0
 22 23  1  0  0  0
 22 50  1  0  0  0
 22 51  1  0  0  0
 23 52  1  0  0  0
 23 53  1  0  0  0
 24 25  1  0  0  0
 24 54  1  0  0  0
 24 55  1  0  0  0
 25 26  1  0  0  0
 25 30  2  0  0  0
 26 27  2  0  0  0
 26 56  1  0  0  0
 27 28  1  0  0  0
 27 31  1  0  0  0
 28 29  2  0  0  0
 28 57  1  0  0  0
 29 30  1  0  0  0
 29 58  1  0  0  0
 30 59  1  0  0  0
 31 32  1  0  0  0
 31 35  1  0  0  0
 32 33  1  0  0  0
 32 34  1  0  0  0
 35 36  1  0  0  0
 35 37  1  0  0  0
 62 63  1  0  0  0
 62 64  1  0  0  0
 62 65  1  0  0  0
M  CHG  1  31   1
M  END
>  <Activity>
7.796

>  <set>
1

>  <Min_dist>
999.9

>  <Avg_dist>
999.9

$$$$
09
  Cerius2 12110215003D 1   1.00000                          
Structure written by Cerius2 SD Exporter
 68 71  0  0  0  0  0  0  0  0999 V2000
   -2.2546    2.4450   -2.1715 C   0  0  0  0  0  0
   -3.4460    3.0769   -2.3566 C   0  0  0  0  0  0
   -3.9092    4.0178   -1.4393 C   0  0  0  0  0  0
   -3.1839    4.3323   -0.3311 C   0  0  0  0  0  0
   -1.9493    3.7005   -0.1059 C   0  0  0  0  0  0
   -1.1722    3.9994    1.0264 C   0  0  0  0  0  0
    0.0189    3.3676    1.2114 C   0  0  0  0  0  0
    0.4823    2.4265    0.2936 C   0  0  0  0  0  0
   -0.2427    2.1121   -0.8143 C   0  0  0  0  0  0
   -1.4780    2.7435   -1.0393 C   0  0  0  0  0  0
    2.0305    1.6325    0.5717 S   0  0  0  0  0  0
    2.4679    1.1821   -0.7031 O   0  0  0  0  0  0
    2.7586    2.4971    1.4329 O   0  0  0  0  0  0
    1.7332    0.2636    1.4549 N   0  0  0  0  0  0
    0.8554   -0.7788    0.9172 C   0  0  0  0  0  0
   -0.3173   -0.9748    1.8431 C   0  0  0  0  0  0
   -0.2599   -0.5763    2.9872 O   0  0  0  0  0  0
   -1.4299   -1.5930    1.3999 N   0  0  0  0  0  0
   -2.5393   -1.8856    2.3183 C   0  0  0  0  0  0
   -3.8224   -1.2671    1.7496 C   0  0  0  0  0  0
   -3.9481   -1.6602    0.3391 C   0  0  0  0  0  0
   -2.8387   -1.3676   -0.5793 C   0  0  0  0  0  0
   -1.5579   -1.9811   -0.0118 C   0  0  0  0  0  0
    1.6349   -2.0898    0.7969 C   0  0  0  0  0  0
    2.7264   -1.9328   -0.2303 C   0  0  0  0  0  0
    3.9763   -1.4929    0.1550 C   0  0  0  0  0  0
    4.9857   -1.3486   -0.7970 C   0  0  0  0  0  0
    4.7240   -1.6504   -2.1340 C   0  0  0  0  0  0
    3.4703   -2.0894   -2.5063 C   0  0  0  0  0  0
    2.4749   -2.2355   -1.5564 C   0  0  0  0  0  0
    6.3281   -0.8768   -0.3909 C   0  3  0  0  0  0
    7.2894   -0.7400   -1.3018 N   0  0  0  0  0  0
    8.1694   -0.4308   -1.0356 H   0  0  0  0  0  0
    7.1098   -0.9496   -2.2317 H   0  0  0  0  0  0
    6.5746   -0.5891    0.8856 N   0  0  0  0  0  0
    7.4546   -0.2799    1.1518 H   0  0  0  0  0  0
   -1.9102    1.7149   -2.8889 H   0  0  0  0  0  0
   -4.0410    2.8457   -3.2278 H   0  0  0  0  0  0
   -4.8576    4.5053   -1.6103 H   0  0  0  0  0  0
   -3.5553    5.0640    0.3711 H   0  0  0  0  0  0
   -1.5182    4.7269    1.7456 H   0  0  0  0  0  0
    0.6142    3.5991    2.0823 H   0  0  0  0  0  0
    0.1294    1.3814   -1.5172 H   0  0  0  0  0  0
    2.1403    0.1520    2.3283 H   0  0  0  0  0  0
    0.4953   -0.4786   -0.0668 H   0  0  0  0  0  0
   -2.6631   -2.9646    2.4104 H   0  0  0  0  0  0
   -2.3277   -1.4542    3.2967 H   0  0  0  0  0  0
   -4.6836   -1.6320    2.3092 H   0  0  0  0  0  0
   -3.7687   -0.1809    1.8232 H   0  0  0  0  0  0
   -3.0502   -1.7990   -1.5577 H   0  0  0  0  0  0
   -2.7149   -0.2886   -0.6715 H   0  0  0  0  0  0
   -0.6975   -1.6154   -0.5723 H   0  0  0  0  0  0
   -1.6096   -3.0675   -0.0838 H   0  0  0  0  0  0
    2.0769   -2.3396    1.7614 H   0  0  0  0  0  0
    0.9588   -2.8876    0.4896 H   0  0  0  0  0  0
    4.1726   -1.2605    1.1913 H   0  0  0  0  0  0
    5.5012   -1.5404   -2.8758 H   0  0  0  0  0  0
    3.2664   -2.3230   -3.5409 H   0  0  0  0  0  0
    1.4950   -2.5794   -1.8529 H   0  0  0  0  0  0
    5.9247   -0.6815    1.5013 H   0  0  0  0  0  0
   -4.0649   -2.6012    0.2818 H   0  0  0  0  0  0
   -5.1007   -1.0532   -0.1739 C   0  0  0  0  0  0
   -5.3228   -1.0771   -1.4039 O   0  0  0  0  0  0
   -5.9693   -0.4435    0.6615 O   0  0  0  0  0  0
   -7.1799    0.1943    0.1252 C   0  0  0  0  0  0
   -7.6800    0.5742    0.8380 H   0  0  0  0  0  0
   -6.9332    0.8771   -0.4876 H   0  0  0  0  0  0
   -7.7091   -0.4560   -0.3216 H   0  0  0  0  0  0
  1  2  1  0  0  0
  1 10  2  0  0  0
  1 37  1  0  0  0
  2  3  2  0  0  0
  2 38  1  0  0  0
  3  4  1  0  0  0
  3 39  1  0  0  0
  4  5  2  0  0  0
  4 40  1  0  0  0
  5  6  1  0  0  0
  5 10  1  0  0  0
  6  7  2  0  0  0
  6 41  1  0  0  0
  7  8  1  0  0  0
  7 42  1  0  0  0
  8  9  2  0  0  0
  8 11  1  0  0  0
  9 10  1  0  0  0
  9 43  1  0  0  0
 11 12  2  0  0  0
 11 13  2  0  0  0
 11 14  1  0  0  0
 14 15  1  0  0  0
 14 44  1  0  0  0
 15 16  1  0  0  0
 15 24  1  0  0  0
 15 45  1  0  0  0
 16 17  2  0  0  0
 16 18  1  0  0  0
 18 19  1  0  0  0
 18 23  1  0  0  0
 19 20  1  0  0  0
 19 46  1  0  0  0
 19 47  1  0  0  0
 20 21  1  0  0  0
 20 48  1  0  0  0
 20 49  1  0  0  0
 21 22  1  0  0  0
 21 61  1  0  0  0
 21 62  1  0  0  0
 22 23  1  0  0  0
 22 50  1  0  0  0
 22 51  1  0  0  0
 23 52  1  0  0  0
 23 53  1  0  0  0
 24 25  1  0  0  0
 24 54  1  0  0  0
 24 55  1  0  0  0
 25 26  1  0  0  0
 25 30  2  0  0  0
 26 27  2  0  0  0
 26 56  1  0  0  0
 27 28  1  0  0  0
 27 31  1  0  0  0
 28 29  2  0  0  0
 28 57  1  0  0  0
 29 30  1  0  0  0
 29 58  1  0  0  0
 30 59  1  0  0  0
 31 32  1  0  0  0
 31 35  1  0  0  0
 32 33  1  0  0  0
 32 34  1  0  0  0
 35 36  1  0  0  0
 35 60  1  0  0  0
 63 62  2  0  0  0
 64 62  1  0  0  0
 64 65  1  0  0  0
 65 66  1  0  0  0
 65 67  1  0  0  0
 65 68  1  0  0  0
M  CHG  1  31   1
M  END
>  <Activity>
7.77

>  <set>
1

>  <Min_dist>
999.9

>  <Avg_dist>
999.9

$$$$
12
  Cerius2 12110215003D 1   1.00000                          
 
 65 68  0  0  0  0  0  0  0  0999 V2000
   -3.6620    1.7603   -2.1038 C   0  0  0  0  0  0
   -5.0003    1.9806   -2.2205 C   0  0  0  0  0  0
   -5.7421    2.4745   -1.1495 C   0  0  0  0  0  0
   -5.1503    2.7508    0.0448 C   0  0  0  0  0  0
   -3.7709    2.5359    0.2033 C   0  0  0  0  0  0
   -3.1246    2.8098    1.4209 C   0  0  0  0  0  0
   -1.7867    2.5896    1.5375 C   0  0  0  0  0  0
   -1.0446    2.0958    0.4661 C   0  0  0  0  0  0
   -1.6362    1.8195   -0.7279 C   0  0  0  0  0  0
   -3.0161    2.0337   -0.8863 C   0  0  0  0  0  0
    0.6857    1.8257    0.6603 S   0  0  0  0  0  0
    1.2305    1.8533   -0.6519 O   0  0  0  0  0  0
    1.0887    2.6622    1.7359 O   0  0  0  0  0  0
    0.8871    0.2725    1.1984 N   0  0  0  0  0  0
    0.4091   -0.8510    0.3887 C   0  0  0  0  0  0
   -0.7137   -1.5493    1.1117 C   0  0  0  0  0  0
   -0.7682   -1.5165    2.3228 O   0  0  0  0  0  0
   -1.6573   -2.2103    0.4123 N   0  0  0  0  0  0
   -2.7835   -2.7702    1.1254 C   0  0  0  0  0  0
   -2.4454   -4.2110    1.5814 C   0  0  0  0  0  0
   -2.4113   -5.1184    0.4242 C   0  0  0  0  0  0
   -1.3345   -4.7853   -0.6041 C   0  0  0  0  0  0
   -1.8595   -3.7403   -1.5575 C   0  0  0  0  0  0
   -1.5014   -2.3276   -1.0508 C   0  0  0  0  0  0
    1.5563   -1.8361    0.1558 C   0  0  0  0  0  0
    2.6792   -1.1377   -0.5672 C   0  0  0  0  0  0
    3.6735   -0.5063    0.1518 C   0  0  0  0  0  0
    4.7124    0.1393   -0.5189 C   0  0  0  0  0  0
    4.7389    0.1421   -1.9140 C   0  0  0  0  0  0
    3.7390   -0.4927   -2.6212 C   0  0  0  0  0  0
    2.7140   -1.1359   -1.9500 C   0  0  0  0  0  0
    5.7815    0.8187    0.2459 C   0  3  0  0  0  0
    6.7718    1.4341   -0.3971 N   0  0  0  0  0  0
    7.4726    1.8794    0.1042 H   0  0  0  0  0  0
    6.7924    1.4370   -1.3669 H   0  0  0  0  0  0
    5.7532    0.8147    1.5771 N   0  0  0  0  0  0
    6.4540    1.2601    2.0784 H   0  0  0  0  0  0
    5.0317    0.3664    2.0455 H   0  0  0  0  0  0
   -3.1005    1.3733   -2.9412 H   0  0  0  0  0  0
   -5.4944    1.7696   -3.1574 H   0  0  0  0  0  0
   -6.8025    2.6409   -1.2688 H   0  0  0  0  0  0
   -5.7379    3.1336    0.8661 H   0  0  0  0  0  0
   -3.6867    3.1935    2.2596 H   0  0  0  0  0  0
   -1.2926    2.8010    2.4743 H   0  0  0  0  0  0
   -1.0483    1.4379   -1.5496 H   0  0  0  0  0  0
    1.3214    0.1067    2.0497 H   0  0  0  0  0  0
    0.0484   -0.4799   -0.5706 H   0  0  0  0  0  0
   -3.0025   -2.1552    1.9983 H   0  0  0  0  0  0
   -3.6539   -2.7919    0.4696 H   0  0  0  0  0  0
   -1.4720   -4.2151    2.0719 H   0  0  0  0  0  0
   -3.2030   -4.5536    2.2862 H   0  0  0  0  0  0
   -2.2432   -6.1332    0.7849 H   0  0  0  0  0  0
   -3.3827   -5.0867   -0.0693 H   0  0  0  0  0  0
   -0.4510   -4.4012   -0.0941 H   0  0  0  0  0  0
   -1.0716   -5.6853   -1.1599 H   0  0  0  0  0  0
   -1.4173   -3.8942   -2.5418 H   0  0  0  0  0  0
   -2.9432   -3.8308   -1.6319 H   0  0  0  0  0  0
   -2.1494   -1.6010   -1.5408 H   0  0  0  0  0  0
   -0.4661   -2.1095   -1.3130 H   0  0  0  0  0  0
    1.9171   -2.2071    1.1151 H   0  0  0  0  0  0
    1.2008   -2.6720   -0.4467 H   0  0  0  0  0  0
    3.6472   -0.5117    1.2315 H   0  0  0  0  0  0
    5.5404    0.6405   -2.4390 H   0  0  0  0  0  0
    3.7582   -0.4910   -3.7011 H   0  0  0  0  0  0
    1.9335   -1.6314   -2.5082 H   0  0  0  0  0  0
  1  2  1  0  0  0
  1 10  2  0  0  0
  1 39  1  0  0  0
  2  3  2  0  0  0
  2 40  1  0  0  0
  3  4  1  0  0  0
  3 41  1  0  0  0
  4  5  2  0  0  0
  4 42  1  0  0  0
  5  6  1  0  0  0
  5 10  1  0  0  0
  6  7  2  0  0  0
  6 43  1  0  0  0
  7  8  1  0  0  0
  7 44  1  0  0  0
  8  9  2  0  0  0
  8 11  1  0  0  0
  9 10  1  0  0  0
  9 45  1  0  0  0
 11 12  2  0  0  0
 11 13  2  0  0  0
 11 14  1  0  0  0
 14 15  1  0  0  0
 14 46  1  0  0  0
 15 16  1  0  0  0
 15 25  1  0  0  0
 15 47  1  0  0  0
 16 17  2  0  0  0
 16 18  1  0  0  0
 18 19  1  0  0  0
 18 24  1  0  0  0
 19 20  1  0  0  0
 19 48  1  0  0  0
 19 49  1  0  0  0
 20 21  1  0  0  0
 20 50  1  0  0  0
 20 51  1  0  0  0
 21 22  1  0  0  0
 21 52  1  0  0  0
 21 53  1  0  0  0
 22 23  1  0  0  0
 22 54  1  0  0  0
 22 55  1  0  0  0
 23 24  1  0  0  0
 23 56  1  0  0  0
 23 57  1  0  0  0
 24 58  1  0  0  0
 24 59  1  0  0  0
 25 26  1  0  0  0
 25 60  1  0  0  0
 25 61  1  0  0  0
 26 27  1  0  0  0
 26 31  2  0  0  0
 27 28  2  0  0  0
 27 62  1  0  0  0
 28 29  1  0  0  0
 28 32  1  0  0  0
 29 30  2  0  0  0
 29 63  1  0  0  0
 30 31  1  0  0  0
 30 64  1  0  0  0
 31 65  1  0  0  0
 32 33  1  0  0  0
 32 36  1  0  0  0
 33 34  1  0  0  0
 33 35  1  0  0  0
 36 37  1  0  0  0
 36 38  1  0  0  0
M  CHG  1  32   1
M  END
>  <Activity>
7.678

>  <set>
1

>  <Min_dist>
999.9

>  <Avg_dist>
999.9

$$$$
13
  Cerius2 12110215003D 1   1.00000                          
 
 66 69  0  0  0  0  0  0  0  0999 V2000
   -2.5797    2.2752   -2.1507 C   0  0  0  0  0  0
   -3.8160    2.8136   -2.3376 C   0  0  0  0  0  0
   -4.3897    3.6435   -1.3766 C   0  0  0  0  0  0
   -3.7308    3.9398   -0.2229 C   0  0  0  0  0  0
   -2.4529    3.4023    0.0056 C   0  0  0  0  0  0
   -1.7418    3.6859    1.1842 C   0  0  0  0  0  0
   -0.5059    3.1476    1.3709 C   0  0  0  0  0  0
    0.0681    2.3176    0.4095 C   0  0  0  0  0  0
   -0.5905    2.0213   -0.7439 C   0  0  0  0  0  0
   -1.8691    2.5583   -0.9722 C   0  0  0  0  0  0
    1.6709    1.6422    0.6916 S   0  0  0  0  0  0
    2.1869    1.3229   -0.5933 O   0  0  0  0  0  0
    2.2917    2.5029    1.6366 O   0  0  0  0  0  0
    1.4682    0.1935    1.4678 N   0  0  0  0  0  0
    0.7038   -0.8799    0.8275 C   0  0  0  0  0  0
   -0.4759   -1.2415    1.6927 C   0  0  0  0  0  0
   -0.4905   -0.9219    2.8626 O   0  0  0  0  0  0
   -1.5146   -1.9203    1.1665 N   0  0  0  0  0  0
   -2.6224   -2.3719    2.0201 C   0  0  0  0  0  0
   -3.9365   -1.8274    1.4465 C   0  0  0  0  0  0
   -3.9818   -2.1287    0.0088 N   0  0  0  0  0  0
   -5.0210   -2.8066   -0.5175 C   0  0  0  0  0  0
   -5.9297   -3.1739    0.1968 O   0  0  0  0  0  0
   -5.0537   -3.1083   -1.9937 C   0  0  0  0  0  0
   -2.8740   -1.6771   -0.8448 C   0  0  0  0  0  0
   -1.5626   -2.2167   -0.2721 C   0  0  0  0  0  0
    1.5999   -2.1069    0.6480 C   0  0  0  0  0  0
    2.7053   -1.7839   -0.3240 C   0  0  0  0  0  0
    3.8984   -1.2663    0.1375 C   0  0  0  0  0  0
    4.9208   -0.9682   -0.7635 C   0  0  0  0  0  0
    4.7297   -1.1957   -2.1269 C   0  0  0  0  0  0
    3.5323   -1.7135   -2.5755 C   0  0  0  0  0  0
    2.5240   -2.0121   -1.6762 C   0  0  0  0  0  0
    6.2025   -0.4126   -0.2755 C   0  3  0  0  0  0
    7.1765   -0.1290   -1.1379 N   0  0  0  0  0  0
    8.0167    0.2352   -0.8180 H   0  0  0  0  0  0
    7.0459   -0.2867   -2.0861 H   0  0  0  0  0  0
    6.3817   -0.1961    1.0259 N   0  0  0  0  0  0
    7.2219    0.1681    1.3458 H   0  0  0  0  0  0
    5.6721   -0.4027    1.6542 H   0  0  0  0  0  0
   -2.1493    1.6303   -2.9025 H   0  0  0  0  0  0
   -4.3601    2.5944   -3.2444 H   0  0  0  0  0  0
   -5.3717    4.0583   -1.5499 H   0  0  0  0  0  0
   -4.1878    4.5849    0.5129 H   0  0  0  0  0  0
   -2.1737    4.3279    1.9376 H   0  0  0  0  0  0
    0.0384    3.3671    2.2775 H   0  0  0  0  0  0
   -0.1329    1.3772   -1.4802 H   0  0  0  0  0  0
    1.8555    0.0556    2.3463 H   0  0  0  0  0  0
    0.3500   -0.5427   -0.1468 H   0  0  0  0  0  0
   -2.6529   -3.4614    2.0340 H   0  0  0  0  0  0
   -2.4812   -1.9945    3.0329 H   0  0  0  0  0  0
   -4.7794   -2.3041    1.9469 H   0  0  0  0  0  0
   -3.9816   -0.7486    1.5958 H   0  0  0  0  0  0
   -5.9637   -3.6592   -2.2318 H   0  0  0  0  0  0
   -5.0366   -2.1746   -2.5558 H   0  0  0  0  0  0
   -4.1846   -3.7094   -2.2611 H   0  0  0  0  0  0
   -3.0152   -2.0544   -1.8576 H   0  0  0  0  0  0
   -2.8435   -0.5876   -0.8586 H   0  0  0  0  0  0
   -0.7207   -1.7392   -0.7734 H   0  0  0  0  0  0
   -1.5155   -3.2956   -0.4197 H   0  0  0  0  0  0
    2.0313   -2.3856    1.6094 H   0  0  0  0  0  0
    1.0072   -2.9362    0.2616 H   0  0  0  0  0  0
    4.0401   -1.0921    1.1939 H   0  0  0  0  0  0
    5.5173   -0.9666   -2.8294 H   0  0  0  0  0  0
    3.3830   -1.8898   -3.6305 H   0  0  0  0  0  0
    1.5884   -2.4172   -2.0324 H   0  0  0  0  0  0
  1  2  1  0  0  0
  1 10  2  0  0  0
  1 41  1  0  0  0
  2  3  2  0  0  0
  2 42  1  0  0  0
  3  4  1  0  0  0
  3 43  1  0  0  0
  4  5  2  0  0  0
  4 44  1  0  0  0
  5  6  1  0  0  0
  5 10  1  0  0  0
  6  7  2  0  0  0
  6 45  1  0  0  0
  7  8  1  0  0  0
  7 46  1  0  0  0
  8  9  2  0  0  0
  8 11  1  0  0  0
  9 10  1  0  0  0
  9 47  1  0  0  0
 11 12  2  0  0  0
 11 13  2  0  0  0
 11 14  1  0  0  0
 14 15  1  0  0  0
 14 48  1  0  0  0
 15 16  1  0  0  0
 15 27  1  0  0  0
 15 49  1  0  0  0
 16 17  2  0  0  0
 16 18  1  0  0  0
 18 19  1  0  0  0
 18 26  1  0  0  0
 19 20  1  0  0  0
 19 50  1  0  0  0
 19 51  1  0  0  0
 20 21  1  0  0  0
 20 52  1  0  0  0
 20 53  1  0  0  0
 21 22  1  0  0  0
 21 25  1  0  0  0
 22 23  2  0  0  0
 22 24  1  0  0  0
 24 54  1  0  0  0
 24 55  1  0  0  0
 24 56  1  0  0  0
 25 26  1  0  0  0
 25 57  1  0  0  0
 25 58  1  0  0  0
 26 59  1  0  0  0
 26 60  1  0  0  0
 27 28  1  0  0  0
 27 61  1  0  0  0
 27 62  1  0  0  0
 28 29  1  0  0  0
 28 33  2  0  0  0
 29 30  2  0  0  0
 29 63  1  0  0  0
 30 31  1  0  0  0
 30 34  1  0  0  0
 31 32  2  0  0  0
 31 64  1  0  0  0
 32 33  1  0  0  0
 32 65  1  0  0  0
 33 66  1  0  0  0
 34 35  1  0  0  0
 34 38  1  0  0  0
 35 36  1  0  0  0
 35 37  1  0  0  0
 38 39  1  0  0  0
 38 40  1  0  0  0
M  CHG  1  34   1
M  END
>  <Activity>
7.638

>  <set>
1

>  <Min_dist>
999.9

>  <Avg_dist>
999.9

$$$$
15
  Cerius2 12110215003D 1   1.00000                          
Structure written by Cerius2 SD Exporter
 62 64  0  0  0  0  0  0  0  0999 V2000
    1.8357   -3.4981   -0.3951 C   0  0  0  0  0  0
    1.1528   -3.8582    0.7515 C   0  0  0  0  0  0
   -0.0792   -3.2953    1.0277 C   0  0  0  0  0  0
   -0.6279   -2.3719    0.1576 C   0  0  0  0  0  0
    0.0555   -2.0111   -0.9885 C   0  0  0  0  0  0
    1.2894   -2.5707   -1.2626 C   0  0  0  0  0  0
   -2.1987   -1.6552    0.5092 S   0  0  0  0  0  0
   -2.7080   -1.2094   -0.7402 O   0  0  0  0  0  0
   -2.8503   -2.5642    1.3859 O   0  0  0  0  0  0
   -1.9297   -0.2854    1.4000 N   0  0  0  0  0  0
   -1.1239    0.8040    0.8432 C   0  0  0  0  0  0
    0.0751    1.0430    1.7243 C   0  0  0  0  0  0
    0.0826    0.6280    2.8638 O   0  0  0  0  0  0
    1.1391    1.7178    1.2458 N   0  0  0  0  0  0
    2.2706    2.0496    2.1231 C   0  0  0  0  0  0
    3.5563    1.4987    1.4941 C   0  0  0  0  0  0
    3.6061    1.9155    0.0857 C   0  0  0  0  0  0
    2.4747    1.5837   -0.7916 C   0  0  0  0  0  0
    1.1914    2.1297   -0.1640 C   0  0  0  0  0  0
   -1.9678    2.0784    0.7736 C   0  0  0  0  0  0
   -3.0918    1.8834   -0.2110 C   0  0  0  0  0  0
   -4.3032    1.3803    0.2177 C   0  0  0  0  0  0
   -5.3428    1.2008   -0.6949 C   0  0  0  0  0  0
   -5.1503    1.5318   -2.0368 C   0  0  0  0  0  0
   -3.9347    2.0339   -2.4528 C   0  0  0  0  0  0
   -2.9091    2.2145   -1.5416 C   0  0  0  0  0  0
   -6.6441    0.6613   -0.2421 C   0  3  0  0  0  0
   -7.6345    0.4912   -1.1155 N   0  0  0  0  0  0
   -8.4876    0.1375   -0.8186 H   0  0  0  0  0  0
   -6.8246    0.3461    1.0389 N   0  0  0  0  0  0
   -7.6776   -0.0076    1.3358 H   0  0  0  0  0  0
   -6.1030    0.4700    1.6752 H   0  0  0  0  0  0
    1.5815   -4.5797    1.4312 H   0  0  0  0  0  0
   -0.6131   -3.5772    1.9232 H   0  0  0  0  0  0
   -0.3734   -1.2899   -1.6685 H   0  0  0  0  0  0
    1.8233   -2.2889   -2.1581 H   0  0  0  0  0  0
   -2.3057   -0.2044    2.2905 H   0  0  0  0  0  0
   -0.7905    0.5338   -0.1588 H   0  0  0  0  0  0
    2.3484    3.1320    2.2262 H   0  0  0  0  0  0
    2.1192    1.5963    3.1027 H   0  0  0  0  0  0
    4.4221    1.8960    2.0240 H   0  0  0  0  0  0
    3.5555    0.4104    1.5538 H   0  0  0  0  0  0
    2.6261    2.0370   -1.7712 H   0  0  0  0  0  0
    2.3969    0.5014   -0.8947 H   0  0  0  0  0  0
    0.3266    1.7317   -0.6948 H   0  0  0  0  0  0
    1.1903    3.2182   -0.2219 H   0  0  0  0  0  0
   -2.3811    2.2947    1.7587 H   0  0  0  0  0  0
   -1.3426    2.9110    0.4511 H   0  0  0  0  0  0
   -4.4459    1.1257    1.2575 H   0  0  0  0  0  0
   -5.9513    1.3948   -2.7482 H   0  0  0  0  0  0
   -3.7843    2.2901   -3.4911 H   0  0  0  0  0  0
   -1.9591    2.6079   -1.8722 H   0  0  0  0  0  0
    3.6772    2.8616    0.0378 H   0  0  0  0  0  0
    4.8210    1.3422   -0.5105 C   0  0  0  0  0  0
    4.8765    1.5978   -1.4238 H   0  0  0  0  0  0
    5.5842    1.6633   -0.0448 H   0  0  0  0  0  0
    4.7875    0.3948   -0.4483 H   0  0  0  0  0  0
   -7.5125    0.7044   -1.9813 H   0  0  0  0  0  0
    3.1427   -4.1012   -0.6920 C   0  0  0  0  0  0
    3.4754   -3.7495   -1.5094 H   0  0  0  0  0  0
    3.7507   -3.9007    0.0098 H   0  0  0  0  0  0
    3.0467   -5.0432   -0.7683 H   0  0  0  0  0  0
  1  2  1  0  0  0
  1  6  2  0  0  0
  1 59  1  0  0  0
  2  3  2  0  0  0
  2 33  1  0  0  0
  3  4  1  0  0  0
  3 34  1  0  0  0
  4  5  2  0  0  0
  4  7  1  0  0  0
  5  6  1  0  0  0
  5 35  1  0  0  0
  6 36  1  0  0  0
  7  8  2  0  0  0
  7  9  2  0  0  0
  7 10  1  0  0  0
 10 11  1  0  0  0
 10 37  1  0  0  0
 11 12  1  0  0  0
 11 20  1  0  0  0
 11 38  1  0  0  0
 12 13  2  0  0  0
 12 14  1  0  0  0
 14 15  1  0  0  0
 14 19  1  0  0  0
 15 16  1  0  0  0
 15 39  1  0  0  0
 15 40  1  0  0  0
 16 17  1  0  0  0
 16 41  1  0  0  0
 16 42  1  0  0  0
 17 18  1  0  0  0
 17 53  1  0  0  0
 17 54  1  0  0  0
 18 19  1  0  0  0
 18 43  1  0  0  0
 18 44  1  0  0  0
 19 45  1  0  0  0
 19 46  1  0  0  0
 20 21  1  0  0  0
 20 47  1  0  0  0
 20 48  1  0  0  0
 21 22  1  0  0  0
 21 26  2  0  0  0
 22 23  2  0  0  0
 22 49  1  0  0  0
 23 24  1  0  0  0
 23 27  1  0  0  0
 24 25  2  0  0  0
 24 50  1  0  0  0
 25 26  1  0  0  0
 25 51  1  0  0  0
 26 52  1  0  0  0
 27 28  1  0  0  0
 27 30  1  0  0  0
 28 29  1  0  0  0
 28 58  1  0  0  0
 30 31  1  0  0  0
 30 32  1  0  0  0
 54 55  1  0  0  0
 54 56  1  0  0  0
 54 57  1  0  0  0
 59 60  1  0  0  0
 59 61  1  0  0  0
 59 62  1  0  0  0
M  CHG  1  27   1
M  END
>  <Activity>
7.585

>  <set>
1

>  <Min_dist>
999.9

>  <Avg_dist>
999.9

$$$$
17
  Cerius2 12110215003D 1   1.00000                          
Structure written by Cerius2 SD Exporter
 73 76  0  0  0  0  0  0  0  0999 V2000
   -3.6558    1.1505   -1.6950 C   0  0  0  0  0  0
   -5.1420    0.7772   -1.7434 C   0  0  0  0  0  0
   -5.7407    1.1276   -0.3752 C   0  0  0  0  0  0
   -5.2451    0.2156    0.5939 O   0  0  0  0  0  0
   -3.8956    0.2866    0.6692 C   0  0  0  0  0  0
   -3.3075   -0.0899    1.8791 C   0  0  0  0  0  0
   -1.9392   -0.0570    2.0338 C   0  0  0  0  0  0
   -1.1349    0.3503    0.9855 C   0  0  0  0  0  0
   -1.7096    0.7275   -0.2118 C   0  0  0  0  0  0
   -3.0860    0.7016   -0.3701 C   0  0  0  0  0  0
    0.6159    0.3880    1.1775 S   0  0  0  0  0  0
    1.0912    1.3070    0.2030 O   0  0  0  0  0  0
    0.8498    0.4785    2.5761 O   0  0  0  0  0  0
    1.1950   -1.0942    0.7201 N   0  0  0  0  0  0
    0.9651   -1.5814   -0.6421 C   0  0  0  0  0  0
    2.3094   -1.8254   -1.3290 C   0  0  0  0  0  0
    3.0886   -0.5359   -1.3811 C   0  0  0  0  0  0
    3.9393   -0.2030   -0.3465 C   0  0  0  0  0  0
    4.6602    0.9909   -0.3964 C   0  0  0  0  0  0
    4.5161    1.8411   -1.4937 C   0  0  0  0  0  0
    3.6625    1.4969   -2.5217 C   0  0  0  0  0  0
    2.9541    0.3089   -2.4687 C   0  0  0  0  0  0
    5.5737    1.3541    0.7099 C   0  3  0  0  0  0
    6.2605    2.4943    0.6593 N   0  0  0  0  0  0
    6.8593    2.7323    1.3845 H   0  0  0  0  0  0
    6.1620    3.0867   -0.1027 H   0  0  0  0  0  0
    5.7087    0.5409    1.7558 N   0  0  0  0  0  0
    6.3076    0.7790    2.4811 H   0  0  0  0  0  0
    5.2084   -0.2898    1.7927 H   0  0  0  0  0  0
   -5.3380    2.5531    0.0097 C   0  0  0  0  0  0
   -7.2654    1.0239   -0.4429 C   0  0  0  0  0  0
   -3.1281    0.6523   -2.5075 H   0  0  0  0  0  0
   -3.5462    2.2309   -1.7931 H   0  0  0  0  0  0
   -5.6429    1.3482   -2.5255 H   0  0  0  0  0  0
   -5.2515   -0.2906   -1.9337 H   0  0  0  0  0  0
   -3.9310   -0.4091    2.7009 H   0  0  0  0  0  0
   -1.4947   -0.3491    2.9739 H   0  0  0  0  0  0
   -1.0821    1.0453   -1.0311 H   0  0  0  0  0  0
    1.6864   -1.6398    1.3542 H   0  0  0  0  0  0
    0.4001   -0.8375   -1.2039 H   0  0  0  0  0  0
    2.8744   -2.5693   -0.7672 H   0  0  0  0  0  0
    2.1383   -2.1879   -2.3425 H   0  0  0  0  0  0
    4.0463   -0.8651    0.5005 H   0  0  0  0  0  0
    5.0712    2.7669   -1.5381 H   0  0  0  0  0  0
    3.5497    2.1544   -3.3715 H   0  0  0  0  0  0
    2.2871    0.0439   -3.2759 H   0  0  0  0  0  0
   -5.7639    2.8006    0.9815 H   0  0  0  0  0  0
   -4.2517    2.6230    0.0613 H   0  0  0  0  0  0
   -5.7117    3.2513   -0.7397 H   0  0  0  0  0  0
   -7.6891    1.2730    0.5295 H   0  0  0  0  0  0
   -7.6437    1.7184   -1.1933 H   0  0  0  0  0  0
   -7.5494    0.0065   -0.7130 H   0  0  0  0  0  0
    0.2152   -2.9250   -0.6696 C   0  0  0  0  0  0
   -0.6413   -3.2296   -1.4724 O   0  0  0  0  0  0
    0.3600   -3.6385    0.4646 N   0  0  0  0  0  0
   -0.5782   -4.7214    0.7920 C   0  0  0  0  0  0
    0.2216   -6.0094    1.0234 C   0  0  0  0  0  0
    1.3207   -5.7188    1.9547 C   0  0  0  0  0  0
    2.2589   -4.6360    1.6273 C   0  0  0  0  0  0
    1.4624   -3.3516    1.3932 C   0  0  0  0  0  0
   -1.1303   -4.4660    1.6966 H   0  0  0  0  0  0
   -1.2731   -4.8659   -0.0351 H   0  0  0  0  0  0
   -0.4289   -6.7719    1.4519 H   0  0  0  0  0  0
    0.6285   -6.3624    0.0759 H   0  0  0  0  0  0
    2.9539   -4.4915    2.4545 H   0  0  0  0  0  0
    2.8110   -4.8913    0.7229 H   0  0  0  0  0  0
    2.1141   -2.5901    0.9649 H   0  0  0  0  0  0
    1.0538   -2.9969    2.3395 H   0  0  0  0  0  0
    0.9632   -5.4784    2.8014 H   0  0  0  0  0  0
    2.1005   -6.9523    2.1293 C   0  0  0  0  0  0
    2.8193   -6.7903    2.7289 H   0  0  0  0  0  0
    1.5406   -7.6335    2.4829 H   0  0  0  0  0  0
    2.4456   -7.2304    1.2890 H   0  0  0  0  0  0
  1  2  1  0  0  0
  1 10  1  0  0  0
  1 32  1  0  0  0
  1 33  1  0  0  0
  2  3  1  0  0  0
  2 34  1  0  0  0
  2 35  1  0  0  0
  3  4  1  0  0  0
  3 30  1  0  0  0
  3 31  1  0  0  0
  4  5  1  0  0  0
  5  6  1  0  0  0
  5 10  2  0  0  0
  6  7  2  0  0  0
  6 36  1  0  0  0
  7  8  1  0  0  0
  7 37  1  0  0  0
  8  9  2  0  0  0
  8 11  1  0  0  0
  9 10  1  0  0  0
  9 38  1  0  0  0
 11 12  2  0  0  0
 11 13  2  0  0  0
 11 14  1  0  0  0
 14 15  1  0  0  0
 14 39  1  0  0  0
 16 15  1  0  0  0
 16 17  1  0  0  0
 16 41  1  0  0  0
 16 42  1  0  0  0
 17 18  1  0  0  0
 17 22  2  0  0  0
 18 19  2  0  0  0
 18 43  1  0  0  0
 19 20  1  0  0  0
 19 23  1  0  0  0
 20 21  2  0  0  0
 20 44  1  0  0  0
 21 22  1  0  0  0
 21 45  1  0  0  0
 22 46  1  0  0  0
 23 24  1  0  0  0
 23 27  1  0  0  0
 24 25  1  0  0  0
 24 26  1  0  0  0
 27 28  1  0  0  0
 27 29  1  0  0  0
 30 47  1  0  0  0
 30 48  1  0  0  0
 30 49  1  0  0  0
 31 50  1  0  0  0
 31 51  1  0  0  0
 31 52  1  0  0  0
 40 15  1  0  0  0
 53 15  1  0  0  0
 53 54  2  0  0  0
 53 55  1  0  0  0
 55 56  1  0  0  0
 55 60  1  0  0  0
 56 57  1  0  0  0
 56 61  1  0  0  0
 56 62  1  0  0  0
 57 58  1  0  0  0
 57 63  1  0  0  0
 57 64  1  0  0  0
 58 59  1  0  0  0
 58 69  1  0  0  0
 58 70  1  0  0  0
 59 60  1  0  0  0
 59 65  1  0  0  0
 59 66  1  0  0  0
 60 67  1  0  0  0
 60 68  1  0  0  0
 70 71  1  0  0  0
 70 72  1  0  0  0
 70 73  1  0  0  0
M  CHG  1  23   1
M  END
>  <Activity>
7.469

>  <set>
1

>  <Min_dist>
999.9

>  <Avg_dist>
999.9

$$$$
18
  Cerius2 12110215003D 1   1.00000                          
 
 66 70  0  0  0  0  0  0  0  0999 V2000
   -2.8559    2.2472   -2.1244 C   0  0  0  0  0  0
   -4.0970    2.7879   -2.2673 C   0  0  0  0  0  0
   -4.5822    3.7218   -1.3541 C   0  0  0  0  0  0
   -3.8293    4.1203   -0.2923 C   0  0  0  0  0  0
   -2.5434    3.5840   -0.1116 C   0  0  0  0  0  0
   -1.7365    3.9714    0.9721 C   0  0  0  0  0  0
   -0.4958    3.4308    1.1148 C   0  0  0  0  0  0
   -0.0104    2.4968    0.2012 C   0  0  0  0  0  0
   -0.7630    2.0983   -0.8603 C   0  0  0  0  0  0
   -2.0497    2.6342   -1.0408 C   0  0  0  0  0  0
    1.6021    1.8224    0.4236 S   0  0  0  0  0  0
    2.0095    1.3647   -0.8586 O   0  0  0  0  0  0
    2.3067    2.7620    1.2236 O   0  0  0  0  0  0
    1.4461    0.4638    1.3575 N   0  0  0  0  0  0
    0.6206   -0.6537    0.8928 C   0  0  0  0  0  0
   -0.4896   -0.9031    1.8809 C   0  0  0  0  0  0
   -0.5822   -0.2150    2.8753 O   0  0  0  0  0  0
   -1.3796   -1.8906    1.6594 N   0  0  0  0  0  0
   -1.2952   -2.7403    0.4667 C   0  0  0  0  0  0
   -2.6683   -2.9115   -0.1330 C   0  0  0  0  0  0
   -2.7567   -3.4774   -1.3977 C   0  0  0  0  0  0
   -3.9855   -3.6692   -1.9947 C   0  0  0  0  0  0
   -5.1376   -3.2963   -1.3272 C   0  0  0  0  0  0
   -5.0507   -2.7304   -0.0726 C   0  0  0  0  0  0
   -3.8138   -2.5300    0.5286 C   0  0  0  0  0  0
   -3.7949   -1.8809    1.8874 C   0  0  0  0  0  0
   -2.4719   -2.1639    2.6080 C   0  0  0  0  0  0
    1.4854   -1.9099    0.7697 C   0  0  0  0  0  0
    2.5957   -1.6606   -0.2183 C   0  0  0  0  0  0
    3.8026   -1.1518    0.2161 C   0  0  0  0  0  0
    4.8294   -0.9220   -0.6997 C   0  0  0  0  0  0
    4.6287   -1.2087   -2.0505 C   0  0  0  0  0  0
    3.4175   -1.7169   -2.4722 C   0  0  0  0  0  0
    2.4047   -1.9476   -1.5580 C   0  0  0  0  0  0
    6.1259   -0.3762   -0.2408 C   0  3  0  0  0  0
    7.1041   -0.1580   -1.1173 N   0  0  0  0  0  0
    7.9540    0.1999   -0.8164 H   0  0  0  0  0  0
    6.9669   -0.3568   -2.0567 H   0  0  0  0  0  0
    6.3143   -0.1033    1.0487 N   0  0  0  0  0  0
    7.1642    0.2545    1.3496 H   0  0  0  0  0  0
    5.6017   -0.2623    1.6873 H   0  0  0  0  0  0
   -2.4947    1.5213   -2.8378 H   0  0  0  0  0  0
   -4.7148    2.4888   -3.1011 H   0  0  0  0  0  0
   -5.5702    4.1359   -1.4909 H   0  0  0  0  0  0
   -4.2183    4.8453    0.4073 H   0  0  0  0  0  0
   -2.0991    4.6946    1.6875 H   0  0  0  0  0  0
    0.1222    3.7302    1.9484 H   0  0  0  0  0  0
   -0.3734    1.3742   -1.5606 H   0  0  0  0  0  0
    1.9012    0.4079    2.2123 H   0  0  0  0  0  0
    0.1934   -0.4100   -0.0799 H   0  0  0  0  0  0
   -0.6354   -2.2739   -0.2649 H   0  0  0  0  0  0
   -0.8962   -3.7160    0.7439 H   0  0  0  0  0  0
   -1.8566   -3.7693   -1.9183 H   0  0  0  0  0  0
   -4.0474   -4.1086   -2.9794 H   0  0  0  0  0  0
   -6.1029   -3.4474   -1.7874 H   0  0  0  0  0  0
   -5.9518   -2.4402    0.4473 H   0  0  0  0  0  0
   -3.9199   -0.8042    1.7721 H   0  0  0  0  0  0
   -4.6177   -2.2746    2.4842 H   0  0  0  0  0  0
   -2.4402   -3.2063    2.9248 H   0  0  0  0  0  0
   -2.3778   -1.5111    3.4758 H   0  0  0  0  0  0
    1.9126   -2.1537    1.7424 H   0  0  0  0  0  0
    0.8712   -2.7414    0.4239 H   0  0  0  0  0  0
    3.9517   -0.9317    1.2628 H   0  0  0  0  0  0
    5.4197   -1.0326   -2.7645 H   0  0  0  0  0  0
    3.2608   -1.9389   -3.5174 H   0  0  0  0  0  0
    1.4583   -2.3456   -1.8930 H   0  0  0  0  0  0
  1  2  1  0  0  0
  1 10  2  0  0  0
  1 42  1  0  0  0
  2  3  2  0  0  0
  2 43  1  0  0  0
  3  4  1  0  0  0
  3 44  1  0  0  0
  4  5  2  0  0  0
  4 45  1  0  0  0
  5  6  1  0  0  0
  5 10  1  0  0  0
  6  7  2  0  0  0
  6 46  1  0  0  0
  7  8  1  0  0  0
  7 47  1  0  0  0
  8  9  2  0  0  0
  8 11  1  0  0  0
  9 10  1  0  0  0
  9 48  1  0  0  0
 11 12  2  0  0  0
 11 13  2  0  0  0
 11 14  1  0  0  0
 14 15  1  0  0  0
 14 49  1  0  0  0
 15 16  1  0  0  0
 15 28  1  0  0  0
 15 50  1  0  0  0
 16 17  2  0  0  0
 16 18  1  0  0  0
 18 19  1  0  0  0
 18 27  1  0  0  0
 19 20  1  0  0  0
 19 51  1  0  0  0
 19 52  1  0  0  0
 20 21  1  0  0  0
 20 25  2  0  0  0
 21 22  2  0  0  0
 21 53  1  0  0  0
 22 23  1  0  0  0
 22 54  1  0  0  0
 23 24  2  0  0  0
 23 55  1  0  0  0
 24 25  1  0  0  0
 24 56  1  0  0  0
 25 26  1  0  0  0
 26 27  1  0  0  0
 26 57  1  0  0  0
 26 58  1  0  0  0
 27 59  1  0  0  0
 27 60  1  0  0  0
 28 29  1  0  0  0
 28 61  1  0  0  0
 28 62  1  0  0  0
 29 30  1  0  0  0
 29 34  2  0  0  0
 30 31  2  0  0  0
 30 63  1  0  0  0
 31 32  1  0  0  0
 31 35  1  0  0  0
 32 33  2  0  0  0
 32 64  1  0  0  0
 33 34  1  0  0  0
 33 65  1  0  0  0
 34 66  1  0  0  0
 35 36  1  0  0  0
 35 39  1  0  0  0
 36 37  1  0  0  0
 36 38  1  0  0  0
 39 40  1  0  0  0
 39 41  1  0  0  0
M  CHG  1  35   1
M  END
>  <Activity>
7.432

>  <set>
1

>  <Min_dist>
999.9

>  <Avg_dist>
999.9

$$$$
19
  Cerius2 12110215003D 1   1.00000                          
 
 63 66  0  0  0  0  0  0  0  0999 V2000
   -2.9177    1.9585   -2.1471 C   0  0  0  0  0  0
   -4.1936    2.3952   -2.3329 C   0  0  0  0  0  0
   -4.8331    3.1729   -1.3698 C   0  0  0  0  0  0
   -4.2007    3.5183   -0.2148 C   0  0  0  0  0  0
   -2.8835    3.0857    0.0127 C   0  0  0  0  0  0
   -2.1980    3.4225    1.1925 C   0  0  0  0  0  0
   -0.9225    2.9858    1.3782 C   0  0  0  0  0  0
   -0.2827    2.2081    0.4146 C   0  0  0  0  0  0
   -0.9148    1.8628   -0.7400 C   0  0  0  0  0  0
   -2.2328    2.2948   -0.9673 C   0  0  0  0  0  0
    1.3696    1.6643    0.6955 S   0  0  0  0  0  0
    1.9101    1.3919   -0.5901 O   0  0  0  0  0  0
    1.9182    2.5698    1.6433 O   0  0  0  0  0  0
    1.2850    0.2016    1.4672 N   0  0  0  0  0  0
    0.6105   -0.9284    0.8234 C   0  0  0  0  0  0
   -0.5361   -1.3873    1.6870 C   0  0  0  0  0  0
   -0.5770   -1.0734    2.8577 O   0  0  0  0  0  0
   -1.5161   -2.1466    1.1582 N   0  0  0  0  0  0
   -2.5838   -2.6893    2.0099 C   0  0  0  0  0  0
   -3.9376   -2.2516    1.4373 C   0  0  0  0  0  0
   -3.9580   -2.5512   -0.0014 N   0  0  0  0  0  0
   -4.9385   -3.3098   -0.5302 C   0  0  0  0  0  0
   -4.9447   -3.5503   -1.7189 O   0  0  0  0  0  0
   -2.8903   -2.0085   -0.8530 C   0  0  0  0  0  0
   -1.5396   -2.4415   -0.2813 C   0  0  0  0  0  0
    1.6033   -2.0780    0.6406 C   0  0  0  0  0  0
    2.6791   -1.6633   -0.3298 C   0  0  0  0  0  0
    3.8261   -1.0519    0.1338 C   0  0  0  0  0  0
    4.8212   -0.6690   -0.7658 C   0  0  0  0  0  0
    4.6495   -0.9072   -2.1299 C   0  0  0  0  0  0
    3.4983   -1.5192   -2.5807 C   0  0  0  0  0  0
    2.5173   -1.9014   -1.6828 C   0  0  0  0  0  0
    6.0533   -0.0126   -0.2755 C   0  3  0  0  0  0
    7.0013    0.3517   -1.1366 N   0  0  0  0  0  0
    7.8090    0.7821   -0.8152 H   0  0  0  0  0  0
    6.8842    0.1868   -2.0852 H   0  0  0  0  0  0
    6.2140    0.2138    1.0267 N   0  0  0  0  0  0
    7.0218    0.6441    1.3481 H   0  0  0  0  0  0
    5.5234   -0.0516    1.6540 H   0  0  0  0  0  0
   -2.4361    1.3529   -2.9005 H   0  0  0  0  0  0
   -4.7179    2.1353   -3.2406 H   0  0  0  0  0  0
   -5.8455    3.5070   -1.5423 H   0  0  0  0  0  0
   -4.7088    4.1219    0.5226 H   0  0  0  0  0  0
   -2.6808    4.0251    1.9476 H   0  0  0  0  0  0
   -0.3981    3.2461    2.2857 H   0  0  0  0  0  0
   -0.4062    1.2602   -1.4780 H   0  0  0  0  0  0
    1.6820    0.0930    2.3456 H   0  0  0  0  0  0
    0.2307   -0.6181   -0.1500 H   0  0  0  0  0  0
   -2.5257   -3.7777    2.0205 H   0  0  0  0  0  0
   -2.4740   -2.3047    3.0239 H   0  0  0  0  0  0
   -4.7391   -2.7967    1.9358 H   0  0  0  0  0  0
   -4.0703   -1.1805    1.5898 H   0  0  0  0  0  0
   -5.7186   -3.7034    0.1045 H   0  0  0  0  0  0
   -3.0001   -2.3931   -1.8670 H   0  0  0  0  0  0
   -2.9484   -0.9201   -0.8636 H   0  0  0  0  0  0
   -0.7390   -1.8958   -0.7807 H   0  0  0  0  0  0
   -1.4049   -3.5126   -0.4321 H   0  0  0  0  0  0
    2.0557   -2.3236    1.6014 H   0  0  0  0  0  0
    1.0801   -2.9515    0.2516 H   0  0  0  0  0  0
    3.9530   -0.8699    1.1908 H   0  0  0  0  0  0
    5.4161   -0.6128   -2.8314 H   0  0  0  0  0  0
    3.3640   -1.7038   -3.6363 H   0  0  0  0  0  0
    1.6178   -2.3802   -2.0406 H   0  0  0  0  0  0
  1  2  1  0  0  0
  1 10  2  0  0  0
  1 40  1  0  0  0
  2  3  2  0  0  0
  2 41  1  0  0  0
  3  4  1  0  0  0
  3 42  1  0  0  0
  4  5  2  0  0  0
  4 43  1  0  0  0
  5  6  1  0  0  0
  5 10  1  0  0  0
  6  7  2  0  0  0
  6 44  1  0  0  0
  7  8  1  0  0  0
  7 45  1  0  0  0
  8  9  2  0  0  0
  8 11  1  0  0  0
  9 10  1  0  0  0
  9 46  1  0  0  0
 11 12  2  0  0  0
 11 13  2  0  0  0
 11 14  1  0  0  0
 14 15  1  0  0  0
 14 47  1  0  0  0
 15 16  1  0  0  0
 15 26  1  0  0  0
 15 48  1  0  0  0
 16 17  2  0  0  0
 16 18  1  0  0  0
 18 19  1  0  0  0
 18 25  1  0  0  0
 19 20  1  0  0  0
 19 49  1  0  0  0
 19 50  1  0  0  0
 20 21  1  0  0  0
 20 51  1  0  0  0
 20 52  1  0  0  0
 21 22  1  0  0  0
 21 24  1  0  0  0
 22 23  2  0  0  0
 22 53  1  0  0  0
 24 25  1  0  0  0
 24 54  1  0  0  0
 24 55  1  0  0  0
 25 56  1  0  0  0
 25 57  1  0  0  0
 26 27  1  0  0  0
 26 58  1  0  0  0
 26 59  1  0  0  0
 27 28  1  0  0  0
 27 32  2  0  0  0
 28 29  2  0  0  0
 28 60  1  0  0  0
 29 30  1  0  0  0
 29 33  1  0  0  0
 30 31  2  0  0  0
 30 61  1  0  0  0
 31 32  1  0  0  0
 31 62  1  0  0  0
 32 63  1  0  0  0
 33 34  1  0  0  0
 33 37  1  0  0  0
 34 35  1  0  0  0
 34 36  1  0  0  0
 37 38  1  0  0  0
 37 39  1  0  0  0
M  CHG  1  33   1
M  END
>  <Activity>
7.432

>  <set>
1

>  <Min_dist>
999.9

>  <Avg_dist>
999.9

$$$$
22
  Cerius2 12110215003D 1   1.00000                          
 
 67 70  0  0  0  0  0  0  0  0999 V2000
   -2.2483    2.4434   -2.1738 C   0  0  0  0  0  0
   -3.4380    3.0785   -2.3591 C   0  0  0  0  0  0
   -3.8950    4.0266   -1.4460 C   0  0  0  0  0  0
   -3.1653    4.3450   -0.3418 C   0  0  0  0  0  0
   -1.9323    3.7100   -0.1165 C   0  0  0  0  0  0
   -1.1507    4.0127    1.0116 C   0  0  0  0  0  0
    0.0386    3.3777    1.1968 C   0  0  0  0  0  0
    0.4959    2.4296    0.2832 C   0  0  0  0  0  0
   -0.2336    2.1112   -0.8207 C   0  0  0  0  0  0
   -1.4673    2.7458   -1.0457 C   0  0  0  0  0  0
    2.0420    1.6315    0.5614 S   0  0  0  0  0  0
    2.4739    1.1720   -0.7120 O   0  0  0  0  0  0
    2.7758    2.4985    1.4153 O   0  0  0  0  0  0
    1.7424    0.2690    1.4536 N   0  0  0  0  0  0
    0.8592   -0.7734    0.9247 C   0  0  0  0  0  0
   -0.3114   -0.9597    1.8553 C   0  0  0  0  0  0
   -0.2492   -0.5546    2.9967 O   0  0  0  0  0  0
   -1.4276   -1.5764    1.4190 N   0  0  0  0  0  0
   -2.5353   -1.8595    2.3424 C   0  0  0  0  0  0
   -3.8178   -1.2397    1.7739 C   0  0  0  0  0  0
   -3.9491   -1.6407    0.3661 N   0  0  0  0  0  0
   -5.0657   -2.2566   -0.0703 C   0  0  0  0  0  0
   -5.9734   -2.4846    0.7010 O   0  0  0  0  0  0
   -5.1861   -2.6620   -1.5168 C   0  0  0  0  0  0
   -6.4508   -3.2918   -1.7312 O   0  0  0  0  0  0
   -2.8414   -1.3576   -0.5573 C   0  0  0  0  0  0
   -1.5612   -1.9724    0.0100 C   0  0  0  0  0  0
    1.6336   -2.0879    0.8098 C   0  0  0  0  0  0
    2.7226   -1.9410   -0.2215 C   0  0  0  0  0  0
    3.9752   -1.5033    0.1574 C   0  0  0  0  0  0
    4.9822   -1.3683   -0.7984 C   0  0  0  0  0  0
    4.7155   -1.6771   -2.1328 C   0  0  0  0  0  0
    3.4591   -2.1137   -2.4988 C   0  0  0  0  0  0
    2.4659   -2.2506   -1.5450 C   0  0  0  0  0  0
    6.3275   -0.8991   -0.3991 C   0  3  0  0  0  0
    7.2867   -0.7712   -1.3137 N   0  0  0  0  0  0
    8.1686   -0.4636   -1.0519 H   0  0  0  0  0  0
    7.1035   -0.9856   -2.2418 H   0  0  0  0  0  0
    6.5789   -0.6047    0.8749 N   0  0  0  0  0  0
    7.4608   -0.2971    1.1367 H   0  0  0  0  0  0
    5.8802   -0.6979    1.5412 H   0  0  0  0  0  0
   -1.9087    1.7078   -2.8878 H   0  0  0  0  0  0
   -4.0365    2.8443   -3.2271 H   0  0  0  0  0  0
   -4.8422    4.5164   -1.6170 H   0  0  0  0  0  0
   -3.5319    5.0821    0.3572 H   0  0  0  0  0  0
   -1.4919    4.7458    1.7276 H   0  0  0  0  0  0
    0.6373    3.6122    2.0645 H   0  0  0  0  0  0
    0.1337    1.3750   -1.5203 H   0  0  0  0  0  0
    2.1517    0.1611    2.3264 H   0  0  0  0  0  0
    0.4972   -0.4777   -0.0599 H   0  0  0  0  0  0
   -2.6626   -2.9375    2.4413 H   0  0  0  0  0  0
   -2.3192   -1.4231    3.3176 H   0  0  0  0  0  0
   -4.6787   -1.5981    2.3383 H   0  0  0  0  0  0
   -3.7599   -0.1533    1.8410 H   0  0  0  0  0  0
   -5.1086   -1.7779   -2.1496 H   0  0  0  0  0  0
   -4.3861   -3.3589   -1.7666 H   0  0  0  0  0  0
   -6.4870   -3.5349   -2.6664 H   0  0  0  0  0  0
   -3.0575   -1.7939   -1.5325 H   0  0  0  0  0  0
   -2.7141   -0.2796   -0.6562 H   0  0  0  0  0  0
   -0.7012   -1.6131   -0.5552 H   0  0  0  0  0  0
   -1.6171   -3.0590   -0.0554 H   0  0  0  0  0  0
    2.0776   -2.3336    1.7745 H   0  0  0  0  0  0
    0.9537   -2.8851    0.5093 H   0  0  0  0  0  0
    4.1754   -1.2655    1.1917 H   0  0  0  0  0  0
    5.4908   -1.5743   -2.8775 H   0  0  0  0  0  0
    3.2512   -2.3527   -3.5313 H   0  0  0  0  0  0
    1.4839   -2.5927   -1.8366 H   0  0  0  0  0  0
  1  2  1  0  0  0
  1 10  2  0  0  0
  1 42  1  0  0  0
  2  3  2  0  0  0
  2 43  1  0  0  0
  3  4  1  0  0  0
  3 44  1  0  0  0
  4  5  2  0  0  0
  4 45  1  0  0  0
  5  6  1  0  0  0
  5 10  1  0  0  0
  6  7  2  0  0  0
  6 46  1  0  0  0
  7  8  1  0  0  0
  7 47  1  0  0  0
  8  9  2  0  0  0
  8 11  1  0  0  0
  9 10  1  0  0  0
  9 48  1  0  0  0
 11 12  2  0  0  0
 11 13  2  0  0  0
 11 14  1  0  0  0
 14 15  1  0  0  0
 14 49  1  0  0  0
 15 16  1  0  0  0
 15 28  1  0  0  0
 15 50  1  0  0  0
 16 17  2  0  0  0
 16 18  1  0  0  0
 18 19  1  0  0  0
 18 27  1  0  0  0
 19 20  1  0  0  0
 19 51  1  0  0  0
 19 52  1  0  0  0
 20 21  1  0  0  0
 20 53  1  0  0  0
 20 54  1  0  0  0
 21 22  1  0  0  0
 21 26  1  0  0  0
 22 23  2  0  0  0
 22 24  1  0  0  0
 24 25  1  0  0  0
 24 55  1  0  0  0
 24 56  1  0  0  0
 25 57  1  0  0  0
 26 27  1  0  0  0
 26 58  1  0  0  0
 26 59  1  0  0  0
 27 60  1  0  0  0
 27 61  1  0  0  0
 28 29  1  0  0  0
 28 62  1  0  0  0
 28 63  1  0  0  0
 29 30  1  0  0  0
 29 34  2  0  0  0
 30 31  2  0  0  0
 30 64  1  0  0  0
 31 32  1  0  0  0
 31 35  1  0  0  0
 32 33  2  0  0  0
 32 65  1  0  0  0
 33 34  1  0  0  0
 33 66  1  0  0  0
 34 67  1  0  0  0
 35 36  1  0  0  0
 35 39  1  0  0  0
 36 37  1  0  0  0
 36 38  1  0  0  0
 39 40  1  0  0  0
 39 41  1  0  0  0
M  CHG  1  35   1
M  END
>  <Activity>
7.237

>  <set>
1

>  <Min_dist>
999.9

>  <Avg_dist>
999.9

$$$$
23
  Cerius2 12110215003D 1   1.00000                          
Structure written by Cerius2 SD Exporter
 68 70  0  0  0  0  0  0  0  0999 V2000
    3.1787   -4.1118   -0.6964 C   0  0  0  0  0  0
    1.8357   -3.4981   -0.3951 C   0  0  0  0  0  0
    1.1528   -3.8582    0.7515 C   0  0  0  0  0  0
   -0.0792   -3.2953    1.0277 C   0  0  0  0  0  0
   -0.6279   -2.3719    0.1576 C   0  0  0  0  0  0
    0.0555   -2.0111   -0.9885 C   0  0  0  0  0  0
    1.2894   -2.5707   -1.2626 C   0  0  0  0  0  0
   -2.1987   -1.6552    0.5092 S   0  0  0  0  0  0
   -2.7080   -1.2094   -0.7402 O   0  0  0  0  0  0
   -2.8503   -2.5642    1.3859 O   0  0  0  0  0  0
   -1.9297   -0.2854    1.4000 N   0  0  0  0  0  0
   -1.1239    0.8040    0.8432 C   0  0  0  0  0  0
    0.0751    1.0430    1.7243 C   0  0  0  0  0  0
    0.0826    0.6280    2.8638 O   0  0  0  0  0  0
    1.1391    1.7178    1.2458 N   0  0  0  0  0  0
    2.2706    2.0496    2.1231 C   0  0  0  0  0  0
    3.5563    1.4987    1.4941 C   0  0  0  0  0  0
    3.6061    1.9155    0.0857 C   0  0  0  0  0  0
    2.4747    1.5837   -0.7916 C   0  0  0  0  0  0
    1.1914    2.1297   -0.1640 C   0  0  0  0  0  0
   -1.9678    2.0784    0.7736 C   0  0  0  0  0  0
   -3.0918    1.8834   -0.2110 C   0  0  0  0  0  0
   -4.3032    1.3803    0.2177 C   0  0  0  0  0  0
   -5.3428    1.2008   -0.6949 C   0  0  0  0  0  0
   -5.1503    1.5318   -2.0368 C   0  0  0  0  0  0
   -3.9347    2.0339   -2.4528 C   0  0  0  0  0  0
   -2.9091    2.2145   -1.5416 C   0  0  0  0  0  0
   -6.6441    0.6613   -0.2421 C   0  3  0  0  0  0
   -7.6345    0.4912   -1.1155 N   0  0  0  0  0  0
   -8.4876    0.1375   -0.8186 H   0  0  0  0  0  0
   -6.8246    0.3461    1.0389 N   0  0  0  0  0  0
   -7.6776   -0.0076    1.3358 H   0  0  0  0  0  0
   -6.1030    0.4700    1.6752 H   0  0  0  0  0  0
    1.5815   -4.5797    1.4312 H   0  0  0  0  0  0
   -0.8057   -3.6789    2.2463 C   0  0  0  0  0  0
   -0.5281   -1.0297   -1.9138 C   0  0  0  0  0  0
    1.8233   -2.2889   -2.1581 H   0  0  0  0  0  0
   -2.3057   -0.2044    2.2905 H   0  0  0  0  0  0
   -0.7905    0.5338   -0.1588 H   0  0  0  0  0  0
    2.3484    3.1320    2.2262 H   0  0  0  0  0  0
    2.1192    1.5963    3.1027 H   0  0  0  0  0  0
    4.4221    1.8960    2.0240 H   0  0  0  0  0  0
    3.5555    0.4104    1.5538 H   0  0  0  0  0  0
    2.6261    2.0370   -1.7712 H   0  0  0  0  0  0
    2.3969    0.5014   -0.8947 H   0  0  0  0  0  0
    0.3266    1.7317   -0.6948 H   0  0  0  0  0  0
    1.1903    3.2182   -0.2219 H   0  0  0  0  0  0
   -2.3811    2.2947    1.7587 H   0  0  0  0  0  0
   -1.3426    2.9110    0.4511 H   0  0  0  0  0  0
   -4.4459    1.1257    1.2575 H   0  0  0  0  0  0
   -5.9513    1.3948   -2.7482 H   0  0  0  0  0  0
   -3.7843    2.2901   -3.4911 H   0  0  0  0  0  0
   -1.9591    2.6079   -1.8722 H   0  0  0  0  0  0
    3.6772    2.8616    0.0378 H   0  0  0  0  0  0
    4.8210    1.3422   -0.5105 C   0  0  0  0  0  0
    4.8765    1.5978   -1.4238 H   0  0  0  0  0  0
    5.5842    1.6633   -0.0448 H   0  0  0  0  0  0
    4.7875    0.3948   -0.4483 H   0  0  0  0  0  0
   -7.5125    0.7044   -1.9813 H   0  0  0  0  0  0
    3.5110   -3.7607   -1.5142 H   0  0  0  0  0  0
    3.7851   -3.9071    0.0057 H   0  0  0  0  0  0
    3.0867   -5.0544   -0.7706 H   0  0  0  0  0  0
   -1.6284   -3.2055    2.2868 H   0  0  0  0  0  0
   -0.9783   -4.6130    2.2313 H   0  0  0  0  0  0
   -0.2801   -3.4662    3.0085 H   0  0  0  0  0  0
    0.0628   -0.8936   -2.6451 H   0  0  0  0  0  0
   -1.3609   -1.3543   -2.2358 H   0  0  0  0  0  0
   -0.6635   -0.2069   -1.4587 H   0  0  0  0  0  0
  1  2  1  0  0  0
  1 60  1  0  0  0
  1 61  1  0  0  0
  1 62  1  0  0  0
  2  3  1  0  0  0
  2  7  2  0  0  0
  3  4  2  0  0  0
  3 34  1  0  0  0
  4  5  1  0  0  0
  4 35  1  0  0  0
  5  6  2  0  0  0
  5  8  1  0  0  0
  6  7  1  0  0  0
  6 36  1  0  0  0
  7 37  1  0  0  0
  8  9  2  0  0  0
  8 10  2  0  0  0
  8 11  1  0  0  0
 11 12  1  0  0  0
 11 38  1  0  0  0
 12 13  1  0  0  0
 12 21  1  0  0  0
 12 39  1  0  0  0
 13 14  2  0  0  0
 13 15  1  0  0  0
 15 16  1  0  0  0
 15 20  1  0  0  0
 16 17  1  0  0  0
 16 40  1  0  0  0
 16 41  1  0  0  0
 17 18  1  0  0  0
 17 42  1  0  0  0
 17 43  1  0  0  0
 18 19  1  0  0  0
 18 54  1  0  0  0
 18 55  1  0  0  0
 19 20  1  0  0  0
 19 44  1  0  0  0
 19 45  1  0  0  0
 20 46  1  0  0  0
 20 47  1  0  0  0
 21 22  1  0  0  0
 21 48  1  0  0  0
 21 49  1  0  0  0
 22 23  1  0  0  0
 22 27  2  0  0  0
 23 24  2  0  0  0
 23 50  1  0  0  0
 24 25  1  0  0  0
 24 28  1  0  0  0
 25 26  2  0  0  0
 25 51  1  0  0  0
 26 27  1  0  0  0
 26 52  1  0  0  0
 27 53  1  0  0  0
 28 29  1  0  0  0
 28 31  1  0  0  0
 29 30  1  0  0  0
 29 59  1  0  0  0
 31 32  1  0  0  0
 31 33  1  0  0  0
 35 63  1  0  0  0
 35 64  1  0  0  0
 35 65  1  0  0  0
 36 66  1  0  0  0
 36 67  1  0  0  0
 36 68  1  0  0  0
 55 56  1  0  0  0
 55 57  1  0  0  0
 55 58  1  0  0  0
M  CHG  1  28   1
M  END
>  <Activity>
7.229

>  <set>
1

>  <Min_dist>
999.9

>  <Avg_dist>
999.9

$$$$
24
  Cerius2 12110215013D 1   1.00000                          
 
 62 65  0  0  0  0  0  0  0  0999 V2000
   -3.7317    1.4066   -2.1124 C   0  0  0  0  0  0
   -5.0751    1.5952   -2.2253 C   0  0  0  0  0  0
   -5.8133    2.1422   -1.1778 C   0  0  0  0  0  0
   -5.2127    2.5034   -0.0109 C   0  0  0  0  0  0
   -3.8277    2.3234    0.1429 C   0  0  0  0  0  0
   -3.1723    2.6847    1.3325 C   0  0  0  0  0  0
   -1.8293    2.4960    1.4454 C   0  0  0  0  0  0
   -1.0908    1.9491    0.3974 C   0  0  0  0  0  0
   -1.6912    1.5880   -0.7692 C   0  0  0  0  0  0
   -3.0767    1.7673   -0.9229 C   0  0  0  0  0  0
    0.6464    1.7226    0.5857 S   0  0  0  0  0  0
    1.1750    1.6775   -0.7325 O   0  0  0  0  0  0
    1.0465    2.6321    1.6016 O   0  0  0  0  0  0
    0.8828    0.2101    1.2173 N   0  0  0  0  0  0
    0.4163   -0.9703    0.4858 C   0  0  0  0  0  0
   -0.6851   -1.6415    1.2652 C   0  0  0  0  0  0
   -0.7326   -1.5244    2.4714 O   0  0  0  0  0  0
   -1.6173   -2.3719    0.6218 N   0  0  0  0  0  0
   -1.5100   -2.6178   -0.8227 C   0  0  0  0  0  0
   -1.5878   -4.1271   -1.0731 C   0  0  0  0  0  0
   -2.8634   -4.6810   -0.4343 C   0  0  0  0  0  0
   -2.8238   -4.4435    1.0771 C   0  0  0  0  0  0
   -2.7570   -2.9425    1.3528 C   0  0  0  0  0  0
    1.5786   -1.9478    0.3005 C   0  0  0  0  0  0
    2.6800   -1.2766   -0.4790 C   0  0  0  0  0  0
    3.6708   -0.5839    0.1864 C   0  0  0  0  0  0
    4.6899    0.0365   -0.5366 C   0  0  0  0  0  0
    4.7003   -0.0480   -1.9294 C   0  0  0  0  0  0
    3.7041   -0.7436   -2.5827 C   0  0  0  0  0  0
    2.6989   -1.3611   -1.8595 C   0  0  0  0  0  0
    5.7551    0.7813    0.1705 C   0  3  0  0  0  0
    6.7264    1.3724   -0.5223 N   0  0  0  0  0  0
    7.4247    1.8607   -0.0587 H   0  0  0  0  0  0
    6.7358    1.3147   -1.4905 H   0  0  0  0  0  0
    5.7422    0.8606    1.4996 N   0  0  0  0  0  0
    6.4405    1.3489    1.9631 H   0  0  0  0  0  0
    5.0346    0.4300    2.0043 H   0  0  0  0  0  0
   -3.1731    0.9777   -2.9312 H   0  0  0  0  0  0
   -5.5762    1.3171   -3.1407 H   0  0  0  0  0  0
   -6.8780    2.2819   -1.2936 H   0  0  0  0  0  0
   -5.7976    2.9265    0.7924 H   0  0  0  0  0  0
   -3.7315    3.1102    2.1527 H   0  0  0  0  0  0
   -1.3281    2.7745    2.3606 H   0  0  0  0  0  0
   -1.1061    1.1661   -1.5730 H   0  0  0  0  0  0
    1.3302    0.1058    2.0716 H   0  0  0  0  0  0
    0.0377   -0.6667   -0.4903 H   0  0  0  0  0  0
   -2.3294   -2.1188   -1.3402 H   0  0  0  0  0  0
   -0.5572   -2.2353   -1.1887 H   0  0  0  0  0  0
   -1.6061   -4.3174   -2.1462 H   0  0  0  0  0  0
   -0.7186   -4.6144   -0.6315 H   0  0  0  0  0  0
   -3.7310   -4.1758   -0.8586 H   0  0  0  0  0  0
   -2.9337   -5.7506   -0.6321 H   0  0  0  0  0  0
   -3.7217   -4.8591    1.5343 H   0  0  0  0  0  0
   -1.9429   -4.9279    1.4984 H   0  0  0  0  0  0
   -2.6289   -2.7727    2.4219 H   0  0  0  0  0  0
   -3.6771   -2.4673    1.0129 H   0  0  0  0  0  0
    1.9572   -2.2514    1.2765 H   0  0  0  0  0  0
    1.2315   -2.8261   -0.2438 H   0  0  0  0  0  0
    3.6571   -0.5218    1.2645 H   0  0  0  0  0  0
    5.4863    0.4304   -2.4947 H   0  0  0  0  0  0
    3.7108   -0.8094   -3.6607 H   0  0  0  0  0  0
    1.9212   -1.9045   -2.3756 H   0  0  0  0  0  0
  1  2  1  0  0  0
  1 10  2  0  0  0
  1 38  1  0  0  0
  2  3  2  0  0  0
  2 39  1  0  0  0
  3  4  1  0  0  0
  3 40  1  0  0  0
  4  5  2  0  0  0
  4 41  1  0  0  0
  5  6  1  0  0  0
  5 10  1  0  0  0
  6  7  2  0  0  0
  6 42  1  0  0  0
  7  8  1  0  0  0
  7 43  1  0  0  0
  8  9  2  0  0  0
  8 11  1  0  0  0
  9 10  1  0  0  0
  9 44  1  0  0  0
 11 12  2  0  0  0
 11 13  2  0  0  0
 11 14  1  0  0  0
 14 15  1  0  0  0
 14 45  1  0  0  0
 15 16  1  0  0  0
 15 24  1  0  0  0
 15 46  1  0  0  0
 16 17  2  0  0  0
 16 18  1  0  0  0
 18 19  1  0  0  0
 18 23  1  0  0  0
 19 20  1  0  0  0
 19 47  1  0  0  0
 19 48  1  0  0  0
 20 21  1  0  0  0
 20 49  1  0  0  0
 20 50  1  0  0  0
 21 22  1  0  0  0
 21 51  1  0  0  0
 21 52  1  0  0  0
 22 23  1  0  0  0
 22 53  1  0  0  0
 22 54  1  0  0  0
 23 55  1  0  0  0
 23 56  1  0  0  0
 24 25  1  0  0  0
 24 57  1  0  0  0
 24 58  1  0  0  0
 25 26  1  0  0  0
 25 30  2  0  0  0
 26 27  2  0  0  0
 26 59  1  0  0  0
 27 28  1  0  0  0
 27 31  1  0  0  0
 28 29  2  0  0  0
 28 60  1  0  0  0
 29 30  1  0  0  0
 29 61  1  0  0  0
 30 62  1  0  0  0
 31 32  1  0  0  0
 31 35  1  0  0  0
 32 33  1  0  0  0
 32 34  1  0  0  0
 35 36  1  0  0  0
 35 37  1  0  0  0
M  CHG  1  31   1
M  END
>  <Activity>
7.187

>  <set>
1

>  <Min_dist>
999.9

>  <Avg_dist>
999.9

$$$$
25
  Cerius2 12110215013D 1   1.00000                          
Structure written by Cerius2 SD Exporter
 86 88  0  0  0  0  0  0  0  0999 V2000
    3.1787   -4.1118   -0.6964 C   0  0  0  0  0  0
    1.8357   -3.4981   -0.3951 C   0  0  0  0  0  0
    1.1528   -3.8582    0.7515 C   0  0  0  0  0  0
   -0.0792   -3.2953    1.0277 C   0  0  0  0  0  0
   -0.6279   -2.3719    0.1576 C   0  0  0  0  0  0
    0.0555   -2.0111   -0.9885 C   0  0  0  0  0  0
    1.2894   -2.5707   -1.2626 C   0  0  0  0  0  0
   -2.1987   -1.6552    0.5092 S   0  0  0  0  0  0
   -2.7080   -1.2094   -0.7402 O   0  0  0  0  0  0
   -2.8503   -2.5642    1.3859 O   0  0  0  0  0  0
   -1.9297   -0.2854    1.4000 N   0  0  0  0  0  0
   -1.1239    0.8040    0.8432 C   0  0  0  0  0  0
    0.0751    1.0430    1.7243 C   0  0  0  0  0  0
    0.0826    0.6280    2.8638 O   0  0  0  0  0  0
    1.1391    1.7178    1.2458 N   0  0  0  0  0  0
    2.2706    2.0496    2.1231 C   0  0  0  0  0  0
    3.5563    1.4987    1.4941 C   0  0  0  0  0  0
    3.6061    1.9155    0.0857 C   0  0  0  0  0  0
    2.4747    1.5837   -0.7916 C   0  0  0  0  0  0
    1.1914    2.1297   -0.1640 C   0  0  0  0  0  0
   -1.9678    2.0784    0.7736 C   0  0  0  0  0  0
   -3.0918    1.8834   -0.2110 C   0  0  0  0  0  0
   -4.3032    1.3803    0.2177 C   0  0  0  0  0  0
   -5.3428    1.2008   -0.6949 C   0  0  0  0  0  0
   -5.1503    1.5318   -2.0368 C   0  0  0  0  0  0
   -3.9347    2.0339   -2.4528 C   0  0  0  0  0  0
   -2.9091    2.2145   -1.5416 C   0  0  0  0  0  0
   -6.6441    0.6613   -0.2421 C   0  3  0  0  0  0
   -7.6345    0.4912   -1.1155 N   0  0  0  0  0  0
   -8.4876    0.1375   -0.8186 H   0  0  0  0  0  0
   -6.8246    0.3461    1.0389 N   0  0  0  0  0  0
   -7.6776   -0.0076    1.3358 H   0  0  0  0  0  0
   -6.1030    0.4700    1.6752 H   0  0  0  0  0  0
    1.5815   -4.5797    1.4312 H   0  0  0  0  0  0
   -0.8057   -3.6789    2.2463 C   0  0  0  0  0  0
   -0.5281   -1.0297   -1.9138 C   0  0  0  0  0  0
    1.8233   -2.2889   -2.1581 H   0  0  0  0  0  0
   -2.3057   -0.2044    2.2905 H   0  0  0  0  0  0
   -0.7905    0.5338   -0.1588 H   0  0  0  0  0  0
    2.3484    3.1320    2.2262 H   0  0  0  0  0  0
    2.1192    1.5963    3.1027 H   0  0  0  0  0  0
    4.4221    1.8960    2.0240 H   0  0  0  0  0  0
    3.5555    0.4104    1.5538 H   0  0  0  0  0  0
    2.6261    2.0370   -1.7712 H   0  0  0  0  0  0
    2.3969    0.5014   -0.8947 H   0  0  0  0  0  0
    0.3266    1.7317   -0.6948 H   0  0  0  0  0  0
    1.1903    3.2182   -0.2219 H   0  0  0  0  0  0
   -2.3811    2.2947    1.7587 H   0  0  0  0  0  0
   -1.3426    2.9110    0.4511 H   0  0  0  0  0  0
   -4.4459    1.1257    1.2575 H   0  0  0  0  0  0
   -5.9513    1.3948   -2.7482 H   0  0  0  0  0  0
   -3.7843    2.2901   -3.4911 H   0  0  0  0  0  0
   -1.9591    2.6079   -1.8722 H   0  0  0  0  0  0
    3.6772    2.8616    0.0378 H   0  0  0  0  0  0
    4.8210    1.3422   -0.5105 C   0  0  0  0  0  0
    4.8765    1.5978   -1.4238 H   0  0  0  0  0  0
    5.5842    1.6633   -0.0448 H   0  0  0  0  0  0
    4.7875    0.3948   -0.4483 H   0  0  0  0  0  0
   -7.5125    0.7044   -1.9813 H   0  0  0  0  0  0
    3.6928   -3.5687   -1.9616 C   0  0  0  0  0  0
    4.1168   -3.7952    0.3898 C   0  0  0  0  0  0
    3.0867   -5.0544   -0.7706 H   0  0  0  0  0  0
   -1.6284   -3.2055    2.2868 H   0  0  0  0  0  0
   -1.0728   -5.1240    2.2231 C   0  0  0  0  0  0
    0.0074   -3.3499    3.4255 C   0  0  0  0  0  0
    0.3860   -0.8191   -3.0452 C   0  0  0  0  0  0
   -1.8165   -1.5318   -2.4119 C   0  0  0  0  0  0
   -0.6635   -0.2069   -1.4587 H   0  0  0  0  0  0
    4.5394   -3.9555   -2.1515 H   0  0  0  0  0  0
    3.0864   -3.7733   -2.6637 H   0  0  0  0  0  0
    3.7848   -2.6261   -1.8874 H   0  0  0  0  0  0
    4.9634   -4.1820    0.1998 H   0  0  0  0  0  0
    4.2088   -2.8526    0.4640 H   0  0  0  0  0  0
    3.7845   -4.1462    1.2076 H   0  0  0  0  0  0
   -1.5424   -5.3719    3.0108 H   0  0  0  0  0  0
   -1.5984   -5.3366    1.4608 H   0  0  0  0  0  0
   -0.2501   -5.5974    2.1826 H   0  0  0  0  0  0
   -0.4622   -3.5978    4.2132 H   0  0  0  0  0  0
    0.8300   -3.8233    3.3850 H   0  0  0  0  0  0
    0.1800   -2.4158    3.4406 H   0  0  0  0  0  0
    0.0088   -0.1848   -3.6433 H   0  0  0  0  0  0
    1.2188   -0.4946   -2.7233 H   0  0  0  0  0  0
    0.5214   -1.6420   -3.5003 H   0  0  0  0  0  0
   -2.1937   -0.8975   -3.0100 H   0  0  0  0  0  0
   -1.6811   -2.3547   -2.8670 H   0  0  0  0  0  0
   -2.4074   -1.6679   -1.6806 H   0  0  0  0  0  0
  1  2  1  0  0  0
  1 60  1  0  0  0
  1 61  1  0  0  0
  1 62  1  0  0  0
  2  3  1  0  0  0
  2  7  2  0  0  0
  3  4  2  0  0  0
  3 34  1  0  0  0
  4  5  1  0  0  0
  4 35  1  0  0  0
  5  6  2  0  0  0
  5  8  1  0  0  0
  6  7  1  0  0  0
  6 36  1  0  0  0
  7 37  1  0  0  0
  8  9  2  0  0  0
  8 10  2  0  0  0
  8 11  1  0  0  0
 11 12  1  0  0  0
 11 38  1  0  0  0
 12 13  1  0  0  0
 12 21  1  0  0  0
 12 39  1  0  0  0
 13 14  2  0  0  0
 13 15  1  0  0  0
 15 16  1  0  0  0
 15 20  1  0  0  0
 16 17  1  0  0  0
 16 40  1  0  0  0
 16 41  1  0  0  0
 17 18  1  0  0  0
 17 42  1  0  0  0
 17 43  1  0  0  0
 18 19  1  0  0  0
 18 54  1  0  0  0
 18 55  1  0  0  0
 19 20  1  0  0  0
 19 44  1  0  0  0
 19 45  1  0  0  0
 20 46  1  0  0  0
 20 47  1  0  0  0
 21 22  1  0  0  0
 21 48  1  0  0  0
 21 49  1  0  0  0
 22 23  1  0  0  0
 22 27  2  0  0  0
 23 24  2  0  0  0
 23 50  1  0  0  0
 24 25  1  0  0  0
 24 28  1  0  0  0
 25 26  2  0  0  0
 25 51  1  0  0  0
 26 27  1  0  0  0
 26 52  1  0  0  0
 27 53  1  0  0  0
 28 29  1  0  0  0
 28 31  1  0  0  0
 29 30  1  0  0  0
 29 59  1  0  0  0
 31 32  1  0  0  0
 31 33  1  0  0  0
 35 63  1  0  0  0
 35 64  1  0  0  0
 35 65  1  0  0  0
 36 66  1  0  0  0
 36 67  1  0  0  0
 36 68  1  0  0  0
 55 56  1  0  0  0
 55 57  1  0  0  0
 55 58  1  0  0  0
 60 69  1  0  0  0
 60 70  1  0  0  0
 60 71  1  0  0  0
 61 72  1  0  0  0
 61 73  1  0  0  0
 61 74  1  0  0  0
 64 75  1  0  0  0
 64 76  1  0  0  0
 64 77  1  0  0  0
 65 78  1  0  0  0
 65 79  1  0  0  0
 65 80  1  0  0  0
 66 81  1  0  0  0
 66 82  1  0  0  0
 66 83  1  0  0  0
 67 84  1  0  0  0
 67 85  1  0  0  0
 67 86  1  0  0  0
M  CHG  1  28   1
M  END
>  <Activity>
7.125

>  <set>
1

>  <Min_dist>
999.9

>  <Avg_dist>
999.9

$$$$
26
  Cerius2 12110215013D 1   1.00000                          
Structure written by Cerius2 SD Exporter
 72 74  0  0  0  0  0  0  0  0999 V2000
    0.9841   -1.4860    2.4444 C   0  0  0  0  0  0
    0.1854   -2.2353    1.4091 C   0  0  0  0  0  0
    0.6371   -2.3026    0.1038 C   0  0  0  0  0  0
   -0.0933   -2.9892   -0.8482 C   0  0  0  0  0  0
   -1.2768   -3.6099   -0.4975 C   0  0  0  0  0  0
   -1.7318   -3.5441    0.8112 C   0  0  0  0  0  0
   -0.9942   -2.8589    1.7661 C   0  0  0  0  0  0
   -2.8958   -4.1534    1.1586 O   0  0  0  0  0  0
   -3.0899   -3.9088    2.5531 C   0  0  0  0  0  0
   -2.0730   -4.3572   -1.5360 C   0  0  0  0  0  0
    0.4015   -3.0602   -2.2699 C   0  0  0  0  0  0
    2.1457   -1.5117   -0.3468 S   0  0  0  0  0  0
    2.6427   -0.9202    0.8458 O   0  0  0  0  0  0
    2.8462   -2.4478   -1.1544 O   0  0  0  0  0  0
    1.7631   -0.2502   -1.3491 N   0  0  0  0  0  0
    0.8903    0.8255   -0.8724 C   0  0  0  0  0  0
   -0.3378    0.8989   -1.7427 C   0  0  0  0  0  0
   -0.3255    0.4076   -2.8515 O   0  0  0  0  0  0
   -1.4497    1.5105   -1.2889 N   0  0  0  0  0  0
   -2.6120    1.6983   -2.1686 C   0  0  0  0  0  0
   -3.8427    1.0807   -1.4932 C   0  0  0  0  0  0
   -3.9148    1.5713   -0.1097 C   0  0  0  0  0  0
   -2.7526    1.3835    0.7699 C   0  0  0  0  0  0
   -1.5240    1.9961    0.0962 C   0  0  0  0  0  0
    1.6408    2.1573   -0.9360 C   0  0  0  0  0  0
    2.7918    2.1322    0.0365 C   0  0  0  0  0  0
    4.0292    1.6789   -0.3728 C   0  0  0  0  0  0
    5.0937    1.6568    0.5286 C   0  0  0  0  0  0
    4.8995    2.0938    1.8395 C   0  0  0  0  0  0
    3.6575    2.5446    2.2362 C   0  0  0  0  0  0
    2.6070    2.5690    1.3359 C   0  0  0  0  0  0
    6.4231    1.1716    0.0965 C   0  3  0  0  0  0
    7.4372    1.1517    0.9591 N   0  0  0  0  0  0
    8.3087    0.8336    0.6758 H   0  0  0  0  0  0
    7.3045    1.4553    1.8707 H   0  0  0  0  0  0
    6.6053    0.7549   -1.1549 N   0  0  0  0  0  0
    7.4768    0.4368   -1.4382 H   0  0  0  0  0  0
    5.8665    0.7694   -1.7833 H   0  0  0  0  0  0
    0.7943   -0.4172    2.3462 H   0  0  0  0  0  0
    0.6897   -1.8173    3.4402 H   0  0  0  0  0  0
    2.0461   -1.6817    2.2956 H   0  0  0  0  0  0
   -1.3461   -2.8066    2.7858 H   0  0  0  0  0  0
   -4.0166   -4.3810    2.8792 H   0  0  0  0  0  0
   -2.2532   -4.3241    3.1148 H   0  0  0  0  0  0
   -3.1480   -2.8346    2.7289 H   0  0  0  0  0  0
   -1.7481   -5.3973   -1.5639 H   0  0  0  0  0  0
   -3.1322   -4.3142   -1.2822 H   0  0  0  0  0  0
   -1.9147   -3.9008   -2.5131 H   0  0  0  0  0  0
    1.1135   -3.8799   -2.3662 H   0  0  0  0  0  0
   -0.4412   -3.2303   -2.9399 H   0  0  0  0  0  0
    0.8903   -2.1217   -2.5318 H   0  0  0  0  0  0
    2.1170   -0.2235   -2.2519 H   0  0  0  0  0  0
    0.5945    0.6240    0.1572 H   0  0  0  0  0  0
   -2.7796    2.7630   -2.3310 H   0  0  0  0  0  0
   -2.4319    1.2040   -3.1232 H   0  0  0  0  0  0
   -4.7426    1.3750   -2.0331 H   0  0  0  0  0  0
   -3.7527   -0.0056   -1.4919 H   0  0  0  0  0  0
   -2.9327    1.8778    1.7246 H   0  0  0  0  0  0
   -2.5850    0.3187    0.9324 H   0  0  0  0  0  0
   -0.6249    1.7010    0.6371 H   0  0  0  0  0  0
   -1.6121    3.0825    0.0931 H   0  0  0  0  0  0
    2.0215    2.3119   -1.9456 H   0  0  0  0  0  0
    0.9624    2.9695   -0.6751 H   0  0  0  0  0  0
    4.1732    1.3417   -1.3886 H   0  0  0  0  0  0
    5.7196    2.0788    2.5420 H   0  0  0  0  0  0
    3.5058    2.8827    3.2506 H   0  0  0  0  0  0
    1.6366    2.9228    1.6514 H   0  0  0  0  0  0
   -4.0633    2.5096   -0.1138 H   0  0  0  0  0  0
   -5.0732    0.9353    0.5334 C   0  0  0  0  0  0
   -5.1420    1.2370    1.4316 H   0  0  0  0  0  0
   -5.8642    1.1660    0.0605 H   0  0  0  0  0  0
   -4.9623   -0.0082    0.5238 H   0  0  0  0  0  0
  1  2  1  0  0  0
  1 39  1  0  0  0
  1 40  1  0  0  0
  1 41  1  0  0  0
  2  3  1  0  0  0
  2  7  2  0  0  0
  3  4  2  0  0  0
  3 12  1  0  0  0
  4  5  1  0  0  0
  4 11  1  0  0  0
  5  6  2  0  0  0
  5 10  1  0  0  0
  6  7  1  0  0  0
  6  8  1  0  0  0
  7 42  1  0  0  0
  8  9  1  0  0  0
  9 43  1  0  0  0
  9 44  1  0  0  0
  9 45  1  0  0  0
 10 46  1  0  0  0
 10 47  1  0  0  0
 10 48  1  0  0  0
 11 49  1  0  0  0
 11 50  1  0  0  0
 11 51  1  0  0  0
 12 13  2  0  0  0
 12 14  2  0  0  0
 12 15  1  0  0  0
 15 16  1  0  0  0
 15 52  1  0  0  0
 16 17  1  0  0  0
 16 25  1  0  0  0
 16 53  1  0  0  0
 17 18  2  0  0  0
 17 19  1  0  0  0
 19 20  1  0  0  0
 19 24  1  0  0  0
 20 21  1  0  0  0
 20 54  1  0  0  0
 20 55  1  0  0  0
 21 22  1  0  0  0
 21 56  1  0  0  0
 21 57  1  0  0  0
 22 23  1  0  0  0
 22 68  1  0  0  0
 22 69  1  0  0  0
 23 24  1  0  0  0
 23 58  1  0  0  0
 23 59  1  0  0  0
 24 60  1  0  0  0
 24 61  1  0  0  0
 25 26  1  0  0  0
 25 62  1  0  0  0
 25 63  1  0  0  0
 26 27  1  0  0  0
 26 31  2  0  0  0
 27 28  2  0  0  0
 27 64  1  0  0  0
 28 29  1  0  0  0
 28 32  1  0  0  0
 29 30  2  0  0  0
 29 65  1  0  0  0
 30 31  1  0  0  0
 30 66  1  0  0  0
 31 67  1  0  0  0
 32 33  1  0  0  0
 32 36  1  0  0  0
 33 34  1  0  0  0
 33 35  1  0  0  0
 36 37  1  0  0  0
 36 38  1  0  0  0
 69 70  1  0  0  0
 69 71  1  0  0  0
 69 72  1  0  0  0
M  CHG  1  32   1
M  END
>  <Activity>
7.051

>  <set>
1

>  <Min_dist>
999.9

>  <Avg_dist>
999.9

$$$$
27
  Cerius2 12110215013D 1   1.00000                          
 
 71 74  0  0  0  0  0  0  0  0999 V2000
   -2.5488   -3.8409    1.0520 C   0  0  0  0  0  0
   -3.8090   -4.3443    1.1592 C   0  0  0  0  0  0
   -4.7795   -4.0588    0.2011 C   0  0  0  0  0  0
   -4.4957   -3.2678   -0.8698 C   0  0  0  0  0  0
   -3.2059   -2.7296   -1.0142 C   0  0  0  0  0  0
   -2.8753   -1.9093   -2.1065 C   0  0  0  0  0  0
   -1.6154   -1.4061   -2.2135 C   0  0  0  0  0  0
   -0.6446   -1.6919   -1.2552 C   0  0  0  0  0  0
   -0.9281   -2.4827   -0.1845 C   0  0  0  0  0  0
   -2.2185   -3.0204   -0.0397 C   0  0  0  0  0  0
    0.9745   -1.0198   -1.4330 S   0  0  0  0  0  0
    1.8291   -1.8665   -0.6767 O   0  0  0  0  0  0
    1.1211   -0.7265   -2.8156 O   0  0  0  0  0  0
    0.9908    0.4437   -0.6583 N   0  0  0  0  0  0
    0.6972    0.5171    0.7751 C   0  0  0  0  0  0
   -0.5895    1.2726    0.9863 C   0  0  0  0  0  0
   -1.2924    1.0181    1.9413 O   0  0  0  0  0  0
   -0.9591    2.2312    0.1139 N   0  0  0  0  0  0
   -2.3728    2.6023   -0.0358 C   0  0  0  0  0  0
   -3.1957    1.8877    1.0049 C   0  0  0  0  0  0
   -3.1822    2.2681    2.1516 O   0  0  0  0  0  0
   -3.9437    0.8285    0.6580 O   0  0  0  0  0  0
   -4.7366    0.1399    1.6607 C   0  0  0  0  0  0
   -2.5078    4.1165    0.1536 C   0  0  0  0  0  0
   -1.5637    4.8338   -0.8141 C   0  0  0  0  0  0
   -1.9086    4.4369   -2.2509 C   0  0  0  0  0  0
   -0.1180    4.4357   -0.5082 C   0  0  0  0  0  0
    0.0446    2.9291   -0.7010 C   0  0  0  0  0  0
    1.8378    1.2416    1.4928 C   0  0  0  0  0  0
    3.0534    0.3517    1.5304 C   0  0  0  0  0  0
    3.9751    0.4016    0.5046 C   0  0  0  0  0  0
    5.1000   -0.4226    0.5411 C   0  0  0  0  0  0
    5.2856   -1.2927    1.6160 C   0  0  0  0  0  0
    4.3569   -1.3331    2.6352 C   0  0  0  0  0  0
    3.2458   -0.5093    2.5958 C   0  0  0  0  0  0
    6.0920   -0.3745   -0.5558 C   0  3  0  0  0  0
    7.1648   -1.1623   -0.5182 N   0  0  0  0  0  0
    7.8151   -1.1309   -1.2372 H   0  0  0  0  0  0
    7.2959   -1.7678    0.2283 H   0  0  0  0  0  0
    5.9120    0.4565   -1.5804 N   0  0  0  0  0  0
    6.5623    0.4880   -2.2994 H   0  0  0  0  0  0
    5.1305    1.0305   -1.6078 H   0  0  0  0  0  0
   -1.8080   -4.0674    1.8046 H   0  0  0  0  0  0
   -4.0603   -4.9748    1.9993 H   0  0  0  0  0  0
   -5.7716   -4.4715    0.3095 H   0  0  0  0  0  0
   -5.2580   -3.0554   -1.6048 H   0  0  0  0  0  0
   -3.6171   -1.6799   -2.8572 H   0  0  0  0  0  0
   -1.3640   -0.7760   -3.0539 H   0  0  0  0  0  0
   -0.1655   -2.6961    0.5498 H   0  0  0  0  0  0
    1.1947    1.2524   -1.1536 H   0  0  0  0  0  0
    0.5969   -0.4909    1.1775 H   0  0  0  0  0  0
   -2.7203    2.3240   -1.0308 H   0  0  0  0  0  0
   -5.2722   -0.6874    1.1952 H   0  0  0  0  0  0
   -4.0804   -0.2454    2.4411 H   0  0  0  0  0  0
   -5.4523    0.8356    2.0986 H   0  0  0  0  0  0
   -3.5352    4.4184   -0.0496 H   0  0  0  0  0  0
   -2.2467    4.3796    1.1787 H   0  0  0  0  0  0
   -1.6755    5.9118   -0.6984 H   0  0  0  0  0  0
   -1.2363    4.9476   -2.9402 H   0  0  0  0  0  0
   -1.7973    3.3588   -2.3666 H   0  0  0  0  0  0
   -2.9379    4.7214   -2.4693 H   0  0  0  0  0  0
    0.5555    4.9648   -1.1824 H   0  0  0  0  0  0
    0.1205    4.6958    0.5231 H   0  0  0  0  0  0
    1.0444    2.6266   -0.3896 H   0  0  0  0  0  0
   -0.1052    2.6768   -1.7508 H   0  0  0  0  0  0
    2.0770    2.1612    0.9588 H   0  0  0  0  0  0
    1.5318    1.4819    2.5111 H   0  0  0  0  0  0
    3.8257    1.0769   -0.3249 H   0  0  0  0  0  0
    6.1543   -1.9335    1.6498 H   0  0  0  0  0  0
    4.4992   -2.0064    3.4676 H   0  0  0  0  0  0
    2.5215   -0.5446    3.3961 H   0  0  0  0  0  0
  1  2  1  0  0  0
  1 10  2  0  0  0
  1 43  1  0  0  0
  2  3  2  0  0  0
  2 44  1  0  0  0
  3  4  1  0  0  0
  3 45  1  0  0  0
  4  5  2  0  0  0
  4 46  1  0  0  0
  5  6  1  0  0  0
  5 10  1  0  0  0
  6  7  2  0  0  0
  6 47  1  0  0  0
  7  8  1  0  0  0
  7 48  1  0  0  0
  8  9  2  0  0  0
  8 11  1  0  0  0
  9 10  1  0  0  0
  9 49  1  0  0  0
 11 12  2  0  0  0
 11 13  2  0  0  0
 11 14  1  0  0  0
 14 15  1  0  0  0
 14 50  1  0  0  0
 15 16  1  0  0  0
 15 29  1  0  0  0
 15 51  1  0  0  0
 16 17  2  0  0  0
 16 18  1  0  0  0
 18 19  1  0  0  0
 18 28  1  0  0  0
 19 20  1  0  0  0
 19 24  1  0  0  0
 19 52  1  0  0  0
 20 21  2  0  0  0
 20 22  1  0  0  0
 22 23  1  0  0  0
 23 53  1  0  0  0
 23 54  1  0  0  0
 23 55  1  0  0  0
 24 25  1  0  0  0
 24 56  1  0  0  0
 24 57  1  0  0  0
 25 26  1  0  0  0
 25 27  1  0  0  0
 25 58  1  0  0  0
 26 59  1  0  0  0
 26 60  1  0  0  0
 26 61  1  0  0  0
 27 28  1  0  0  0
 27 62  1  0  0  0
 27 63  1  0  0  0
 28 64  1  0  0  0
 28 65  1  0  0  0
 29 30  1  0  0  0
 29 66  1  0  0  0
 29 67  1  0  0  0
 30 31  1  0  0  0
 30 35  2  0  0  0
 31 32  2  0  0  0
 31 68  1  0  0  0
 32 33  1  0  0  0
 32 36  1  0  0  0
 33 34  2  0  0  0
 33 69  1  0  0  0
 34 35  1  0  0  0
 34 70  1  0  0  0
 35 71  1  0  0  0
 36 37  1  0  0  0
 36 40  1  0  0  0
 37 38  1  0  0  0
 37 39  1  0  0  0
 40 41  1  0  0  0
 40 42  1  0  0  0
M  CHG  1  36   1
M  END
>  <Activity>
7.018

>  <set>
1

>  <Min_dist>
999.9

>  <Avg_dist>
999.9

$$$$
28
  Cerius2 12110215013D 1   1.00000                          
 
 57 59  0  0  0  0  0  0  0  0999 V2000
   -3.6955    2.5185   -1.4691 C   0  0  0  0  0  0
   -5.0306    2.7513   -1.5966 C   0  0  0  0  0  0
   -5.9249    2.3622   -0.6016 C   0  0  0  0  0  0
   -5.4896    1.7374    0.5268 C   0  0  0  0  0  0
   -4.1186    1.4797    0.6938 C   0  0  0  0  0  0
   -3.6315    0.8374    1.8451 C   0  0  0  0  0  0
   -2.2967    0.6047    1.9725 C   0  0  0  0  0  0
   -1.4020    0.9942    0.9773 C   0  0  0  0  0  0
   -1.8372    1.6188   -0.1508 C   0  0  0  0  0  0
   -3.2087    1.8759   -0.3183 C   0  0  0  0  0  0
    0.3183    0.6738    1.1831 S   0  0  0  0  0  0
    0.9876    1.6052    0.3443 O   0  0  0  0  0  0
    0.5203    0.5345    2.5828 O   0  0  0  0  0  0
    0.6252   -0.8182    0.5335 N   0  0  0  0  0  0
    0.3521   -1.0704   -0.8835 C   0  0  0  0  0  0
   -0.6554   -2.1840   -1.0105 C   0  0  0  0  0  0
   -1.4128   -2.2090   -1.9515 O   0  0  0  0  0  0
   -0.7112   -3.1480   -0.0782 O   0  0  0  0  0  0
   -1.6819   -4.2209   -0.2005 C   0  0  0  0  0  0
   -1.1228   -5.4905    0.4450 C   0  0  0  0  0  0
   -2.9785   -3.8186    0.5051 C   0  0  0  0  0  0
    1.6487   -1.4728   -1.5891 C   0  0  0  0  0  0
    2.6561   -0.3592   -1.4621 C   0  0  0  0  0  0
    3.5205   -0.3321   -0.3868 C   0  0  0  0  0  0
    4.4528    0.6992   -0.2710 C   0  0  0  0  0  0
    4.5048    1.6974   -1.2447 C   0  0  0  0  0  0
    3.6351    1.6589   -2.3149 C   0  0  0  0  0  0
    2.7162    0.6304   -2.4267 C   0  0  0  0  0  0
    5.3823    0.7346    0.8797 C   0  3  0  0  0  0
    6.2710    1.7202    0.9875 N   0  0  0  0  0  0
    6.8803    1.7435    1.7419 H   0  0  0  0  0  0
    6.3091    2.4150    0.3117 H   0  0  0  0  0  0
    5.3300   -0.2190    1.8074 N   0  0  0  0  0  0
    5.9393   -0.1958    2.5618 H   0  0  0  0  0  0
    4.6825   -0.9370    1.7289 H   0  0  0  0  0  0
   -3.0144    2.8221   -2.2504 H   0  0  0  0  0  0
   -5.4022    3.2454   -2.4821 H   0  0  0  0  0  0
   -6.9793    2.5594   -0.7273 H   0  0  0  0  0  0
   -6.1944    1.4417    1.2899 H   0  0  0  0  0  0
   -4.3129    0.5305    2.6248 H   0  0  0  0  0  0
   -1.9251    0.1110    2.8582 H   0  0  0  0  0  0
   -1.1322    1.9156   -0.9133 H   0  0  0  0  0  0
    0.9858   -1.5252    1.0912 H   0  0  0  0  0  0
   -0.0462   -0.1660   -1.3434 H   0  0  0  0  0  0
   -1.8851   -4.4086   -1.2548 H   0  0  0  0  0  0
   -1.8515   -6.2959    0.3531 H   0  0  0  0  0  0
   -0.1991   -5.7772   -0.0577 H   0  0  0  0  0  0
   -0.9196   -5.3028    1.4993 H   0  0  0  0  0  0
   -2.7752   -3.6309    1.5594 H   0  0  0  0  0  0
   -3.3767   -2.9141    0.0452 H   0  0  0  0  0  0
   -3.7071   -4.6240    0.4132 H   0  0  0  0  0  0
    2.0469   -2.3772   -1.1293 H   0  0  0  0  0  0
    1.4455   -1.6604   -2.6434 H   0  0  0  0  0  0
    3.4751   -1.1074    0.3637 H   0  0  0  0  0  0
    5.2240    2.4986   -1.1604 H   0  0  0  0  0  0
    3.6741    2.4310   -3.0689 H   0  0  0  0  0  0
    2.0375    0.6047   -3.2664 H   0  0  0  0  0  0
  1  2  1  0  0  0
  1 10  2  0  0  0
  1 36  1  0  0  0
  2  3  2  0  0  0
  2 37  1  0  0  0
  3  4  1  0  0  0
  3 38  1  0  0  0
  4  5  2  0  0  0
  4 39  1  0  0  0
  5  6  1  0  0  0
  5 10  1  0  0  0
  6  7  2  0  0  0
  6 40  1  0  0  0
  7  8  1  0  0  0
  7 41  1  0  0  0
  8  9  2  0  0  0
  8 11  1  0  0  0
  9 10  1  0  0  0
  9 42  1  0  0  0
 11 12  2  0  0  0
 11 13  2  0  0  0
 11 14  1  0  0  0
 14 15  1  0  0  0
 14 43  1  0  0  0
 15 16  1  0  0  0
 15 22  1  0  0  0
 15 44  1  0  0  0
 16 17  2  0  0  0
 16 18  1  0  0  0
 18 19  1  0  0  0
 19 20  1  0  0  0
 19 21  1  0  0  0
 19 45  1  0  0  0
 20 46  1  0  0  0
 20 47  1  0  0  0
 20 48  1  0  0  0
 21 49  1  0  0  0
 21 50  1  0  0  0
 21 51  1  0  0  0
 22 23  1  0  0  0
 22 52  1  0  0  0
 22 53  1  0  0  0
 23 24  1  0  0  0
 23 28  2  0  0  0
 24 25  2  0  0  0
 24 54  1  0  0  0
 25 26  1  0  0  0
 25 29  1  0  0  0
 26 27  2  0  0  0
 26 55  1  0  0  0
 27 28  1  0  0  0
 27 56  1  0  0  0
 28 57  1  0  0  0
 29 30  1  0  0  0
 29 33  1  0  0  0
 30 31  1  0  0  0
 30 32  1  0  0  0
 33 34  1  0  0  0
 33 35  1  0  0  0
M  CHG  1  29   1
M  END
>  <Activity>
6.959

>  <set>
1

>  <Min_dist>
999.9

>  <Avg_dist>
999.9

$$$$
32
  Cerius2 12110215013D 1   1.00000                          
 
 68 71  0  0  0  0  0  0  0  0999 V2000
   -2.9750    1.5203   -2.1278 C   0  0  0  0  0  0
   -4.2563    1.9396   -2.3161 C   0  0  0  0  0  0
   -4.7739    3.0119   -1.5924 C   0  0  0  0  0  0
   -4.0134    3.6710   -0.6757 C   0  0  0  0  0  0
   -2.6863    3.2666   -0.4536 C   0  0  0  0  0  0
   -1.8704    3.9229    0.4840 C   0  0  0  0  0  0
   -0.5895    3.5035    0.6722 C   0  0  0  0  0  0
   -0.0717    2.4311   -0.0520 C   0  0  0  0  0  0
   -0.8319    1.7720   -0.9684 C   0  0  0  0  0  0
   -2.1597    2.1760   -1.1901 C   0  0  0  0  0  0
    1.5924    1.9213    0.2228 S   0  0  0  0  0  0
    1.9845    1.2314   -0.9560 O   0  0  0  0  0  0
    2.2560    3.0503    0.7742 O   0  0  0  0  0  0
    1.5692    0.7819    1.4243 N   0  0  0  0  0  0
    0.8101   -0.4580    1.2434 C   0  0  0  0  0  0
   -0.2423   -0.5639    2.3168 C   0  0  0  0  0  0
   -0.1511    0.1061    3.3237 O   0  0  0  0  0  0
   -1.2849   -1.4030    2.1579 N   0  0  0  0  0  0
   -1.4581   -2.1532    0.9066 C   0  0  0  0  0  0
   -2.8678   -1.8928    0.3666 C   0  0  0  0  0  0
   -3.8951   -2.2309    1.4494 C   0  0  0  0  0  0
   -3.6703   -1.3313    2.6669 C   0  0  0  0  0  0
   -2.2666   -1.5896    3.2351 C   0  0  0  0  0  0
   -3.1103   -2.7568   -0.8441 C   0  0  0  0  0  0
   -2.2456   -3.5043   -1.2358 O   0  0  0  0  0  0
   -4.2868   -2.6960   -1.4873 O   0  0  0  0  0  0
   -4.5205   -3.5285   -2.6538 C   0  0  0  0  0  0
    1.7583   -1.6550    1.3390 C   0  0  0  0  0  0
    2.7286   -1.6205    0.1864 C   0  0  0  0  0  0
    3.9291   -0.9526    0.3168 C   0  0  0  0  0  0
    4.8263   -0.9220   -0.7509 C   0  0  0  0  0  0
    4.5033   -1.5679   -1.9448 C   0  0  0  0  0  0
    3.3000   -2.2322   -2.0625 C   0  0  0  0  0  0
    2.4165   -2.2633   -0.9980 C   0  0  0  0  0  0
    6.1151   -0.2072   -0.6180 C   0  3  0  0  0  0
    6.9695   -0.1797   -1.6388 N   0  0  0  0  0  0
    7.8143    0.2889   -1.5517 H   0  0  0  0  0  0
    6.7471   -0.6283   -2.4696 H   0  0  0  0  0  0
    6.4204    0.4086    0.5224 N   0  0  0  0  0  0
    7.2652    0.8772    0.6095 H   0  0  0  0  0  0
    5.7979    0.3886    1.2661 H   0  0  0  0  0  0
   -2.5886    0.6850   -2.6930 H   0  0  0  0  0  0
   -4.8810    1.4339   -3.0375 H   0  0  0  0  0  0
   -5.7936    3.3250   -1.7614 H   0  0  0  0  0  0
   -4.4279    4.5007   -0.1223 H   0  0  0  0  0  0
   -2.2579    4.7558    1.0519 H   0  0  0  0  0  0
    0.0353    4.0095    1.3933 H   0  0  0  0  0  0
   -0.4170    0.9432   -1.5226 H   0  0  0  0  0  0
    2.0582    0.9354    2.2478 H   0  0  0  0  0  0
    0.3311   -0.4512    0.2643 H   0  0  0  0  0  0
   -0.7200   -1.8213    0.1764 H   0  0  0  0  0  0
   -1.3315   -3.2187    1.0988 H   0  0  0  0  0  0
   -2.9632   -0.8429    0.0898 H   0  0  0  0  0  0
   -4.9001   -2.0699    1.0595 H   0  0  0  0  0  0
   -3.7827   -3.2745    1.7434 H   0  0  0  0  0  0
   -3.7581   -0.2866    2.3685 H   0  0  0  0  0  0
   -4.4169   -1.5565    3.4285 H   0  0  0  0  0  0
   -2.2088   -2.6089    3.6169 H   0  0  0  0  0  0
   -2.0626   -0.8836    4.0401 H   0  0  0  0  0  0
   -5.5236   -3.3428   -3.0376 H   0  0  0  0  0  0
   -3.7868   -3.2893   -3.4237 H   0  0  0  0  0  0
   -4.4263   -4.5782   -2.3758 H   0  0  0  0  0  0
    2.3086   -1.6085    2.2787 H   0  0  0  0  0  0
    1.1817   -2.5792    1.3009 H   0  0  0  0  0  0
    4.1732   -0.4542    1.2434 H   0  0  0  0  0  0
    5.1936   -1.5475   -2.7751 H   0  0  0  0  0  0
    3.0486   -2.7322   -2.9862 H   0  0  0  0  0  0
    1.4757   -2.7847   -1.0951 H   0  0  0  0  0  0
  1  2  1  0  0  0
  1 10  2  0  0  0
  1 42  1  0  0  0
  2  3  2  0  0  0
  2 43  1  0  0  0
  3  4  1  0  0  0
  3 44  1  0  0  0
  4  5  2  0  0  0
  4 45  1  0  0  0
  5  6  1  0  0  0
  5 10  1  0  0  0
  6  7  2  0  0  0
  6 46  1  0  0  0
  7  8  1  0  0  0
  7 47  1  0  0  0
  8  9  2  0  0  0
  8 11  1  0  0  0
  9 10  1  0  0  0
  9 48  1  0  0  0
 11 12  2  0  0  0
 11 13  2  0  0  0
 11 14  1  0  0  0
 14 15  1  0  0  0
 14 49  1  0  0  0
 15 16  1  0  0  0
 15 28  1  0  0  0
 15 50  1  0  0  0
 16 17  2  0  0  0
 16 18  1  0  0  0
 18 19  1  0  0  0
 18 23  1  0  0  0
 19 20  1  0  0  0
 19 51  1  0  0  0
 19 52  1  0  0  0
 20 21  1  0  0  0
 20 24  1  0  0  0
 20 53  1  0  0  0
 21 22  1  0  0  0
 21 54  1  0  0  0
 21 55  1  0  0  0
 22 23  1  0  0  0
 22 56  1  0  0  0
 22 57  1  0  0  0
 23 58  1  0  0  0
 23 59  1  0  0  0
 24 25  2  0  0  0
 24 26  1  0  0  0
 26 27  1  0  0  0
 27 60  1  0  0  0
 27 61  1  0  0  0
 27 62  1  0  0  0
 28 29  1  0  0  0
 28 63  1  0  0  0
 28 64  1  0  0  0
 29 30  1  0  0  0
 29 34  2  0  0  0
 30 31  2  0  0  0
 30 65  1  0  0  0
 31 32  1  0  0  0
 31 35  1  0  0  0
 32 33  2  0  0  0
 32 66  1  0  0  0
 33 34  1  0  0  0
 33 67  1  0  0  0
 34 68  1  0  0  0
 35 36  1  0  0  0
 35 39  1  0  0  0
 36 37  1  0  0  0
 36 38  1  0  0  0
 39 40  1  0  0  0
 39 41  1  0  0  0
M  CHG  1  35   1
M  END
>  <Activity>
6.824

>  <set>
1

>  <Min_dist>
999.9

>  <Avg_dist>
999.9

$$$$
33
  Cerius2 12110215013D 1   1.00000                          
Structure written by Cerius2 SD Exporter
 89 91  0  0  0  0  0  0  0  0999 V2000
    3.1787   -4.1118   -0.6964 C   0  0  0  0  0  0
    1.8357   -3.4981   -0.3951 C   0  0  0  0  0  0
    1.1528   -3.8582    0.7515 C   0  0  0  0  0  0
   -0.0792   -3.2953    1.0277 C   0  0  0  0  0  0
   -0.6279   -2.3719    0.1576 C   0  0  0  0  0  0
    0.0555   -2.0111   -0.9885 C   0  0  0  0  0  0
    1.2894   -2.5707   -1.2626 C   0  0  0  0  0  0
   -2.1987   -1.6552    0.5092 S   0  0  0  0  0  0
   -2.7080   -1.2094   -0.7402 O   0  0  0  0  0  0
   -2.8503   -2.5642    1.3859 O   0  0  0  0  0  0
   -1.9297   -0.2854    1.4000 N   0  0  0  0  0  0
   -1.1239    0.8040    0.8432 C   0  0  0  0  0  0
    0.0751    1.0430    1.7243 C   0  0  0  0  0  0
    0.0826    0.6280    2.8638 O   0  0  0  0  0  0
    1.1391    1.7178    1.2458 N   0  0  0  0  0  0
    2.2706    2.0496    2.1231 C   0  0  0  0  0  0
    3.5563    1.4987    1.4941 C   0  0  0  0  0  0
    3.6061    1.9155    0.0857 C   0  0  0  0  0  0
    2.4747    1.5837   -0.7916 C   0  0  0  0  0  0
    1.1914    2.1297   -0.1640 C   0  0  0  0  0  0
   -1.9678    2.0784    0.7736 C   0  0  0  0  0  0
   -3.0918    1.8834   -0.2110 C   0  0  0  0  0  0
   -4.3032    1.3803    0.2177 C   0  0  0  0  0  0
   -5.3428    1.2008   -0.6949 C   0  0  0  0  0  0
   -5.1503    1.5318   -2.0368 C   0  0  0  0  0  0
   -3.9347    2.0339   -2.4528 C   0  0  0  0  0  0
   -2.9091    2.2145   -1.5416 C   0  0  0  0  0  0
   -6.6441    0.6613   -0.2421 C   0  3  0  0  0  0
   -7.6345    0.4912   -1.1155 N   0  0  0  0  0  0
   -8.4876    0.1375   -0.8186 H   0  0  0  0  0  0
   -6.8246    0.3461    1.0389 N   0  0  0  0  0  0
   -7.6776   -0.0076    1.3358 H   0  0  0  0  0  0
   -6.1030    0.4700    1.6752 H   0  0  0  0  0  0
    1.5815   -4.5797    1.4312 H   0  0  0  0  0  0
   -0.8057   -3.6789    2.2463 C   0  0  0  0  0  0
   -0.5281   -1.0297   -1.9138 C   0  0  0  0  0  0
    1.8233   -2.2889   -2.1581 H   0  0  0  0  0  0
   -2.3057   -0.2044    2.2905 H   0  0  0  0  0  0
   -0.7905    0.5338   -0.1588 H   0  0  0  0  0  0
    2.3484    3.1320    2.2262 H   0  0  0  0  0  0
    2.1192    1.5963    3.1027 H   0  0  0  0  0  0
    4.4221    1.8960    2.0240 H   0  0  0  0  0  0
    3.5555    0.4104    1.5538 H   0  0  0  0  0  0
    2.6261    2.0370   -1.7712 H   0  0  0  0  0  0
    2.3969    0.5014   -0.8947 H   0  0  0  0  0  0
    0.3266    1.7317   -0.6948 H   0  0  0  0  0  0
    1.1903    3.2182   -0.2219 H   0  0  0  0  0  0
   -2.3811    2.2947    1.7587 H   0  0  0  0  0  0
   -1.3426    2.9110    0.4511 H   0  0  0  0  0  0
   -4.4459    1.1257    1.2575 H   0  0  0  0  0  0
   -5.9513    1.3948   -2.7482 H   0  0  0  0  0  0
   -3.7843    2.2901   -3.4911 H   0  0  0  0  0  0
   -1.9591    2.6079   -1.8722 H   0  0  0  0  0  0
    3.6772    2.8616    0.0378 H   0  0  0  0  0  0
   -7.5125    0.7044   -1.9813 H   0  0  0  0  0  0
    3.6928   -3.5687   -1.9616 C   0  0  0  0  0  0
    4.1168   -3.7952    0.3898 C   0  0  0  0  0  0
    3.0867   -5.0544   -0.7706 H   0  0  0  0  0  0
   -1.6284   -3.2055    2.2868 H   0  0  0  0  0  0
   -1.0728   -5.1240    2.2231 C   0  0  0  0  0  0
    0.0074   -3.3499    3.4255 C   0  0  0  0  0  0
    0.3860   -0.8191   -3.0452 C   0  0  0  0  0  0
   -1.8165   -1.5318   -2.4119 C   0  0  0  0  0  0
   -0.6635   -0.2069   -1.4587 H   0  0  0  0  0  0
    4.5394   -3.9555   -2.1515 H   0  0  0  0  0  0
    3.0864   -3.7733   -2.6637 H   0  0  0  0  0  0
    3.7848   -2.6261   -1.8874 H   0  0  0  0  0  0
    4.9634   -4.1820    0.1998 H   0  0  0  0  0  0
    4.2088   -2.8526    0.4640 H   0  0  0  0  0  0
    3.7845   -4.1462    1.2076 H   0  0  0  0  0  0
   -1.5424   -5.3719    3.0108 H   0  0  0  0  0  0
   -1.5984   -5.3366    1.4608 H   0  0  0  0  0  0
   -0.2501   -5.5974    2.1826 H   0  0  0  0  0  0
   -0.4622   -3.5978    4.2132 H   0  0  0  0  0  0
    0.8300   -3.8233    3.3850 H   0  0  0  0  0  0
    0.1800   -2.4158    3.4406 H   0  0  0  0  0  0
    0.0088   -0.1848   -3.6433 H   0  0  0  0  0  0
    1.2188   -0.4946   -2.7233 H   0  0  0  0  0  0
    0.5214   -1.6420   -3.5003 H   0  0  0  0  0  0
   -2.1937   -0.8975   -3.0100 H   0  0  0  0  0  0
   -1.6811   -2.3547   -2.8670 H   0  0  0  0  0  0
   -2.4074   -1.6679   -1.6806 H   0  0  0  0  0  0
    4.7633    1.3694   -0.4822 C   0  0  0  0  0  0
    4.8377    1.1657   -1.7154 O   0  0  0  0  0  0
    5.8215    1.0406    0.2931 O   0  0  0  0  0  0
    7.0301    0.4617   -0.3104 C   0  0  0  0  0  0
    7.6723    0.2907    0.3685 H   0  0  0  0  0  0
    6.8072   -0.3517   -0.7476 H   0  0  0  0  0  0
    7.3920    1.0719   -0.9422 H   0  0  0  0  0  0
  1  2  1  0  0  0
  1 56  1  0  0  0
  1 57  1  0  0  0
  1 58  1  0  0  0
  2  3  1  0  0  0
  2  7  2  0  0  0
  3  4  2  0  0  0
  3 34  1  0  0  0
  4  5  1  0  0  0
  4 35  1  0  0  0
  5  6  2  0  0  0
  5  8  1  0  0  0
  6  7  1  0  0  0
  6 36  1  0  0  0
  7 37  1  0  0  0
  8  9  2  0  0  0
  8 10  2  0  0  0
  8 11  1  0  0  0
 11 12  1  0  0  0
 11 38  1  0  0  0
 12 13  1  0  0  0
 12 21  1  0  0  0
 12 39  1  0  0  0
 13 14  2  0  0  0
 13 15  1  0  0  0
 15 16  1  0  0  0
 15 20  1  0  0  0
 16 17  1  0  0  0
 16 40  1  0  0  0
 16 41  1  0  0  0
 17 18  1  0  0  0
 17 42  1  0  0  0
 17 43  1  0  0  0
 18 19  1  0  0  0
 18 54  1  0  0  0
 18 83  1  0  0  0
 19 20  1  0  0  0
 19 44  1  0  0  0
 19 45  1  0  0  0
 20 46  1  0  0  0
 20 47  1  0  0  0
 21 22  1  0  0  0
 21 48  1  0  0  0
 21 49  1  0  0  0
 22 23  1  0  0  0
 22 27  2  0  0  0
 23 24  2  0  0  0
 23 50  1  0  0  0
 24 25  1  0  0  0
 24 28  1  0  0  0
 25 26  2  0  0  0
 25 51  1  0  0  0
 26 27  1  0  0  0
 26 52  1  0  0  0
 27 53  1  0  0  0
 28 29  1  0  0  0
 28 31  1  0  0  0
 29 30  1  0  0  0
 29 55  1  0  0  0
 31 32  1  0  0  0
 31 33  1  0  0  0
 35 59  1  0  0  0
 35 60  1  0  0  0
 35 61  1  0  0  0
 36 62  1  0  0  0
 36 63  1  0  0  0
 36 64  1  0  0  0
 56 65  1  0  0  0
 56 66  1  0  0  0
 56 67  1  0  0  0
 57 68  1  0  0  0
 57 69  1  0  0  0
 57 70  1  0  0  0
 60 71  1  0  0  0
 60 72  1  0  0  0
 60 73  1  0  0  0
 61 74  1  0  0  0
 61 75  1  0  0  0
 61 76  1  0  0  0
 62 77  1  0  0  0
 62 78  1  0  0  0
 62 79  1  0  0  0
 63 80  1  0  0  0
 63 81  1  0  0  0
 63 82  1  0  0  0
 83 84  2  0  0  0
 83 85  1  0  0  0
 85 86  1  0  0  0
 86 87  1  0  0  0
 86 88  1  0  0  0
 86 89  1  0  0  0
M  CHG  1  28   1
M  END
>  <Activity>
6.824

>  <set>
1

>  <Min_dist>
999.9

>  <Avg_dist>
999.9

$$$$
34
  Cerius2 12110215013D 1   1.00000                          
Structure written by Cerius2 SD Exporter
 69 72  0  0  0  0  0  0  0  0999 V2000
   -1.8961    2.7611   -2.1732 C   0  0  0  0  0  0
   -3.0538    3.4545   -2.3520 C   0  0  0  0  0  0
   -3.5222    4.3323   -1.3767 C   0  0  0  0  0  0
   -2.8359    4.5218   -0.2164 C   0  0  0  0  0  0
   -1.6370    3.8232    0.0041 C   0  0  0  0  0  0
   -0.9006    3.9930    1.1891 C   0  0  0  0  0  0
    0.2568    3.2996    1.3678 C   0  0  0  0  0  0
    0.7254    2.4217    0.3920 C   0  0  0  0  0  0
    0.0394    2.2323   -0.7680 C   0  0  0  0  0  0
   -1.1603    2.9304   -0.9883 C   0  0  0  0  0  0
    2.2291    1.5444    0.6640 S   0  0  0  0  0  0
    2.7059    1.1863   -0.6258 O   0  0  0  0  0  0
    2.9496    2.3023    1.6261 O   0  0  0  0  0  0
    1.8420    0.1188    1.4125 N   0  0  0  0  0  0
    0.9510   -0.8375    0.7508 C   0  0  0  0  0  0
   -0.2684   -1.0634    1.6070 C   0  0  0  0  0  0
   -0.2585   -0.7360    2.7748 O   0  0  0  0  0  0
   -1.3700   -1.6291    1.0751 N   0  0  0  0  0  0
   -2.5419   -1.9177    1.9137 C   0  0  0  0  0  0
   -3.7684   -1.2382    1.2925 C   0  0  0  0  0  0
   -3.9362   -1.7127   -0.2022 C   0  0  0  0  0  0
   -5.1317   -1.4806   -0.7796 C   0  0  0  0  0  0
   -5.2836   -1.6892   -1.9678 O   0  0  0  0  0  0
   -6.1587   -1.0174   -0.0401 N   0  0  0  0  0  0
   -7.5375   -1.3300   -0.4240 C   0  0  0  0  0  0
   -2.6476   -1.2883   -0.9753 C   0  0  0  0  0  0
   -1.4231   -1.9627   -0.3552 C   0  0  0  0  0  0
    1.6858   -2.1644    0.5498 C   0  0  0  0  0  0
    2.8644   -1.9523   -0.3651 C   0  0  0  0  0  0
    4.0941   -1.6159    0.1630 C   0  0  0  0  0  0
    5.1842   -1.4203   -0.6852 C   0  0  0  0  0  0
    5.0233   -1.5665   -2.0636 C   0  0  0  0  0  0
    3.7887   -1.9030   -2.5790 C   0  0  0  0  0  0
    2.7126   -2.1008   -1.7320 C   0  0  0  0  0  0
    6.5055   -1.0590   -0.1257 C   0  3  0  0  0  0
    7.5441   -0.8730   -0.9379 N   0  0  0  0  0  0
    8.4103   -0.6361   -0.5711 H   0  0  0  0  0  0
    7.4346   -0.9744   -1.8963 H   0  0  0  0  0  0
    6.6559   -0.9198    1.1899 N   0  0  0  0  0  0
    7.5221   -0.6830    1.5567 H   0  0  0  0  0  0
   -1.5474    2.0809   -2.9362 H   0  0  0  0  0  0
   -3.6175    3.3225   -3.2637 H   0  0  0  0  0  0
   -4.4433    4.8708   -1.5438 H   0  0  0  0  0  0
   -3.2109    5.2057    0.5306 H   0  0  0  0  0  0
   -1.2511    4.6704    1.9537 H   0  0  0  0  0  0
    0.8207    3.4320    2.2793 H   0  0  0  0  0  0
    0.4151    1.5492   -1.5155 H   0  0  0  0  0  0
    2.2052   -0.0831    2.2889 H   0  0  0  0  0  0
    0.6465   -0.4405   -0.2176 H   0  0  0  0  0  0
   -2.7036   -2.9947    1.9581 H   0  0  0  0  0  0
   -2.3776   -1.5283    2.9184 H   0  0  0  0  0  0
   -4.6729   -1.5945    1.7854 H   0  0  0  0  0  0
   -3.6865   -0.1576    1.4096 H   0  0  0  0  0  0
   -8.2253   -0.8729    0.2874 H   0  0  0  0  0  0
   -7.7343   -0.9389   -1.4222 H   0  0  0  0  0  0
   -7.6788   -2.4108   -0.4230 H   0  0  0  0  0  0
   -2.8119   -1.6777   -1.9800 H   0  0  0  0  0  0
   -2.4859   -0.2113   -1.0197 H   0  0  0  0  0  0
   -0.5194   -1.6055   -0.8490 H   0  0  0  0  0  0
   -1.5032   -3.0436   -0.4705 H   0  0  0  0  0  0
    2.0358   -2.5355    1.5131 H   0  0  0  0  0  0
    1.0069   -2.8919    0.1050 H   0  0  0  0  0  0
    4.2123   -1.5039    1.2306 H   0  0  0  0  0  0
    5.8633   -1.4161   -2.7255 H   0  0  0  0  0  0
    3.6628   -2.0161   -3.6457 H   0  0  0  0  0  0
    1.7481   -2.3641   -2.1404 H   0  0  0  0  0  0
    5.9539   -1.0454    1.7389 H   0  0  0  0  0  0
   -4.0955   -2.6481   -0.2482 H   0  0  0  0  0  0
   -5.9975   -0.5159    0.6897 H   0  0  0  0  0  0
  1  2  1  0  0  0
  1 10  2  0  0  0
  1 41  1  0  0  0
  2  3  2  0  0  0
  2 42  1  0  0  0
  3  4  1  0  0  0
  3 43  1  0  0  0
  4  5  2  0  0  0
  4 44  1  0  0  0
  5  6  1  0  0  0
  5 10  1  0  0  0
  6  7  2  0  0  0
  6 45  1  0  0  0
  7  8  1  0  0  0
  7 46  1  0  0  0
  8  9  2  0  0  0
  8 11  1  0  0  0
  9 10  1  0  0  0
  9 47  1  0  0  0
 11 12  2  0  0  0
 11 13  2  0  0  0
 11 14  1  0  0  0
 14 15  1  0  0  0
 14 48  1  0  0  0
 15 16  1  0  0  0
 15 28  1  0  0  0
 15 49  1  0  0  0
 16 17  2  0  0  0
 16 18  1  0  0  0
 18 19  1  0  0  0
 18 27  1  0  0  0
 19 20  1  0  0  0
 19 50  1  0  0  0
 19 51  1  0  0  0
 20 21  1  0  0  0
 20 52  1  0  0  0
 20 53  1  0  0  0
 21 22  1  0  0  0
 21 26  1  0  0  0
 21 68  1  0  0  0
 22 23  2  0  0  0
 22 24  1  0  0  0
 24 25  1  0  0  0
 24 69  1  0  0  0
 25 54  1  0  0  0
 25 55  1  0  0  0
 25 56  1  0  0  0
 26 27  1  0  0  0
 26 57  1  0  0  0
 26 58  1  0  0  0
 27 59  1  0  0  0
 27 60  1  0  0  0
 28 29  1  0  0  0
 28 61  1  0  0  0
 28 62  1  0  0  0
 29 30  1  0  0  0
 29 34  2  0  0  0
 30 31  2  0  0  0
 30 63  1  0  0  0
 31 32  1  0  0  0
 31 35  1  0  0  0
 32 33  2  0  0  0
 32 64  1  0  0  0
 33 34  1  0  0  0
 33 65  1  0  0  0
 34 66  1  0  0  0
 35 36  1  0  0  0
 35 39  1  0  0  0
 36 37  1  0  0  0
 36 38  1  0  0  0
 39 40  1  0  0  0
 39 67  1  0  0  0
M  CHG  1  35   1
M  END
>  <Activity>
6.796

>  <set>
1

>  <Min_dist>
999.9

>  <Avg_dist>
999.9

$$$$
36
  Cerius2 12110215013D 1   1.00000                          
 
 72 76  0  0  0  0  0  0  0  0999 V2000
    2.1889   -2.9738   -2.3051 C   0  0  0  0  0  0
    3.3845   -3.6045   -2.4661 C   0  0  0  0  0  0
    3.9542   -4.3380   -1.4275 C   0  0  0  0  0  0
    3.3320   -4.4450   -0.2215 C   0  0  0  0  0  0
    2.0967   -3.8075   -0.0176 C   0  0  0  0  0  0
    1.4241   -3.8956    1.2134 C   0  0  0  0  0  0
    0.2289   -3.2650    1.3742 C   0  0  0  0  0  0
   -0.3411   -2.5314    0.3352 C   0  0  0  0  0  0
    0.2809   -2.4244   -0.8705 C   0  0  0  0  0  0
    1.5169   -3.0615   -1.0743 C   0  0  0  0  0  0
   -1.8906   -1.7310    0.5864 S   0  0  0  0  0  0
   -2.4450   -1.5477   -0.7092 O   0  0  0  0  0  0
   -2.5149   -2.4257    1.6573 O   0  0  0  0  0  0
   -1.5750   -0.2100    1.1600 N   0  0  0  0  0  0
   -0.7824    0.7255    0.3581 C   0  0  0  0  0  0
    0.4524    1.1233    1.1249 C   0  0  0  0  0  0
    0.6509    0.6700    2.2322 O   0  0  0  0  0  0
    1.3362    1.9827    0.5802 N   0  0  0  0  0  0
    1.2064    2.4309   -0.8105 C   0  0  0  0  0  0
    2.5547    2.3902   -1.4849 C   0  0  0  0  0  0
    2.5937    2.5435   -2.8643 C   0  0  0  0  0  0
    3.7980    2.5255   -3.5370 C   0  0  0  0  0  0
    4.9748    2.3550   -2.8315 C   0  0  0  0  0  0
    4.9369    2.1985   -1.4619 C   0  0  0  0  0  0
    3.7247    2.2098   -0.7822 C   0  0  0  0  0  0
    3.7587    2.0048    0.7094 C   0  0  0  0  0  0
    2.4670    2.5141    1.3589 C   0  0  0  0  0  0
    2.3825    2.0210    2.7805 C   0  0  0  0  0  0
    2.1060    2.7894    3.6710 O   0  0  0  0  0  0
    2.6144    0.7283    3.0574 O   0  0  0  0  0  0
    2.5329    0.2532    4.4270 C   0  0  0  0  0  0
   -1.6174    1.9710    0.0542 C   0  0  0  0  0  0
   -2.8522    1.5732   -0.7126 C   0  0  0  0  0  0
   -4.0083    1.2457   -0.0341 C   0  0  0  0  0  0
   -5.1506    0.8781   -0.7454 C   0  0  0  0  0  0
   -5.1162    0.8441   -2.1399 C   0  0  0  0  0  0
   -3.9543    1.1737   -2.8065 C   0  0  0  0  0  0
   -2.8261    1.5426   -2.0953 C   0  0  0  0  0  0
   -6.3935    0.5253   -0.0241 C   0  3  0  0  0  0
   -7.4822    0.1748   -0.7058 N   0  0  0  0  0  0
   -8.2970   -0.0565   -0.2329 H   0  0  0  0  0  0
   -7.4606    0.1508   -1.6752 H   0  0  0  0  0  0
   -6.4232    0.5583    1.3067 N   0  0  0  0  0  0
   -7.2379    0.3270    1.7795 H   0  0  0  0  0  0
   -5.6300    0.8136    1.8033 H   0  0  0  0  0  0
    1.7613   -2.4053   -3.1177 H   0  0  0  0  0  0
    3.8990   -3.5355   -3.4131 H   0  0  0  0  0  0
    4.9035   -4.8294   -1.5817 H   0  0  0  0  0  0
    3.7853   -5.0173    0.5744 H   0  0  0  0  0  0
    1.8534   -4.4611    2.0272 H   0  0  0  0  0  0
   -0.2858   -3.3343    2.3212 H   0  0  0  0  0  0
   -0.1732   -1.8531   -1.6667 H   0  0  0  0  0  0
   -1.9148    0.0616    2.0270 H   0  0  0  0  0  0
   -0.4911    0.2464   -0.5766 H   0  0  0  0  0  0
    0.5159    1.7747   -1.3402 H   0  0  0  0  0  0
    0.8225    3.4509   -0.8285 H   0  0  0  0  0  0
    1.6743    2.6775   -3.4148 H   0  0  0  0  0  0
    3.8214    2.6438   -4.6103 H   0  0  0  0  0  0
    5.9212    2.3439   -3.3517 H   0  0  0  0  0  0
    5.8573    2.0660   -0.9126 H   0  0  0  0  0  0
    3.8750    0.9422    0.9226 H   0  0  0  0  0  0
    4.6064    2.5482    1.1267 H   0  0  0  0  0  0
    2.4519    3.6039    1.3444 H   0  0  0  0  0  0
    2.7508   -0.8145    4.4548 H   0  0  0  0  0  0
    3.2577    0.7880    5.0408 H   0  0  0  0  0  0
    1.5291    0.4293    4.8136 H   0  0  0  0  0  0
   -1.9087    2.4501    0.9889 H   0  0  0  0  0  0
   -1.0277    2.6670   -0.5424 H   0  0  0  0  0  0
   -4.0286    1.2736    1.0454 H   0  0  0  0  0  0
   -5.9972    0.5600   -2.6962 H   0  0  0  0  0  0
   -3.9262    1.1475   -3.8858 H   0  0  0  0  0  0
   -1.9188    1.7998   -2.6217 H   0  0  0  0  0  0
  1  2  1  0  0  0
  1 10  2  0  0  0
  1 46  1  0  0  0
  2  3  2  0  0  0
  2 47  1  0  0  0
  3  4  1  0  0  0
  3 48  1  0  0  0
  4  5  2  0  0  0
  4 49  1  0  0  0
  5  6  1  0  0  0
  5 10  1  0  0  0
  6  7  2  0  0  0
  6 50  1  0  0  0
  7  8  1  0  0  0
  7 51  1  0  0  0
  8  9  2  0  0  0
  8 11  1  0  0  0
  9 10  1  0  0  0
  9 52  1  0  0  0
 11 12  2  0  0  0
 11 13  2  0  0  0
 11 14  1  0  0  0
 14 15  1  0  0  0
 14 53  1  0  0  0
 15 16  1  0  0  0
 15 32  1  0  0  0
 15 54  1  0  0  0
 16 17  2  0  0  0
 16 18  1  0  0  0
 18 19  1  0  0  0
 18 27  1  0  0  0
 19 20  1  0  0  0
 19 55  1  0  0  0
 19 56  1  0  0  0
 20 21  1  0  0  0
 20 25  2  0  0  0
 21 22  2  0  0  0
 21 57  1  0  0  0
 22 23  1  0  0  0
 22 58  1  0  0  0
 23 24  2  0  0  0
 23 59  1  0  0  0
 24 25  1  0  0  0
 24 60  1  0  0  0
 25 26  1  0  0  0
 26 27  1  0  0  0
 26 61  1  0  0  0
 26 62  1  0  0  0
 27 28  1  0  0  0
 27 63  1  0  0  0
 28 29  2  0  0  0
 28 30  1  0  0  0
 30 31  1  0  0  0
 31 64  1  0  0  0
 31 65  1  0  0  0
 31 66  1  0  0  0
 32 33  1  0  0  0
 32 67  1  0  0  0
 32 68  1  0  0  0
 33 34  1  0  0  0
 33 38  2  0  0  0
 34 35  2  0  0  0
 34 69  1  0  0  0
 35 36  1  0  0  0
 35 39  1  0  0  0
 36 37  2  0  0  0
 36 70  1  0  0  0
 37 38  1  0  0  0
 37 71  1  0  0  0
 38 72  1  0  0  0
 39 40  1  0  0  0
 39 43  1  0  0  0
 40 41  1  0  0  0
 40 42  1  0  0  0
 43 44  1  0  0  0
 43 45  1  0  0  0
M  CHG  1  39   1
M  END
>  <Activity>
6.699

>  <set>
1

>  <Min_dist>
999.9

>  <Avg_dist>
999.9

$$$$
37
  Cerius2 12110215013D 1   1.00000                          
Structure written by Cerius2 SD Exporter
 78 82  0  0  0  0  0  0  0  0999 V2000
   -1.8961    2.7611   -2.1732 C   0  0  0  0  0  0
   -3.0538    3.4545   -2.3520 C   0  0  0  0  0  0
   -3.5222    4.3323   -1.3767 C   0  0  0  0  0  0
   -2.8359    4.5218   -0.2164 C   0  0  0  0  0  0
   -1.6370    3.8232    0.0041 C   0  0  0  0  0  0
   -0.9006    3.9930    1.1891 C   0  0  0  0  0  0
    0.2568    3.2996    1.3678 C   0  0  0  0  0  0
    0.7254    2.4217    0.3920 C   0  0  0  0  0  0
    0.0394    2.2323   -0.7680 C   0  0  0  0  0  0
   -1.1603    2.9304   -0.9883 C   0  0  0  0  0  0
    2.2291    1.5444    0.6640 S   0  0  0  0  0  0
    2.7059    1.1863   -0.6258 O   0  0  0  0  0  0
    2.9496    2.3023    1.6261 O   0  0  0  0  0  0
    1.8420    0.1188    1.4125 N   0  0  0  0  0  0
    0.9510   -0.8375    0.7508 C   0  0  0  0  0  0
   -0.2684   -1.0634    1.6070 C   0  0  0  0  0  0
   -0.2585   -0.7360    2.7748 O   0  0  0  0  0  0
   -1.3700   -1.6291    1.0751 N   0  0  0  0  0  0
   -2.5419   -1.9177    1.9137 C   0  0  0  0  0  0
   -3.7684   -1.2382    1.2925 C   0  0  0  0  0  0
   -3.9362   -1.7127   -0.2022 C   0  0  0  0  0  0
   -5.1317   -1.4806   -0.7796 C   0  0  0  0  0  0
   -5.2836   -1.6892   -1.9678 O   0  0  0  0  0  0
   -6.1587   -1.0174   -0.0401 O   0  0  0  0  0  0
   -2.6476   -1.2883   -0.9753 C   0  0  0  0  0  0
   -1.4231   -1.9627   -0.3552 C   0  0  0  0  0  0
    1.6858   -2.1644    0.5498 C   0  0  0  0  0  0
    2.8644   -1.9523   -0.3651 C   0  0  0  0  0  0
    4.0941   -1.6159    0.1630 C   0  0  0  0  0  0
    5.1842   -1.4203   -0.6852 C   0  0  0  0  0  0
    5.0233   -1.5665   -2.0636 C   0  0  0  0  0  0
    3.7887   -1.9030   -2.5790 C   0  0  0  0  0  0
    2.7126   -2.1008   -1.7320 C   0  0  0  0  0  0
    6.5055   -1.0590   -0.1257 C   0  3  0  0  0  0
    7.5441   -0.8730   -0.9379 N   0  0  0  0  0  0
    8.4103   -0.6361   -0.5711 H   0  0  0  0  0  0
    7.4346   -0.9744   -1.8963 H   0  0  0  0  0  0
    6.6559   -0.9198    1.1899 N   0  0  0  0  0  0
    7.5221   -0.6830    1.5567 H   0  0  0  0  0  0
   -1.5474    2.0809   -2.9362 H   0  0  0  0  0  0
   -3.6175    3.3225   -3.2637 H   0  0  0  0  0  0
   -4.4433    4.8708   -1.5438 H   0  0  0  0  0  0
   -3.2109    5.2057    0.5306 H   0  0  0  0  0  0
   -1.2511    4.6704    1.9537 H   0  0  0  0  0  0
    0.8207    3.4320    2.2793 H   0  0  0  0  0  0
    0.4151    1.5492   -1.5155 H   0  0  0  0  0  0
    2.2052   -0.0831    2.2889 H   0  0  0  0  0  0
    0.6465   -0.4405   -0.2176 H   0  0  0  0  0  0
   -2.7036   -2.9947    1.9581 H   0  0  0  0  0  0
   -2.3776   -1.5283    2.9184 H   0  0  0  0  0  0
   -4.6729   -1.5945    1.7854 H   0  0  0  0  0  0
   -3.6865   -0.1576    1.4096 H   0  0  0  0  0  0
   -2.8119   -1.6777   -1.9800 H   0  0  0  0  0  0
   -2.4859   -0.2113   -1.0197 H   0  0  0  0  0  0
   -0.5194   -1.6055   -0.8490 H   0  0  0  0  0  0
   -1.5032   -3.0436   -0.4705 H   0  0  0  0  0  0
    2.0358   -2.5355    1.5131 H   0  0  0  0  0  0
    1.0069   -2.8919    0.1050 H   0  0  0  0  0  0
    4.2123   -1.5039    1.2306 H   0  0  0  0  0  0
    5.8633   -1.4161   -2.7255 H   0  0  0  0  0  0
    3.6628   -2.0161   -3.6457 H   0  0  0  0  0  0
    1.7481   -2.3641   -2.1404 H   0  0  0  0  0  0
    5.9539   -1.0454    1.7389 H   0  0  0  0  0  0
   -4.0955   -2.6481   -0.2482 H   0  0  0  0  0  0
   -8.3931   -0.8094   -0.0273 C   0  0  0  0  0  0
   -7.2434   -0.8625   -0.8248 C   0  0  0  0  0  0
   -9.6462   -0.6255   -0.6138 C   0  0  0  0  0  0
  -10.7942   -0.5651    0.1878 C   0  0  0  0  0  0
  -10.6813   -0.6872    1.5783 C   0  0  0  0  0  0
   -9.4256   -0.8703    2.1659 C   0  0  0  0  0  0
   -8.2782   -0.9314    1.3648 C   0  0  0  0  0  0
   -7.3076   -1.5965   -1.4245 H   0  0  0  0  0  0
   -7.1636   -0.0554   -1.3196 H   0  0  0  0  0  0
   -9.7215   -0.5413   -1.5571 H   0  0  0  0  0  0
  -11.6470   -0.4415   -0.2123 H   0  0  0  0  0  0
  -11.4583   -0.6457    2.1234 H   0  0  0  0  0  0
   -9.3502   -0.9533    3.1093 H   0  0  0  0  0  0
   -7.4240   -1.0551    1.7619 H   0  0  0  0  0  0
  1  2  1  0  0  0
  1 10  2  0  0  0
  1 40  1  0  0  0
  2  3  2  0  0  0
  2 41  1  0  0  0
  3  4  1  0  0  0
  3 42  1  0  0  0
  4  5  2  0  0  0
  4 43  1  0  0  0
  5  6  1  0  0  0
  5 10  1  0  0  0
  6  7  2  0  0  0
  6 44  1  0  0  0
  7  8  1  0  0  0
  7 45  1  0  0  0
  8  9  2  0  0  0
  8 11  1  0  0  0
  9 10  1  0  0  0
  9 46  1  0  0  0
 11 12  2  0  0  0
 11 13  2  0  0  0
 11 14  1  0  0  0
 14 15  1  0  0  0
 14 47  1  0  0  0
 15 16  1  0  0  0
 15 27  1  0  0  0
 15 48  1  0  0  0
 16 17  2  0  0  0
 16 18  1  0  0  0
 18 19  1  0  0  0
 18 26  1  0  0  0
 19 20  1  0  0  0
 19 49  1  0  0  0
 19 50  1  0  0  0
 20 21  1  0  0  0
 20 51  1  0  0  0
 20 52  1  0  0  0
 21 22  1  0  0  0
 21 25  1  0  0  0
 21 64  1  0  0  0
 22 23  2  0  0  0
 22 24  1  0  0  0
 24 66  1  0  0  0
 25 26  1  0  0  0
 25 53  1  0  0  0
 25 54  1  0  0  0
 26 55  1  0  0  0
 26 56  1  0  0  0
 27 28  1  0  0  0
 27 57  1  0  0  0
 27 58  1  0  0  0
 28 29  1  0  0  0
 28 33  2  0  0  0
 29 30  2  0  0  0
 29 59  1  0  0  0
 30 31  1  0  0  0
 30 34  1  0  0  0
 31 32  2  0  0  0
 31 60  1  0  0  0
 32 33  1  0  0  0
 32 61  1  0  0  0
 33 62  1  0  0  0
 34 35  1  0  0  0
 34 38  1  0  0  0
 35 36  1  0  0  0
 35 37  1  0  0  0
 38 39  1  0  0  0
 38 63  1  0  0  0
 65 66  1  0  0  0
 65 67  1  0  0  0
 65 71  2  0  0  0
 66 72  1  0  0  0
 66 73  1  0  0  0
 67 68  2  0  0  0
 67 74  1  0  0  0
 68 69  1  0  0  0
 68 75  1  0  0  0
 69 70  2  0  0  0
 69 76  1  0  0  0
 70 71  1  0  0  0
 70 77  1  0  0  0
 71 78  1  0  0  0
M  CHG  1  34   1
M  END
>  <Activity>
6.678

>  <set>
1

>  <Min_dist>
999.9

>  <Avg_dist>
999.9

$$$$
38
  Cerius2 12110215013D 1   1.00000                          
 
 62 65  0  0  0  0  0  0  0  0999 V2000
    2.0259    2.4312   -1.2328 C   0  0  0  0  0  0
    3.0467    2.7973   -2.0556 C   0  0  0  0  0  0
    4.3508    2.9039   -1.5770 C   0  0  0  0  0  0
    4.6421    2.6451   -0.2727 C   0  0  0  0  0  0
    3.6146    2.2646    0.6068 C   0  0  0  0  0  0
    2.2879    2.1561    0.1198 C   0  0  0  0  0  0
    1.2600    1.7758    0.9998 C   0  0  0  0  0  0
    1.5512    1.5175    2.3038 C   0  0  0  0  0  0
    2.8557    1.6247    2.7827 C   0  0  0  0  0  0
    3.8765    1.9897    1.9600 C   0  0  0  0  0  0
   -0.3971    1.6347    0.4176 S   0  0  0  0  0  0
   -1.1577    1.1738    1.5259 O   0  0  0  0  0  0
   -0.6511    2.8247   -0.3163 O   0  0  0  0  0  0
   -0.4291    0.4061   -0.6922 N   0  0  0  0  0  0
   -0.1539   -0.9696   -0.2702 C   0  0  0  0  0  0
    1.1243   -1.4455   -0.9111 C   0  0  0  0  0  0
    1.5043   -0.9469   -1.9494 O   0  0  0  0  0  0
    1.8451   -2.4252   -0.3306 N   0  0  0  0  0  0
    1.3428   -3.1162    0.8648 C   0  0  0  0  0  0
    1.3552   -4.6257    0.6034 C   0  0  0  0  0  0
    2.7605   -5.0534    0.1741 C   0  0  0  0  0  0
    3.1401   -4.3355   -1.1231 C   0  0  0  0  0  0
    3.1453   -2.8266   -0.8846 C   0  0  0  0  0  0
   -1.3088   -1.8759   -0.7012 C   0  0  0  0  0  0
   -2.5870   -1.4000   -0.0603 C   0  0  0  0  0  0
   -3.3777   -0.4722   -0.7072 C   0  0  0  0  0  0
   -4.5608   -0.0331   -0.1127 C   0  0  0  0  0  0
   -4.9369   -0.5357    1.1335 C   0  0  0  0  0  0
   -4.1378   -1.4627    1.7698 C   0  0  0  0  0  0
   -2.9681   -1.8982    1.1725 C   0  0  0  0  0  0
   -5.4131    0.9619   -0.8006 C   0  3  0  0  0  0
   -6.5418    1.3791   -0.2307 N   0  0  0  0  0  0
   -7.1005    2.0313   -0.6816 H   0  0  0  0  0  0
   -6.8053    1.0309    0.6354 H   0  0  0  0  0  0
   -5.0513    1.4399   -1.9895 N   0  0  0  0  0  0
   -5.6100    2.0921   -2.4404 H   0  0  0  0  0  0
   -4.2290    1.1359   -2.4047 H   0  0  0  0  0  0
    1.0192    2.3569   -1.6168 H   0  0  0  0  0  0
    2.8426    3.0079   -3.0950 H   0  0  0  0  0  0
    5.1426    3.1960   -2.2510 H   0  0  0  0  0  0
    5.6578    2.7316    0.0842 H   0  0  0  0  0  0
    0.7594    1.2255    2.9778 H   0  0  0  0  0  0
    3.0596    1.4144    3.8222 H   0  0  0  0  0  0
    4.8824    2.0686    2.3452 H   0  0  0  0  0  0
   -0.6300    0.5973   -1.6217 H   0  0  0  0  0  0
   -0.0510   -1.0032    0.8144 H   0  0  0  0  0  0
    1.9843   -2.8875    1.7158 H   0  0  0  0  0  0
    0.3241   -2.7901    1.0744 H   0  0  0  0  0  0
    1.0763   -5.1549    1.5146 H   0  0  0  0  0  0
    0.6447   -4.8637   -0.1882 H   0  0  0  0  0  0
    3.4741   -4.7927    0.9556 H   0  0  0  0  0  0
    2.7782   -6.1311    0.0112 H   0  0  0  0  0  0
    4.1315   -4.6583   -1.4408 H   0  0  0  0  0  0
    2.4128   -4.5763   -1.8984 H   0  0  0  0  0  0
    3.3178   -2.3082   -1.8278 H   0  0  0  0  0  0
    3.9330   -2.5715   -0.1757 H   0  0  0  0  0  0
   -1.4118   -1.8423   -1.7858 H   0  0  0  0  0  0
   -1.1041   -2.8994   -0.3873 H   0  0  0  0  0  0
   -3.0810   -0.0867   -1.6714 H   0  0  0  0  0  0
   -5.8516   -0.1993    1.5990 H   0  0  0  0  0  0
   -4.4276   -1.8522    2.7346 H   0  0  0  0  0  0
   -2.3458   -2.6241    1.6748 H   0  0  0  0  0  0
  1  2  1  0  0  0
  1  6  2  0  0  0
  1 38  1  0  0  0
  2  3  2  0  0  0
  2 39  1  0  0  0
  3  4  1  0  0  0
  3 40  1  0  0  0
  4  5  2  0  0  0
  4 41  1  0  0  0
  5  6  1  0  0  0
  5 10  1  0  0  0
  6  7  1  0  0  0
  7  8  2  0  0  0
  7 11  1  0  0  0
  8  9  1  0  0  0
  8 42  1  0  0  0
  9 10  2  0  0  0
  9 43  1  0  0  0
 10 44  1  0  0  0
 11 12  2  0  0  0
 11 13  2  0  0  0
 11 14  1  0  0  0
 14 15  1  0  0  0
 14 45  1  0  0  0
 15 16  1  0  0  0
 15 24  1  0  0  0
 15 46  1  0  0  0
 16 17  2  0  0  0
 16 18  1  0  0  0
 18 19  1  0  0  0
 18 23  1  0  0  0
 19 20  1  0  0  0
 19 47  1  0  0  0
 19 48  1  0  0  0
 20 21  1  0  0  0
 20 49  1  0  0  0
 20 50  1  0  0  0
 21 22  1  0  0  0
 21 51  1  0  0  0
 21 52  1  0  0  0
 22 23  1  0  0  0
 22 53  1  0  0  0
 22 54  1  0  0  0
 23 55  1  0  0  0
 23 56  1  0  0  0
 24 25  1  0  0  0
 24 57  1  0  0  0
 24 58  1  0  0  0
 25 26  1  0  0  0
 25 30  2  0  0  0
 26 27  2  0  0  0
 26 59  1  0  0  0
 27 28  1  0  0  0
 27 31  1  0  0  0
 28 29  2  0  0  0
 28 60  1  0  0  0
 29 30  1  0  0  0
 29 61  1  0  0  0
 30 62  1  0  0  0
 31 32  1  0  0  0
 31 35  1  0  0  0
 32 33  1  0  0  0
 32 34  1  0  0  0
 35 36  1  0  0  0
 35 37  1  0  0  0
M  CHG  1  31   1
M  END
>  <Activity>
6.638

>  <set>
1

>  <Min_dist>
999.9

>  <Avg_dist>
999.9

$$$$
40
  Cerius2 12110215013D 1   1.00000                          
 
 64 67  0  0  0  0  0  0  0  0999 V2000
   -3.0774    2.8532   -1.4723 C   0  0  0  0  0  0
   -4.4082    3.0353   -1.6930 C   0  0  0  0  0  0
   -5.3533    2.6312   -0.7523 C   0  0  0  0  0  0
   -4.9733    2.0422    0.4146 C   0  0  0  0  0  0
   -3.6084    1.8372    0.6776 C   0  0  0  0  0  0
   -3.1777    1.2329    1.8712 C   0  0  0  0  0  0
   -1.8472    1.0508    2.0917 C   0  0  0  0  0  0
   -0.9018    1.4553    1.1508 C   0  0  0  0  0  0
   -1.2816    2.0441   -0.0158 C   0  0  0  0  0  0
   -2.6469    2.2486   -0.2792 C   0  0  0  0  0  0
    0.8109    1.2009    1.4770 S   0  0  0  0  0  0
    1.5059    2.0597    0.5833 O   0  0  0  0  0  0
    0.9397    1.2085    2.8922 O   0  0  0  0  0  0
    1.1822   -0.3407    0.9997 N   0  0  0  0  0  0
    1.0953   -0.7104   -0.4153 C   0  0  0  0  0  0
    2.4439   -0.5344   -1.0642 C   0  0  0  0  0  0
    2.5199   -0.1258   -2.2036 O   0  0  0  0  0  0
    3.5656   -0.8310   -0.3784 N   0  0  0  0  0  0
    4.8587   -0.2559   -0.7735 C   0  0  0  0  0  0
    4.6476    0.7564   -1.8697 C   0  0  0  0  0  0
    3.8226    1.6289   -1.7356 O   0  0  0  0  0  0
    5.3761    0.6888   -2.9951 O   0  5  0  0  0  0
    5.4863    0.4293    0.4444 C   0  0  0  0  0  0
    5.5698   -0.5702    1.6004 C   0  0  0  0  0  0
    4.1612   -1.0333    1.9793 C   0  0  0  0  0  0
    3.5176   -1.7307    0.7821 C   0  0  0  0  0  0
    0.6586   -2.1719   -0.5347 C   0  0  0  0  0  0
   -0.7453   -2.3213   -0.0079 C   0  0  0  0  0  0
   -1.8173   -2.2457   -0.8736 C   0  0  0  0  0  0
   -3.1162   -2.3848   -0.3845 C   0  0  0  0  0  0
   -3.3229   -2.5996    0.9787 C   0  0  0  0  0  0
   -2.2429   -2.6732    1.8338 C   0  0  0  0  0  0
   -0.9566   -2.5398    1.3416 C   0  0  0  0  0  0
   -4.2702   -2.3042   -1.3072 C   0  3  0  0  0  0
   -5.5109   -2.3167   -0.8242 N   0  0  0  0  0  0
   -6.2673   -2.3424   -1.4309 H   0  0  0  0  0  0
   -5.6584   -2.3000    0.1344 H   0  0  0  0  0  0
   -4.0678   -2.2194   -2.6204 N   0  0  0  0  0  0
   -4.8243   -2.1666   -3.2253 H   0  0  0  0  0  0
   -3.1639   -2.2103   -2.9723 H   0  0  0  0  0  0
   -2.3564    3.1677   -2.2123 H   0  0  0  0  0  0
   -4.7364    3.5003   -2.6108 H   0  0  0  0  0  0
   -6.4031    2.7880   -0.9518 H   0  0  0  0  0  0
   -5.7171    1.7345    1.1347 H   0  0  0  0  0  0
   -3.8988    0.9151    2.6097 H   0  0  0  0  0  0
   -1.5189    0.5863    3.0098 H   0  0  0  0  0  0
   -0.5378    2.3530   -0.7353 H   0  0  0  0  0  0
    1.4573   -0.9990    1.6569 H   0  0  0  0  0  0
    0.3661   -0.0715   -0.9135 H   0  0  0  0  0  0
    5.5174   -1.0481   -1.1295 H   0  0  0  0  0  0
    6.4879    0.7764    0.1906 H   0  0  0  0  0  0
    4.8708    1.2785    0.7414 H   0  0  0  0  0  0
    6.1648   -1.4306    1.2942 H   0  0  0  0  0  0
    6.0385   -0.0923    2.4606 H   0  0  0  0  0  0
    4.2196   -1.7272    2.8178 H   0  0  0  0  0  0
    3.5582   -0.1704    2.2618 H   0  0  0  0  0  0
    2.4809   -1.9738    1.0149 H   0  0  0  0  0  0
    4.0667   -2.6439    0.5527 H   0  0  0  0  0  0
    0.6884   -2.4756   -1.5811 H   0  0  0  0  0  0
    1.3334   -2.8012    0.0457 H   0  0  0  0  0  0
   -1.6509   -2.0789   -1.9276 H   0  0  0  0  0  0
   -4.3262   -2.7077    1.3635 H   0  0  0  0  0  0
   -2.4015   -2.8391    2.8892 H   0  0  0  0  0  0
   -0.1143   -2.5981    2.0151 H   0  0  0  0  0  0
  1  2  1  0  0  0
  1 10  2  0  0  0
  1 41  1  0  0  0
  2  3  2  0  0  0
  2 42  1  0  0  0
  3  4  1  0  0  0
  3 43  1  0  0  0
  4  5  2  0  0  0
  4 44  1  0  0  0
  5  6  1  0  0  0
  5 10  1  0  0  0
  6  7  2  0  0  0
  6 45  1  0  0  0
  7  8  1  0  0  0
  7 46  1  0  0  0
  8  9  2  0  0  0
  8 11  1  0  0  0
  9 10  1  0  0  0
  9 47  1  0  0  0
 11 12  2  0  0  0
 11 13  2  0  0  0
 11 14  1  0  0  0
 14 15  1  0  0  0
 14 48  1  0  0  0
 15 16  1  0  0  0
 15 27  1  0  0  0
 15 49  1  0  0  0
 16 17  2  0  0  0
 16 18  1  0  0  0
 18 19  1  0  0  0
 18 26  1  0  0  0
 19 20  1  0  0  0
 19 23  1  0  0  0
 19 50  1  0  0  0
 20 21  2  0  0  0
 20 22  1  0  0  0
 23 24  1  0  0  0
 23 51  1  0  0  0
 23 52  1  0  0  0
 24 25  1  0  0  0
 24 53  1  0  0  0
 24 54  1  0  0  0
 25 26  1  0  0  0
 25 55  1  0  0  0
 25 56  1  0  0  0
 26 57  1  0  0  0
 26 58  1  0  0  0
 27 28  1  0  0  0
 27 59  1  0  0  0
 27 60  1  0  0  0
 28 29  1  0  0  0
 28 33  2  0  0  0
 29 30  2  0  0  0
 29 61  1  0  0  0
 30 31  1  0  0  0
 30 34  1  0  0  0
 31 32  2  0  0  0
 31 62  1  0  0  0
 32 33  1  0  0  0
 32 63  1  0  0  0
 33 64  1  0  0  0
 34 35  1  0  0  0
 34 38  1  0  0  0
 35 36  1  0  0  0
 35 37  1  0  0  0
 38 39  1  0  0  0
 38 40  1  0  0  0
M  CHG  2  22  -1  34   1
M  END
>  <Activity>
6.585

>  <set>
1

>  <Min_dist>
999.9

>  <Avg_dist>
999.9

$$$$
41
  Cerius2 12110215013D 1   1.00000                          
 
 51 53  0  0  0  0  0  0  0  0999 V2000
   -4.0061    1.6396   -1.6962 C   0  0  0  0  0  0
   -5.3562    1.7469   -1.8336 C   0  0  0  0  0  0
   -6.2105    1.4593   -0.7712 C   0  0  0  0  0  0
   -5.7200    1.0623    0.4350 C   0  0  0  0  0  0
   -4.3319    0.9396    0.6146 C   0  0  0  0  0  0
   -3.7883    0.5330    1.8452 C   0  0  0  0  0  0
   -2.4386    0.4256    1.9825 C   0  0  0  0  0  0
   -1.5840    0.7136    0.9198 C   0  0  0  0  0  0
   -2.0743    1.1106   -0.2861 C   0  0  0  0  0  0
   -3.4628    1.2326   -0.4661 C   0  0  0  0  0  0
    0.1575    0.5621    1.1411 S   0  0  0  0  0  0
    0.7464    1.3916    0.1490 O   0  0  0  0  0  0
    0.3796    0.6692    2.5405 O   0  0  0  0  0  0
    0.5748   -0.9886    0.7367 N   0  0  0  0  0  0
    0.3121   -1.4891   -0.6149 C   0  0  0  0  0  0
   -0.6066   -2.6813   -0.5393 C   0  0  0  0  0  0
   -1.3664   -2.9170   -1.4487 O   0  0  0  0  0  0
   -0.5807   -3.4813    0.5382 O   0  0  0  0  0  0
   -1.4659   -4.6300    0.6110 C   0  0  0  0  0  0
    1.6311   -1.9024   -1.2710 C   0  0  0  0  0  0
    2.5498   -0.7102   -1.3465 C   0  0  0  0  0  0
    3.4170   -0.4423   -0.3071 C   0  0  0  0  0  0
    4.2671    0.6614   -0.3788 C   0  0  0  0  0  0
    4.2345    1.4879   -1.5026 C   0  0  0  0  0  0
    3.3629    1.2093   -2.5350 C   0  0  0  0  0  0
    2.5260    0.1100   -2.4602 C   0  0  0  0  0  0
    5.1992    0.9547    0.7323 C   0  3  0  0  0  0
    6.0093    2.0089    0.6610 N   0  0  0  0  0  0
    6.6203    2.2012    1.3894 H   0  0  0  0  0  0
    5.9886    2.5846   -0.1194 H   0  0  0  0  0  0
    5.2277    0.1644    1.8035 N   0  0  0  0  0  0
    5.8387    0.3567    2.5320 H   0  0  0  0  0  0
    4.6375   -0.6036    1.8555 H   0  0  0  0  0  0
   -3.3563    1.8619   -2.5297 H   0  0  0  0  0  0
   -5.7713    2.0601   -2.7802 H   0  0  0  0  0  0
   -7.2779    1.5532   -0.9065 H   0  0  0  0  0  0
   -6.3943    0.8430    1.2496 H   0  0  0  0  0  0
   -4.4382    0.3072    2.6777 H   0  0  0  0  0  0
   -2.0234    0.1130    2.9292 H   0  0  0  0  0  0
   -1.3999    1.3310   -1.1003 H   0  0  0  0  0  0
    0.9932   -1.5656    1.3947 H   0  0  0  0  0  0
   -0.1585   -0.7048   -1.2077 H   0  0  0  0  0  0
   -1.3028   -5.1553    1.5521 H   0  0  0  0  0  0
   -2.5016   -4.2946    0.5568 H   0  0  0  0  0  0
   -1.2578   -5.3024   -0.2212 H   0  0  0  0  0  0
    2.1017   -2.6868   -0.6782 H   0  0  0  0  0  0
    1.4356   -2.2748   -2.2766 H   0  0  0  0  0  0
    3.4373   -1.0856    0.5602 H   0  0  0  0  0  0
    4.8899    2.3441   -1.5639 H   0  0  0  0  0  0
    3.3365    1.8485   -3.4052 H   0  0  0  0  0  0
    1.8454   -0.1039   -3.2710 H   0  0  0  0  0  0
  1  2  1  0  0  0
  1 10  2  0  0  0
  1 34  1  0  0  0
  2  3  2  0  0  0
  2 35  1  0  0  0
  3  4  1  0  0  0
  3 36  1  0  0  0
  4  5  2  0  0  0
  4 37  1  0  0  0
  5  6  1  0  0  0
  5 10  1  0  0  0
  6  7  2  0  0  0
  6 38  1  0  0  0
  7  8  1  0  0  0
  7 39  1  0  0  0
  8  9  2  0  0  0
  8 11  1  0  0  0
  9 10  1  0  0  0
  9 40  1  0  0  0
 11 12  2  0  0  0
 11 13  2  0  0  0
 11 14  1  0  0  0
 14 15  1  0  0  0
 14 41  1  0  0  0
 15 16  1  0  0  0
 15 20  1  0  0  0
 15 42  1  0  0  0
 16 17  2  0  0  0
 16 18  1  0  0  0
 18 19  1  0  0  0
 19 43  1  0  0  0
 19 44  1  0  0  0
 19 45  1  0  0  0
 20 21  1  0  0  0
 20 46  1  0  0  0
 20 47  1  0  0  0
 21 22  1  0  0  0
 21 26  2  0  0  0
 22 23  2  0  0  0
 22 48  1  0  0  0
 23 24  1  0  0  0
 23 27  1  0  0  0
 24 25  2  0  0  0
 24 49  1  0  0  0
 25 26  1  0  0  0
 25 50  1  0  0  0
 26 51  1  0  0  0
 27 28  1  0  0  0
 27 31  1  0  0  0
 28 29  1  0  0  0
 28 30  1  0  0  0
 31 32  1  0  0  0
 31 33  1  0  0  0
M  CHG  1  27   1
M  END
>  <Activity>
6.553

>  <set>
1

>  <Min_dist>
999.9

>  <Avg_dist>
999.9

$$$$
42
  Cerius2 12110215013D 1   1.00000                          
 
 79 83  0  0  0  0  0  0  0  0999 V2000
   -1.9183    1.9314   -1.7897 C   0  0  0  0  0  0
   -3.0824    2.6310   -1.8823 C   0  0  0  0  0  0
   -3.1652    3.9481   -1.4357 C   0  0  0  0  0  0
   -2.0846    4.5736   -0.8933 C   0  0  0  0  0  0
   -0.8660    3.8835   -0.7808 C   0  0  0  0  0  0
    0.2713    4.4960   -0.2270 C   0  0  0  0  0  0
    1.4350    3.7966   -0.1344 C   0  0  0  0  0  0
    1.5180    2.4790   -0.5814 C   0  0  0  0  0  0
    0.4377    1.8536   -1.1236 C   0  0  0  0  0  0
   -0.7816    2.5436   -1.2355 C   0  0  0  0  0  0
    3.0446    1.6102   -0.4430 S   0  0  0  0  0  0
    2.9868    0.5715   -1.4109 O   0  0  0  0  0  0
    4.0521    2.6095   -0.3682 O   0  0  0  0  0  0
    3.0517    0.8530    1.0297 N   0  0  0  0  0  0
    2.0161   -0.1318    1.3519 C   0  0  0  0  0  0
    1.2478    0.3257    2.5650 C   0  0  0  0  0  0
    1.7185    1.1693    3.2982 O   0  0  0  0  0  0
    0.0377   -0.2028    2.8351 N   0  0  0  0  0  0
   -0.5855   -1.1581    1.9091 C   0  0  0  0  0  0
   -1.9887   -0.6566    1.5538 C   0  0  0  0  0  0
   -2.7824   -0.4196    2.8407 C   0  0  0  0  0  0
   -2.0852    0.6519    3.6820 C   0  0  0  0  0  0
   -0.6805    0.1610    4.0641 C   0  0  0  0  0  0
   -2.6933   -1.6885    0.7112 C   0  0  0  0  0  0
   -2.1300   -2.7230    0.4226 O   0  0  0  0  0  0
   -3.9493   -1.4616    0.2783 N   0  0  0  0  0  0
   -4.6342   -2.4646   -0.5409 C   0  0  0  0  0  0
   -6.0145   -1.9707   -0.8900 C   0  0  0  0  0  0
   -6.2134   -1.2314   -2.0410 C   0  0  0  0  0  0
   -7.4795   -0.7783   -2.3612 C   0  0  0  0  0  0
   -8.5468   -1.0649   -1.5307 C   0  0  0  0  0  0
   -8.3480   -1.8049   -0.3802 C   0  0  0  0  0  0
   -7.0826   -2.2617   -0.0622 C   0  0  0  0  0  0
    2.6708   -1.4837    1.6428 C   0  0  0  0  0  0
    3.3270   -2.0040    0.3899 C   0  0  0  0  0  0
    4.6419   -1.6855    0.1181 C   0  0  0  0  0  0
    5.2479   -2.1683   -1.0418 C   0  0  0  0  0  0
    4.5193   -2.9711   -1.9204 C   0  0  0  0  0  0
    3.2056   -3.2824   -1.6372 C   0  0  0  0  0  0
    2.6117   -2.8047   -0.4823 C   0  0  0  0  0  0
    6.6573   -1.8302   -1.3397 C   0  3  0  0  0  0
    7.2331   -2.2925   -2.4476 N   0  0  0  0  0  0
    8.1570   -2.0709   -2.6429 H   0  0  0  0  0  0
    6.7285   -2.8510   -3.0596 H   0  0  0  0  0  0
    7.3498   -1.0636   -0.4997 N   0  0  0  0  0  0
    8.2738   -0.8419   -0.6949 H   0  0  0  0  0  0
    6.9304   -0.7267    0.3075 H   0  0  0  0  0  0
   -1.8700    0.9097   -2.1363 H   0  0  0  0  0  0
   -3.9547    2.1580   -2.3087 H   0  0  0  0  0  0
   -4.1007    4.4810   -1.5213 H   0  0  0  0  0  0
   -2.1636    5.5951   -0.5517 H   0  0  0  0  0  0
    0.2221    5.5166    0.1230 H   0  0  0  0  0  0
    2.3075    4.2696    0.2916 H   0  0  0  0  0  0
    0.5170    0.8325   -1.4664 H   0  0  0  0  0  0
    3.7414    1.0616    1.6790 H   0  0  0  0  0  0
    1.3348   -0.2324    0.5070 H   0  0  0  0  0  0
    0.0157   -1.2341    1.0030 H   0  0  0  0  0  0
   -0.6567   -2.1358    2.3858 H   0  0  0  0  0  0
   -1.9112    0.2772    0.9970 H   0  0  0  0  0  0
   -3.7894   -0.0862    2.5900 H   0  0  0  0  0  0
   -2.8384   -1.3480    3.4090 H   0  0  0  0  0  0
   -2.0067    1.5734    3.1051 H   0  0  0  0  0  0
   -2.6634    0.8370    4.5873 H   0  0  0  0  0  0
   -0.7622   -0.7082    4.7168 H   0  0  0  0  0  0
   -0.1424    0.9573    4.5783 H   0  0  0  0  0  0
   -4.3998   -0.6341    0.5091 H   0  0  0  0  0  0
   -4.0671   -2.6352   -1.4560 H   0  0  0  0  0  0
   -4.7125   -3.3976    0.0173 H   0  0  0  0  0  0
   -5.3796   -1.0075   -2.6899 H   0  0  0  0  0  0
   -7.6348   -0.2001   -3.2601 H   0  0  0  0  0  0
   -9.5358   -0.7103   -1.7806 H   0  0  0  0  0  0
   -9.1817   -2.0285    0.2688 H   0  0  0  0  0  0
   -6.9273   -2.8399    0.8367 H   0  0  0  0  0  0
    3.4221   -1.3631    2.4233 H   0  0  0  0  0  0
    1.9113   -2.1911    1.9759 H   0  0  0  0  0  0
    5.2004   -1.0634    0.8018 H   0  0  0  0  0  0
    4.9829   -3.3477   -2.8202 H   0  0  0  0  0  0
    2.6405   -3.9034   -2.3166 H   0  0  0  0  0  0
    1.5829   -3.0511   -0.2651 H   0  0  0  0  0  0
  1  2  1  0  0  0
  1 10  2  0  0  0
  1 48  1  0  0  0
  2  3  2  0  0  0
  2 49  1  0  0  0
  3  4  1  0  0  0
  3 50  1  0  0  0
  4  5  2  0  0  0
  4 51  1  0  0  0
  5  6  1  0  0  0
  5 10  1  0  0  0
  6  7  2  0  0  0
  6 52  1  0  0  0
  7  8  1  0  0  0
  7 53  1  0  0  0
  8  9  2  0  0  0
  8 11  1  0  0  0
  9 10  1  0  0  0
  9 54  1  0  0  0
 11 12  2  0  0  0
 11 13  2  0  0  0
 11 14  1  0  0  0
 14 15  1  0  0  0
 14 55  1  0  0  0
 15 16  1  0  0  0
 15 34  1  0  0  0
 15 56  1  0  0  0
 16 17  2  0  0  0
 16 18  1  0  0  0
 18 19  1  0  0  0
 18 23  1  0  0  0
 19 20  1  0  0  0
 19 57  1  0  0  0
 19 58  1  0  0  0
 20 21  1  0  0  0
 20 24  1  0  0  0
 20 59  1  0  0  0
 21 22  1  0  0  0
 21 60  1  0  0  0
 21 61  1  0  0  0
 22 23  1  0  0  0
 22 62  1  0  0  0
 22 63  1  0  0  0
 23 64  1  0  0  0
 23 65  1  0  0  0
 24 25  2  0  0  0
 24 26  1  0  0  0
 26 27  1  0  0  0
 26 66  1  0  0  0
 27 28  1  0  0  0
 27 67  1  0  0  0
 27 68  1  0  0  0
 28 29  1  0  0  0
 28 33  2  0  0  0
 29 30  2  0  0  0
 29 69  1  0  0  0
 30 31  1  0  0  0
 30 70  1  0  0  0
 31 32  2  0  0  0
 31 71  1  0  0  0
 32 33  1  0  0  0
 32 72  1  0  0  0
 33 73  1  0  0  0
 34 35  1  0  0  0
 34 74  1  0  0  0
 34 75  1  0  0  0
 35 36  1  0  0  0
 35 40  2  0  0  0
 36 37  2  0  0  0
 36 76  1  0  0  0
 37 38  1  0  0  0
 37 41  1  0  0  0
 38 39  2  0  0  0
 38 77  1  0  0  0
 39 40  1  0  0  0
 39 78  1  0  0  0
 40 79  1  0  0  0
 41 42  1  0  0  0
 41 45  1  0  0  0
 42 43  1  0  0  0
 42 44  1  0  0  0
 45 46  1  0  0  0
 45 47  1  0  0  0
M  CHG  1  41   1
M  END
>  <Activity>
6.553

>  <set>
1

>  <Min_dist>
999.9

>  <Avg_dist>
999.9

$$$$
43
  Cerius2 12110215013D 1   1.00000                          
 
 69 73  0  0  0  0  0  0  0  0999 V2000
   -2.6336    2.9259   -2.0362 C   0  0  0  0  0  0
   -3.8805    3.4591   -2.1550 C   0  0  0  0  0  0
   -4.5565    3.9576   -1.0433 C   0  0  0  0  0  0
   -3.9899    3.9256    0.1940 C   0  0  0  0  0  0
   -2.7043    3.3824    0.3560 C   0  0  0  0  0  0
   -2.0865    3.3326    1.6175 C   0  0  0  0  0  0
   -0.8400    2.7995    1.7361 C   0  0  0  0  0  0
   -0.1637    2.3011    0.6240 C   0  0  0  0  0  0
   -0.7301    2.3330   -0.6130 C   0  0  0  0  0  0
   -2.0164    2.8756   -0.7750 C   0  0  0  0  0  0
    1.4491    1.6199    0.8226 S   0  0  0  0  0  0
    2.0631    1.7022   -0.4563 O   0  0  0  0  0  0
    1.9632    2.1873    2.0197 O   0  0  0  0  0  0
    1.2691    0.0031    1.1321 N   0  0  0  0  0  0
    0.6028   -0.8602    0.1539 C   0  0  0  0  0  0
   -0.6906   -1.3717    0.7339 C   0  0  0  0  0  0
   -0.8136   -1.4853    1.9351 O   0  0  0  0  0  0
   -1.7108   -1.7028   -0.0822 N   0  0  0  0  0  0
   -3.0353   -2.1423    0.3256 C   0  0  0  0  0  0
   -3.1546   -2.9052    1.6281 C   0  0  0  0  0  0
   -4.6453   -3.2156    1.8430 C   0  0  0  0  0  0
   -5.2245   -4.0013    0.6703 C   0  0  0  0  0  0
   -4.9885   -3.2767   -0.6645 C   0  0  0  0  0  0
   -3.4884   -3.0905   -0.8179 C   0  0  0  0  0  0
   -3.0521   -2.2695   -2.0414 C   0  0  0  0  0  0
   -1.6954   -1.6811   -1.5641 C   0  0  0  0  0  0
    1.5123   -2.0427   -0.1857 C   0  0  0  0  0  0
    2.8058   -1.5313   -0.7657 C   0  0  0  0  0  0
    3.8696   -1.2490    0.0666 C   0  0  0  0  0  0
    5.0664   -0.7761   -0.4719 C   0  0  0  0  0  0
    5.1795   -0.5915   -1.8504 C   0  0  0  0  0  0
    4.1087   -0.8774   -2.6718 C   0  0  0  0  0  0
    2.9260   -1.3512   -2.1319 C   0  0  0  0  0  0
    6.2109   -0.4710    0.4149 C   0  3  0  0  0  0
    7.3519   -0.0198   -0.1021 N   0  0  0  0  0  0
    8.1022    0.1802    0.4793 H   0  0  0  0  0  0
    7.4329    0.1090   -1.0601 H   0  0  0  0  0  0
    6.0998   -0.6478    1.7299 N   0  0  0  0  0  0
    6.8500   -0.4478    2.3113 H   0  0  0  0  0  0
    5.2685   -0.9765    2.1066 H   0  0  0  0  0  0
   -2.1233    2.5395   -2.9061 H   0  0  0  0  0  0
   -4.3527    3.4966   -3.1256 H   0  0  0  0  0  0
   -5.5447    4.3760   -1.1652 H   0  0  0  0  0  0
   -4.5256    4.3160    1.0466 H   0  0  0  0  0  0
   -2.5982    3.7157    2.4880 H   0  0  0  0  0  0
   -0.3676    2.7624    2.7066 H   0  0  0  0  0  0
   -0.1938    1.9437   -1.4658 H   0  0  0  0  0  0
    1.6047   -0.3723    1.9612 H   0  0  0  0  0  0
    0.3947   -0.2902   -0.7516 H   0  0  0  0  0  0
   -3.7066   -1.2839    0.3495 H   0  0  0  0  0  0
   -2.5877   -3.8341    1.5669 H   0  0  0  0  0  0
   -2.7807   -2.2953    2.4505 H   0  0  0  0  0  0
   -4.7599   -3.8006    2.7556 H   0  0  0  0  0  0
   -5.1928   -2.2791    1.9500 H   0  0  0  0  0  0
   -4.7521   -4.9828    0.6312 H   0  0  0  0  0  0
   -6.2964   -4.1289    0.8217 H   0  0  0  0  0  0
   -5.3734   -3.8796   -1.4869 H   0  0  0  0  0  0
   -5.4834   -2.3056   -0.6519 H   0  0  0  0  0  0
   -2.9685   -4.0472   -0.7682 H   0  0  0  0  0  0
   -2.9171   -2.9101   -2.9129 H   0  0  0  0  0  0
   -3.7659   -1.4730   -2.2514 H   0  0  0  0  0  0
   -1.5867   -0.6583   -1.9249 H   0  0  0  0  0  0
   -0.8740   -2.2966   -1.9310 H   0  0  0  0  0  0
    1.7204   -2.6128    0.7197 H   0  0  0  0  0  0
    1.0166   -2.6851   -0.9136 H   0  0  0  0  0  0
    3.7758   -1.3936    1.1328 H   0  0  0  0  0  0
    6.1034   -0.2253   -2.2733 H   0  0  0  0  0  0
    4.1949   -0.7346   -3.7388 H   0  0  0  0  0  0
    2.0905   -1.5735   -2.7792 H   0  0  0  0  0  0
  1  2  1  0  0  0
  1 10  2  0  0  0
  1 41  1  0  0  0
  2  3  2  0  0  0
  2 42  1  0  0  0
  3  4  1  0  0  0
  3 43  1  0  0  0
  4  5  2  0  0  0
  4 44  1  0  0  0
  5  6  1  0  0  0
  5 10  1  0  0  0
  6  7  2  0  0  0
  6 45  1  0  0  0
  7  8  1  0  0  0
  7 46  1  0  0  0
  8  9  2  0  0  0
  8 11  1  0  0  0
  9 10  1  0  0  0
  9 47  1  0  0  0
 11 12  2  0  0  0
 11 13  2  0  0  0
 11 14  1  0  0  0
 14 15  1  0  0  0
 14 48  1  0  0  0
 15 16  1  0  0  0
 15 27  1  0  0  0
 15 49  1  0  0  0
 16 17  2  0  0  0
 16 18  1  0  0  0
 18 19  1  0  0  0
 18 26  1  0  0  0
 19 20  1  0  0  0
 19 24  1  0  0  0
 19 50  1  0  0  0
 20 21  1  0  0  0
 20 51  1  0  0  0
 20 52  1  0  0  0
 21 22  1  0  0  0
 21 53  1  0  0  0
 21 54  1  0  0  0
 22 23  1  0  0  0
 22 55  1  0  0  0
 22 56  1  0  0  0
 23 24  1  0  0  0
 23 57  1  0  0  0
 23 58  1  0  0  0
 24 25  1  0  0  0
 24 59  1  0  0  0
 25 26  1  0  0  0
 25 60  1  0  0  0
 25 61  1  0  0  0
 26 62  1  0  0  0
 26 63  1  0  0  0
 27 28  1  0  0  0
 27 64  1  0  0  0
 27 65  1  0  0  0
 28 29  1  0  0  0
 28 33  2  0  0  0
 29 30  2  0  0  0
 29 66  1  0  0  0
 30 31  1  0  0  0
 30 34  1  0  0  0
 31 32  2  0  0  0
 31 67  1  0  0  0
 32 33  1  0  0  0
 32 68  1  0  0  0
 33 69  1  0  0  0
 34 35  1  0  0  0
 34 38  1  0  0  0
 35 36  1  0  0  0
 35 37  1  0  0  0
 38 39  1  0  0  0
 38 40  1  0  0  0
M  CHG  1  34   1
M  END
>  <Activity>
6.495

>  <set>
1

>  <Min_dist>
999.9

>  <Avg_dist>
999.9

$$$$
45
  Cerius2 12110215013D 1   1.00000                          
 
 59 61  0  0  0  0  0  0  0  0999 V2000
    5.2359    3.3235    1.0798 C   0  0  0  0  0  0
    3.8134    2.9560    0.7444 C   0  0  0  0  0  0
    3.2580    3.3648   -0.4537 C   0  0  0  0  0  0
    1.9531    3.0278   -0.7613 C   0  0  0  0  0  0
    1.2038    2.2815    0.1290 C   0  0  0  0  0  0
    1.7595    1.8719    1.3266 C   0  0  0  0  0  0
    3.0658    2.2053    1.6323 C   0  0  0  0  0  0
   -0.4598    1.8529   -0.2626 S   0  0  0  0  0  0
   -1.0942    1.5913    0.9817 O   0  0  0  0  0  0
   -0.8901    2.8107   -1.2200 O   0  0  0  0  0  0
   -0.4224    0.4031   -1.0621 N   0  0  0  0  0  0
    0.1375   -0.7810   -0.4059 C   0  0  0  0  0  0
    1.3886   -1.2109   -1.1276 C   0  0  0  0  0  0
    1.5284   -0.9538   -2.3046 O   0  0  0  0  0  0
    2.3522   -1.8811   -0.4652 N   0  0  0  0  0  0
    2.1499   -2.2996    0.9286 C   0  0  0  0  0  0
    2.4165   -3.8043    1.0353 C   0  0  0  0  0  0
    3.8101   -4.1119    0.4826 C   0  0  0  0  0  0
    3.8747   -3.7133   -0.9936 C   0  0  0  0  0  0
    3.6224   -2.2124   -1.1250 C   0  0  0  0  0  0
   -0.8875   -1.9164   -0.4416 C   0  0  0  0  0  0
   -2.1387   -1.4865    0.2802 C   0  0  0  0  0  0
   -3.1526   -0.8586   -0.4140 C   0  0  0  0  0  0
   -4.3103   -0.4617    0.2555 C   0  0  0  0  0  0
   -4.4351   -0.7027    1.6243 C   0  0  0  0  0  0
   -3.4143   -1.3313    2.3068 C   0  0  0  0  0  0
   -2.2707   -1.7273    1.6359 C   0  0  0  0  0  0
   -5.4012    0.2126   -0.4826 C   0  3  0  0  0  0
   -6.5050    0.5902    0.1592 N   0  0  0  0  0  0
   -7.2202    1.0322   -0.3246 H   0  0  0  0  0  0
   -6.5940    0.4234    1.1106 H   0  0  0  0  0  0
   -5.2791    0.4416   -1.7885 N   0  0  0  0  0  0
   -5.9942    0.8836   -2.2723 H   0  0  0  0  0  0
   -4.4750    0.1665   -2.2560 H   0  0  0  0  0  0
    5.2500    4.2768    1.6081 H   0  0  0  0  0  0
    5.6712    2.5506    1.7132 H   0  0  0  0  0  0
    5.8154    3.4090    0.1606 H   0  0  0  0  0  0
    3.8434    3.9479   -1.1492 H   0  0  0  0  0  0
    1.5190    3.3478   -1.6970 H   0  0  0  0  0  0
    1.1740    1.2892    2.0223 H   0  0  0  0  0  0
    3.4999    1.8853    2.5680 H   0  0  0  0  0  0
   -0.7712    0.3380   -1.9649 H   0  0  0  0  0  0
    0.3793   -0.5423    0.6298 H   0  0  0  0  0  0
    2.8405   -1.7593    1.5762 H   0  0  0  0  0  0
    1.1235   -2.0882    1.2284 H   0  0  0  0  0  0
    2.3640   -4.1100    2.0802 H   0  0  0  0  0  0
    1.6683   -4.3481    0.4586 H   0  0  0  0  0  0
    4.5558   -3.5486    1.0438 H   0  0  0  0  0  0
    4.0121   -5.1786    0.5799 H   0  0  0  0  0  0
    4.8600   -3.9541   -1.3927 H   0  0  0  0  0  0
    3.1128   -4.2580   -1.5511 H   0  0  0  0  0  0
    3.5693   -1.9418   -2.1795 H   0  0  0  0  0  0
    4.4318   -1.6624   -0.6448 H   0  0  0  0  0  0
   -1.1294   -2.1551   -1.4772 H   0  0  0  0  0  0
   -0.4710   -2.7974    0.0467 H   0  0  0  0  0  0
   -3.0500   -0.6745   -1.4732 H   0  0  0  0  0  0
   -5.3288   -0.3975    2.1483 H   0  0  0  0  0  0
   -3.5095   -1.5182    3.3662 H   0  0  0  0  0  0
   -1.4742   -2.2191    2.1747 H   0  0  0  0  0  0
  1  2  1  0  0  0
  1 35  1  0  0  0
  1 36  1  0  0  0
  1 37  1  0  0  0
  2  3  1  0  0  0
  2  7  2  0  0  0
  3  4  2  0  0  0
  3 38  1  0  0  0
  4  5  1  0  0  0
  4 39  1  0  0  0
  5  6  2  0  0  0
  5  8  1  0  0  0
  6  7  1  0  0  0
  6 40  1  0  0  0
  7 41  1  0  0  0
  8  9  2  0  0  0
  8 10  2  0  0  0
  8 11  1  0  0  0
 11 12  1  0  0  0
 11 42  1  0  0  0
 12 13  1  0  0  0
 12 21  1  0  0  0
 12 43  1  0  0  0
 13 14  2  0  0  0
 13 15  1  0  0  0
 15 16  1  0  0  0
 15 20  1  0  0  0
 16 17  1  0  0  0
 16 44  1  0  0  0
 16 45  1  0  0  0
 17 18  1  0  0  0
 17 46  1  0  0  0
 17 47  1  0  0  0
 18 19  1  0  0  0
 18 48  1  0  0  0
 18 49  1  0  0  0
 19 20  1  0  0  0
 19 50  1  0  0  0
 19 51  1  0  0  0
 20 52  1  0  0  0
 20 53  1  0  0  0
 21 22  1  0  0  0
 21 54  1  0  0  0
 21 55  1  0  0  0
 22 23  1  0  0  0
 22 27  2  0  0  0
 23 24  2  0  0  0
 23 56  1  0  0  0
 24 25  1  0  0  0
 24 28  1  0  0  0
 25 26  2  0  0  0
 25 57  1  0  0  0
 26 27  1  0  0  0
 26 58  1  0  0  0
 27 59  1  0  0  0
 28 29  1  0  0  0
 28 32  1  0  0  0
 29 30  1  0  0  0
 29 31  1  0  0  0
 32 33  1  0  0  0
 32 34  1  0  0  0
M  CHG  1  28   1
M  END
>  <Activity>
6.469

>  <set>
1

>  <Min_dist>
999.9

>  <Avg_dist>
999.9

$$$$
47
  Cerius2 12110215013D 1   1.00000                          
 
 71 74  0  0  0  0  0  0  0  0999 V2000
   -3.3891   -3.2504    1.4224 C   0  0  0  0  0  0
   -4.7234   -3.5085    1.4995 C   0  0  0  0  0  0
   -5.5670   -3.2536    0.4203 C   0  0  0  0  0  0
   -5.0814   -2.7386   -0.7425 C   0  0  0  0  0  0
   -3.7095   -2.4588   -0.8594 C   0  0  0  0  0  0
   -3.1713   -1.9273   -2.0440 C   0  0  0  0  0  0
   -1.8374   -1.6692   -2.1210 C   0  0  0  0  0  0
   -0.9935   -1.9245   -1.0415 C   0  0  0  0  0  0
   -1.4788   -2.4393    0.1210 C   0  0  0  0  0  0
   -2.8513   -2.7185    0.2384 C   0  0  0  0  0  0
    0.7278   -1.5759   -1.1843 S   0  0  0  0  0  0
    1.3689   -2.3931   -0.2145 O   0  0  0  0  0  0
    1.0081   -1.5791   -2.5773 O   0  0  0  0  0  0
    0.9602   -0.0151   -0.6821 N   0  0  0  0  0  0
    0.6165    0.3723    0.6883 C   0  0  0  0  0  0
   -0.5896    1.2756    0.6675 C   0  0  0  0  0  0
   -1.5517    1.0186    1.3598 O   0  0  0  0  0  0
   -0.5992    2.3689   -0.1205 N   0  0  0  0  0  0
   -1.8235    3.1650   -0.2815 C   0  0  0  0  0  0
   -2.8857    2.6535    0.6572 C   0  0  0  0  0  0
   -2.8446    2.9407    1.8301 O   0  0  0  0  0  0
   -3.8775    1.8788    0.1903 O   0  0  0  0  0  0
   -4.9746    1.4997    1.0626 C   0  0  0  0  0  0
   -1.5078    4.6273    0.0483 C   0  0  0  0  0  0
   -0.3340    5.0984   -0.8134 C   0  0  0  0  0  0
    0.9032    4.2542   -0.4986 C   0  0  0  0  0  0
    0.6162    2.7909   -0.8301 C   0  0  0  0  0  0
    0.3999    2.6392   -2.3371 C   0  0  0  0  0  0
    1.7971    1.1124    1.3204 C   0  0  0  0  0  0
    2.9670    0.1717    1.4527 C   0  0  0  0  0  0
    3.9469    0.1508    0.4813 C   0  0  0  0  0  0
    5.0294   -0.7202    0.6055 C   0  0  0  0  0  0
    5.1139   -1.5654    1.7125 C   0  0  0  0  0  0
    4.1278   -1.5349    2.6767 C   0  0  0  0  0  0
    3.0592   -0.6649    2.5504 C   0  0  0  0  0  0
    6.0835   -0.7480   -0.4327 C   0  3  0  0  0  0
    7.1155   -1.5805   -0.3114 N   0  0  0  0  0  0
    7.8065   -1.5988   -0.9919 H   0  0  0  0  0  0
    7.1764   -2.1687    0.4575 H   0  0  0  0  0  0
    5.9999    0.0594   -1.4881 N   0  0  0  0  0  0
    6.6908    0.0411   -2.1686 H   0  0  0  0  0  0
    5.2480    0.6658   -1.5765 H   0  0  0  0  0  0
   -2.7480   -3.4492    2.2685 H   0  0  0  0  0  0
   -5.1343   -3.9174    2.4108 H   0  0  0  0  0  0
   -6.6219   -3.4681    0.5075 H   0  0  0  0  0  0
   -5.7472   -2.5465   -1.5709 H   0  0  0  0  0  0
   -3.8130   -1.7250   -2.8888 H   0  0  0  0  0  0
   -1.4264   -1.2608   -3.0324 H   0  0  0  0  0  0
   -0.8128   -2.6326    0.9490 H   0  0  0  0  0  0
    1.3239    0.6426   -1.2953 H   0  0  0  0  0  0
    0.3921   -0.5200    1.2727 H   0  0  0  0  0  0
   -2.1768    3.0882   -1.3097 H   0  0  0  0  0  0
   -5.6373    0.8133    0.5355 H   0  0  0  0  0  0
   -4.5788    1.0108    1.9528 H   0  0  0  0  0  0
   -5.5314    2.3902    1.3543 H   0  0  0  0  0  0
   -2.3821    5.2441   -0.1595 H   0  0  0  0  0  0
   -1.2431    4.7137    1.1021 H   0  0  0  0  0  0
   -0.5900    4.9885   -1.8672 H   0  0  0  0  0  0
   -0.1231    6.1459   -0.5984 H   0  0  0  0  0  0
    1.7448    4.6055   -1.0956 H   0  0  0  0  0  0
    1.1451    4.3441    0.5604 H   0  0  0  0  0  0
    1.4575    2.1732   -0.5156 H   0  0  0  0  0  0
    1.3041    2.9406   -2.8661 H   0  0  0  0  0  0
    0.1733    1.5985   -2.5688 H   0  0  0  0  0  0
   -0.4317    3.2706   -2.6502 H   0  0  0  0  0  0
    2.0780    1.9550    0.6886 H   0  0  0  0  0  0
    1.5110    1.4774    2.3068 H   0  0  0  0  0  0
    3.8757    0.8072   -0.3734 H   0  0  0  0  0  0
    5.9494   -2.2422    1.8141 H   0  0  0  0  0  0
    4.1918   -2.1889    3.5338 H   0  0  0  0  0  0
    2.2897   -0.6449    3.3079 H   0  0  0  0  0  0
  1  2  1  0  0  0
  1 10  2  0  0  0
  1 43  1  0  0  0
  2  3  2  0  0  0
  2 44  1  0  0  0
  3  4  1  0  0  0
  3 45  1  0  0  0
  4  5  2  0  0  0
  4 46  1  0  0  0
  5  6  1  0  0  0
  5 10  1  0  0  0
  6  7  2  0  0  0
  6 47  1  0  0  0
  7  8  1  0  0  0
  7 48  1  0  0  0
  8  9  2  0  0  0
  8 11  1  0  0  0
  9 10  1  0  0  0
  9 49  1  0  0  0
 11 12  2  0  0  0
 11 13  2  0  0  0
 11 14  1  0  0  0
 14 15  1  0  0  0
 14 50  1  0  0  0
 15 16  1  0  0  0
 15 29  1  0  0  0
 15 51  1  0  0  0
 16 17  2  0  0  0
 16 18  1  0  0  0
 18 19  1  0  0  0
 18 27  1  0  0  0
 19 20  1  0  0  0
 19 24  1  0  0  0
 19 52  1  0  0  0
 20 21  2  0  0  0
 20 22  1  0  0  0
 22 23  1  0  0  0
 23 53  1  0  0  0
 23 54  1  0  0  0
 23 55  1  0  0  0
 24 25  1  0  0  0
 24 56  1  0  0  0
 24 57  1  0  0  0
 25 26  1  0  0  0
 25 58  1  0  0  0
 25 59  1  0  0  0
 26 27  1  0  0  0
 26 60  1  0  0  0
 26 61  1  0  0  0
 27 28  1  0  0  0
 27 62  1  0  0  0
 28 63  1  0  0  0
 28 64  1  0  0  0
 28 65  1  0  0  0
 29 30  1  0  0  0
 29 66  1  0  0  0
 29 67  1  0  0  0
 30 31  1  0  0  0
 30 35  2  0  0  0
 31 32  2  0  0  0
 31 68  1  0  0  0
 32 33  1  0  0  0
 32 36  1  0  0  0
 33 34  2  0  0  0
 33 69  1  0  0  0
 34 35  1  0  0  0
 34 70  1  0  0  0
 35 71  1  0  0  0
 36 37  1  0  0  0
 36 40  1  0  0  0
 37 38  1  0  0  0
 37 39  1  0  0  0
 40 41  1  0  0  0
 40 42  1  0  0  0
M  CHG  1  36   1
M  END
>  <Activity>
6.377

>  <set>
1

>  <Min_dist>
999.9

>  <Avg_dist>
999.9

$$$$
48
  Cerius2 12110215013D 1   1.00000                          
 
 62 65  0  0  0  0  0  0  0  0999 V2000
   -3.6945    1.4425   -2.1084 C   0  0  0  0  0  0
   -5.0357    1.6472   -2.2193 C   0  0  0  0  0  0
   -5.7637    2.2141   -1.1753 C   0  0  0  0  0  0
   -5.1549    2.5794   -0.0138 C   0  0  0  0  0  0
   -3.7719    2.3832    0.1377 C   0  0  0  0  0  0
   -3.1083    2.7481    1.3217 C   0  0  0  0  0  0
   -1.7675    2.5434    1.4325 C   0  0  0  0  0  0
   -1.0392    1.9766    0.3880 C   0  0  0  0  0  0
   -1.6478    1.6113   -0.7732 C   0  0  0  0  0  0
   -3.0313    1.8068   -0.9245 C   0  0  0  0  0  0
    0.6955    1.7297    0.5735 S   0  0  0  0  0  0
    1.2195    1.6645   -0.7457 O   0  0  0  0  0  0
    1.1102    2.6443    1.5790 O   0  0  0  0  0  0
    0.9145    0.2208    1.2198 N   0  0  0  0  0  0
    0.4307   -0.9609    0.5016 C   0  0  0  0  0  0
   -0.6774   -1.6094    1.2906 C   0  0  0  0  0  0
   -0.7059   -1.5007    2.4981 O   0  0  0  0  0  0
   -1.6367   -2.3103    0.6542 N   0  0  0  0  0  0
   -1.5592   -2.5559   -0.7942 C   0  0  0  0  0  0
   -1.7651   -4.0534   -1.0447 C   0  0  0  0  0  0
   -3.0240   -4.4840   -0.4235 N   0  3  0  0  0  0
   -3.7817   -3.9175   -0.7742 H   0  0  0  0  0  0
   -3.1961   -5.4518   -0.6510 H   0  0  0  0  0  0
   -2.9385   -4.3355    1.0349 C   0  0  0  0  0  0
   -2.7878   -2.8567    1.3893 C   0  0  0  0  0  0
    1.5797   -1.9554    0.3237 C   0  0  0  0  0  0
    2.6879   -1.3068   -0.4653 C   0  0  0  0  0  0
    3.6893   -0.6202    0.1905 C   0  0  0  0  0  0
    4.7145   -0.0208   -0.5413 C   0  0  0  0  0  0
    4.7203   -0.1198   -1.9332 C   0  0  0  0  0  0
    3.7135   -0.8090   -2.5769 C   0  0  0  0  0  0
    2.7021   -1.4058   -1.8449 C   0  0  0  0  0  0
    5.7912    0.7173    0.1555 C   0  3  0  0  0  0
    6.7685    1.2883   -0.5457 N   0  0  0  0  0  0
    7.4742    1.7722   -0.0889 H   0  0  0  0  0  0
    6.7746    1.2205   -1.5133 H   0  0  0  0  0  0
    5.7827    0.8104    1.4837 N   0  0  0  0  0  0
    6.4885    1.2942    1.9405 H   0  0  0  0  0  0
    5.0708    0.3943    1.9945 H   0  0  0  0  0  0
   -3.1439    0.9983   -2.9244 H   0  0  0  0  0  0
   -5.5431    1.3662   -3.1304 H   0  0  0  0  0  0
   -6.8268    2.3663   -1.2893 H   0  0  0  0  0  0
   -5.7319    3.0180    0.7869 H   0  0  0  0  0  0
   -3.6595    3.1890    2.1392 H   0  0  0  0  0  0
   -1.2600    2.8248    2.3434 H   0  0  0  0  0  0
   -1.0705    1.1739   -1.5743 H   0  0  0  0  0  0
    1.3632    0.1194    2.0738 H   0  0  0  0  0  0
    0.0537   -0.6625   -0.4766 H   0  0  0  0  0  0
   -2.3380   -1.9887   -1.3040 H   0  0  0  0  0  0
   -0.5797   -2.2538   -1.1650 H   0  0  0  0  0  0
   -1.8069   -4.2401   -2.1178 H   0  0  0  0  0  0
   -0.9359   -4.6119   -0.6105 H   0  0  0  0  0  0
   -3.8449   -4.7300    1.4941 H   0  0  0  0  0  0
   -2.0738   -4.8855    1.4061 H   0  0  0  0  0  0
   -2.6227   -2.7521    2.4617 H   0  0  0  0  0  0
   -3.6897   -2.3170    1.1003 H   0  0  0  0  0  0
    1.9567   -2.2538    1.3019 H   0  0  0  0  0  0
    1.2198   -2.8346   -0.2107 H   0  0  0  0  0  0
    3.6791   -0.5468    1.2679 H   0  0  0  0  0  0
    5.5112    0.3424   -2.5053 H   0  0  0  0  0  0
    3.7166   -0.8860   -3.6541 H   0  0  0  0  0  0
    1.9161   -1.9442   -2.3535 H   0  0  0  0  0  0
  1  2  1  0  0  0
  1 10  2  0  0  0
  1 40  1  0  0  0
  2  3  2  0  0  0
  2 41  1  0  0  0
  3  4  1  0  0  0
  3 42  1  0  0  0
  4  5  2  0  0  0
  4 43  1  0  0  0
  5  6  1  0  0  0
  5 10  1  0  0  0
  6  7  2  0  0  0
  6 44  1  0  0  0
  7  8  1  0  0  0
  7 45  1  0  0  0
  8  9  2  0  0  0
  8 11  1  0  0  0
  9 10  1  0  0  0
  9 46  1  0  0  0
 11 12  2  0  0  0
 11 13  2  0  0  0
 11 14  1  0  0  0
 14 15  1  0  0  0
 14 47  1  0  0  0
 15 16  1  0  0  0
 15 26  1  0  0  0
 15 48  1  0  0  0
 16 17  2  0  0  0
 16 18  1  0  0  0
 18 19  1  0  0  0
 18 25  1  0  0  0
 19 20  1  0  0  0
 19 49  1  0  0  0
 19 50  1  0  0  0
 20 21  1  0  0  0
 20 51  1  0  0  0
 20 52  1  0  0  0
 21 22  1  0  0  0
 21 23  1  0  0  0
 21 24  1  0  0  0
 24 25  1  0  0  0
 24 53  1  0  0  0
 24 54  1  0  0  0
 25 55  1  0  0  0
 25 56  1  0  0  0
 26 27  1  0  0  0
 26 57  1  0  0  0
 26 58  1  0  0  0
 27 28  1  0  0  0
 27 32  2  0  0  0
 28 29  2  0  0  0
 28 59  1  0  0  0
 29 30  1  0  0  0
 29 33  1  0  0  0
 30 31  2  0  0  0
 30 60  1  0  0  0
 31 32  1  0  0  0
 31 61  1  0  0  0
 32 62  1  0  0  0
 33 34  1  0  0  0
 33 37  1  0  0  0
 34 35  1  0  0  0
 34 36  1  0  0  0
 37 38  1  0  0  0
 37 39  1  0  0  0
M  CHG  2  21   1  33   1
M  END
>  <Activity>
6.301

>  <set>
1

>  <Min_dist>
999.9

>  <Avg_dist>
999.9

$$$$
50
  Cerius2 12110215013D 1   1.00000                          
 
 64 67  0  0  0  0  0  0  0  0999 V2000
    2.7041   -0.5836    3.1965 C   0  0  0  0  0  0
    3.6477   -1.4916    3.5683 C   0  0  0  0  0  0
    4.8013   -1.6789    2.8098 C   0  0  0  0  0  0
    5.0183   -0.9596    1.6746 C   0  0  0  0  0  0
    4.0666   -0.0133    1.2588 C   0  0  0  0  0  0
    4.2558    0.7485    0.0930 C   0  0  0  0  0  0
    3.3124    1.6562   -0.2787 C   0  0  0  0  0  0
    2.1585    1.8438    0.4803 C   0  0  0  0  0  0
    1.9415    1.1247    1.6151 C   0  0  0  0  0  0
    2.8931    0.1775    2.0307 C   0  0  0  0  0  0
    0.9629    3.0302   -0.0371 S   0  0  0  0  0  0
    0.1563    3.2883    1.1040 O   0  0  0  0  0  0
    1.6836    4.0089   -0.7732 O   0  0  0  0  0  0
   -0.0317    2.2857   -1.1321 N   0  0  0  0  0  0
   -0.8869    1.1746   -0.7076 C   0  0  0  0  0  0
   -2.2551    1.6995   -0.3564 C   0  0  0  0  0  0
   -2.6062    2.7906   -0.7528 O   0  0  0  0  0  0
   -3.0887    0.9565    0.3983 N   0  0  0  0  0  0
   -4.3718    1.5050    0.8579 C   0  0  0  0  0  0
   -5.4938    0.5468    0.4456 C   0  0  0  0  0  0
   -5.1830   -0.8546    0.9763 C   0  0  0  0  0  0
   -6.3014   -1.7927    0.6017 C   0  0  0  0  0  0
   -7.2494   -1.3827   -0.0252 O   0  0  0  0  0  0
   -6.2443   -3.0837    0.9645 O   0  5  0  0  0  0
   -3.8720   -1.3543    0.3651 C   0  0  0  0  0  0
   -2.7342   -0.4196    0.7718 C   0  0  0  0  0  0
   -1.0068    0.1596   -1.8462 C   0  0  0  0  0  0
    0.3438   -0.4503   -2.1198 C   0  0  0  0  0  0
    0.6981   -1.6386   -1.5142 C   0  0  0  0  0  0
    1.9485   -2.2021   -1.7689 C   0  0  0  0  0  0
    2.8335   -1.5594   -2.6355 C   0  0  0  0  0  0
    2.4673   -0.3720   -3.2347 C   0  0  0  0  0  0
    1.2235    0.1792   -2.9820 C   0  0  0  0  0  0
    2.3351   -3.4757   -1.1225 C   0  3  0  0  0  0
    3.5684   -3.9530   -1.2765 N   0  0  0  0  0  0
    3.7999   -4.8238   -0.9172 H   0  0  0  0  0  0
    4.2355   -3.4300   -1.7481 H   0  0  0  0  0  0
    1.4495   -4.1445   -0.3867 N   0  0  0  0  0  0
    1.7028   -4.9794    0.0370 H   0  0  0  0  0  0
    0.5509   -3.7968   -0.2745 H   0  0  0  0  0  0
    1.8129   -0.4521    3.7921 H   0  0  0  0  0  0
    3.5000   -2.0754    4.4649 H   0  0  0  0  0  0
    5.5346   -2.4054    3.1274 H   0  0  0  0  0  0
    5.9173   -1.1152    1.0969 H   0  0  0  0  0  0
    5.1453    0.6145   -0.5046 H   0  0  0  0  0  0
    3.4602    2.2403   -1.1750 H   0  0  0  0  0  0
    1.0430    1.2812    2.1935 H   0  0  0  0  0  0
   -0.0480    2.5854   -2.0545 H   0  0  0  0  0  0
   -0.4481    0.6912    0.1652 H   0  0  0  0  0  0
   -4.3582    1.6063    1.9431 H   0  0  0  0  0  0
   -4.5374    2.4802    0.4000 H   0  0  0  0  0  0
   -6.4393    0.8926    0.8633 H   0  0  0  0  0  0
   -5.5651    0.5166   -0.6416 H   0  0  0  0  0  0
   -5.0871   -0.8189    2.0615 H   0  0  0  0  0  0
   -3.6633   -2.3617    0.7253 H   0  0  0  0  0  0
   -3.9586   -1.3667   -0.7214 H   0  0  0  0  0  0
   -1.8184   -0.7142    0.2594 H   0  0  0  0  0  0
   -2.5853   -0.4729    1.8502 H   0  0  0  0  0  0
   -1.7086   -0.6244   -1.5617 H   0  0  0  0  0  0
   -1.3674    0.6617   -2.7440 H   0  0  0  0  0  0
    0.0089   -2.1310   -0.8442 H   0  0  0  0  0  0
    3.8031   -1.9905   -2.8364 H   0  0  0  0  0  0
    3.1515    0.1266   -3.9053 H   0  0  0  0  0  0
    0.9415    1.1090   -3.4535 H   0  0  0  0  0  0
  1  2  1  0  0  0
  1 10  2  0  0  0
  1 41  1  0  0  0
  2  3  2  0  0  0
  2 42  1  0  0  0
  3  4  1  0  0  0
  3 43  1  0  0  0
  4  5  2  0  0  0
  4 44  1  0  0  0
  5  6  1  0  0  0
  5 10  1  0  0  0
  6  7  2  0  0  0
  6 45  1  0  0  0
  7  8  1  0  0  0
  7 46  1  0  0  0
  8  9  2  0  0  0
  8 11  1  0  0  0
  9 10  1  0  0  0
  9 47  1  0  0  0
 11 12  2  0  0  0
 11 13  2  0  0  0
 11 14  1  0  0  0
 14 15  1  0  0  0
 14 48  1  0  0  0
 15 16  1  0  0  0
 15 27  1  0  0  0
 15 49  1  0  0  0
 16 17  2  0  0  0
 16 18  1  0  0  0
 18 19  1  0  0  0
 18 26  1  0  0  0
 19 20  1  0  0  0
 19 50  1  0  0  0
 19 51  1  0  0  0
 20 21  1  0  0  0
 20 52  1  0  0  0
 20 53  1  0  0  0
 21 22  1  0  0  0
 21 25  1  0  0  0
 21 54  1  0  0  0
 22 23  2  0  0  0
 22 24  1  0  0  0
 25 26  1  0  0  0
 25 55  1  0  0  0
 25 56  1  0  0  0
 26 57  1  0  0  0
 26 58  1  0  0  0
 27 28  1  0  0  0
 27 59  1  0  0  0
 27 60  1  0  0  0
 28 29  1  0  0  0
 28 33  2  0  0  0
 29 30  2  0  0  0
 29 61  1  0  0  0
 30 31  1  0  0  0
 30 34  1  0  0  0
 31 32  2  0  0  0
 31 62  1  0  0  0
 32 33  1  0  0  0
 32 63  1  0  0  0
 33 64  1  0  0  0
 34 35  1  0  0  0
 34 38  1  0  0  0
 35 36  1  0  0  0
 35 37  1  0  0  0
 38 39  1  0  0  0
 38 40  1  0  0  0
M  CHG  2  24  -1  34   1
M  END
>  <Activity>
6.244

>  <set>
1

>  <Min_dist>
999.9

>  <Avg_dist>
999.9

$$$$
52
  Cerius2 12110215013D 1   1.00000                          
 
 65 68  0  0  0  0  0  0  0  0999 V2000
   -2.8778    3.1641   -1.7839 C   0  0  0  0  0  0
   -4.1435    3.6595   -1.8590 C   0  0  0  0  0  0
   -4.8492    4.0026   -0.7076 C   0  0  0  0  0  0
   -4.2936    3.8519    0.5259 C   0  0  0  0  0  0
   -2.9892    3.3431    0.6434 C   0  0  0  0  0  0
   -2.3821    3.1739    1.8996 C   0  0  0  0  0  0
   -1.1168    2.6786    1.9747 C   0  0  0  0  0  0
   -0.4108    2.3357    0.8229 C   0  0  0  0  0  0
   -0.9661    2.4863   -0.4104 C   0  0  0  0  0  0
   -2.2712    2.9945   -0.5279 C   0  0  0  0  0  0
    1.2257    1.6982    0.9657 S   0  0  0  0  0  0
    1.8481    1.9484   -0.2870 O   0  0  0  0  0  0
    1.7055    2.1452    2.2263 O   0  0  0  0  0  0
    1.1064    0.0511    1.0879 N   0  0  0  0  0  0
    0.4840   -0.7203    0.0091 C   0  0  0  0  0  0
   -0.7922   -1.3456    0.5103 C   0  0  0  0  0  0
   -0.9311   -1.5757    1.6930 O   0  0  0  0  0  0
   -1.7794   -1.6490   -0.3557 N   0  0  0  0  0  0
   -1.7913   -1.3233   -1.7934 C   0  0  0  0  0  0
   -3.2907   -1.2977   -2.1818 C   0  0  0  0  0  0
   -3.8560   -2.4562   -1.3183 C   0  0  0  0  0  0
   -3.0198   -2.3654   -0.0243 C   0  0  0  0  0  0
   -2.7015   -3.7499    0.4785 C   0  0  0  0  0  0
   -1.5519   -4.1112    0.5669 O   0  0  0  0  0  0
   -3.6952   -4.5818    0.8282 O   0  0  0  0  0  0
   -3.3886   -5.9158    1.3127 C   0  0  0  0  0  0
    1.4438   -1.8193   -0.4514 C   0  0  0  0  0  0
    2.7201   -1.1941   -0.9526 C   0  0  0  0  0  0
    3.7646   -0.9671   -0.0798 C   0  0  0  0  0  0
    4.9455   -0.3886   -0.5455 C   0  0  0  0  0  0
    5.0624   -0.0432   -1.8924 C   0  0  0  0  0  0
    4.0110   -0.2753   -2.7547 C   0  0  0  0  0  0
    2.8442   -0.8542   -2.2877 C   0  0  0  0  0  0
    6.0692   -0.1420    0.3850 C   0  3  0  0  0  0
    7.1951    0.4103   -0.0624 N   0  0  0  0  0  0
    7.9318    0.5719    0.5475 H   0  0  0  0  0  0
    7.2787    0.6509   -0.9984 H   0  0  0  0  0  0
    5.9545   -0.4723    1.6697 N   0  0  0  0  0  0
    6.6912   -0.3106    2.2797 H   0  0  0  0  0  0
    5.1343   -0.8746    1.9957 H   0  0  0  0  0  0
   -2.3444    2.8987   -2.6846 H   0  0  0  0  0  0
   -4.6075    3.7890   -2.8256 H   0  0  0  0  0  0
   -5.8519    4.3942   -0.7952 H   0  0  0  0  0  0
   -4.8524    4.1223    1.4097 H   0  0  0  0  0  0
   -2.9168    3.4360    2.8007 H   0  0  0  0  0  0
   -0.6526    2.5496    2.9413 H   0  0  0  0  0  0
   -0.4068    2.2170   -1.2941 H   0  0  0  0  0  0
    1.4487   -0.4030    1.8738 H   0  0  0  0  0  0
    0.2604   -0.0591   -0.8281 H   0  0  0  0  0  0
   -1.3383   -0.3468   -1.9649 H   0  0  0  0  0  0
   -1.2655   -2.0913   -2.3608 H   0  0  0  0  0  0
   -3.7489   -0.3472   -1.9086 H   0  0  0  0  0  0
   -3.4226   -1.5021   -3.2443 H   0  0  0  0  0  0
   -4.9140   -2.2999   -1.1082 H   0  0  0  0  0  0
   -3.6969   -3.4163   -1.8093 H   0  0  0  0  0  0
   -3.5709   -1.8106    0.7350 H   0  0  0  0  0  0
   -4.3156   -6.4400    1.5451 H   0  0  0  0  0  0
   -2.8435   -6.4648    0.5449 H   0  0  0  0  0  0
   -2.7765   -5.8441    2.2118 H   0  0  0  0  0  0
    1.6675   -2.4805    0.3858 H   0  0  0  0  0  0
    0.9807   -2.3933   -1.2540 H   0  0  0  0  0  0
    3.6679   -1.2363    0.9616 H   0  0  0  0  0  0
    5.9740    0.4053   -2.2589 H   0  0  0  0  0  0
    4.1001   -0.0081   -3.7973 H   0  0  0  0  0  0
    2.0238   -1.0339   -2.9668 H   0  0  0  0  0  0
  1  2  1  0  0  0
  1 10  2  0  0  0
  1 41  1  0  0  0
  2  3  2  0  0  0
  2 42  1  0  0  0
  3  4  1  0  0  0
  3 43  1  0  0  0
  4  5  2  0  0  0
  4 44  1  0  0  0
  5  6  1  0  0  0
  5 10  1  0  0  0
  6  7  2  0  0  0
  6 45  1  0  0  0
  7  8  1  0  0  0
  7 46  1  0  0  0
  8  9  2  0  0  0
  8 11  1  0  0  0
  9 10  1  0  0  0
  9 47  1  0  0  0
 11 12  2  0  0  0
 11 13  2  0  0  0
 11 14  1  0  0  0
 14 15  1  0  0  0
 14 48  1  0  0  0
 15 16  1  0  0  0
 15 27  1  0  0  0
 15 49  1  0  0  0
 16 17  2  0  0  0
 16 18  1  0  0  0
 18 19  1  0  0  0
 18 22  1  0  0  0
 19 20  1  0  0  0
 19 50  1  0  0  0
 19 51  1  0  0  0
 20 21  1  0  0  0
 20 52  1  0  0  0
 20 53  1  0  0  0
 21 22  1  0  0  0
 21 54  1  0  0  0
 21 55  1  0  0  0
 22 23  1  0  0  0
 22 56  1  0  0  0
 23 24  2  0  0  0
 23 25  1  0  0  0
 25 26  1  0  0  0
 26 57  1  0  0  0
 26 58  1  0  0  0
 26 59  1  0  0  0
 27 28  1  0  0  0
 27 60  1  0  0  0
 27 61  1  0  0  0
 28 29  1  0  0  0
 28 33  2  0  0  0
 29 30  2  0  0  0
 29 62  1  0  0  0
 30 31  1  0  0  0
 30 34  1  0  0  0
 31 32  2  0  0  0
 31 63  1  0  0  0
 32 33  1  0  0  0
 32 64  1  0  0  0
 33 65  1  0  0  0
 34 35  1  0  0  0
 34 38  1  0  0  0
 35 36  1  0  0  0
 35 37  1  0  0  0
 38 39  1  0  0  0
 38 40  1  0  0  0
M  CHG  1  34   1
M  END
>  <Activity>
6.18

>  <set>
1

>  <Min_dist>
999.9

>  <Avg_dist>
999.9

$$$$
53
  Cerius2 12110215013D 1   1.00000                          
 
 82 87  0  0  0  0  0  0  0  0999 V2000
    1.4500   -0.2780    4.0421 C   0  0  0  0  0  0
    2.6539   -0.2763    4.6775 C   0  0  0  0  0  0
    3.6019    0.7105    4.4155 C   0  0  0  0  0  0
    3.3519    1.7015    3.5162 C   0  0  0  0  0  0
    2.1205    1.7325    2.8404 C   0  0  0  0  0  0
    1.8261    2.7399    1.9056 C   0  0  0  0  0  0
    0.6225    2.7381    1.2705 C   0  0  0  0  0  0
   -0.3260    1.7510    1.5328 C   0  0  0  0  0  0
   -0.0762    0.7603    2.4317 C   0  0  0  0  0  0
    1.1559    0.7288    3.1072 C   0  0  0  0  0  0
   -1.8719    1.7868    0.6882 S   0  0  0  0  0  0
   -2.7737    1.0495    1.5021 O   0  0  0  0  0  0
   -2.0530    3.1331    0.2712 O   0  0  0  0  0  0
   -1.6969    0.9048   -0.7024 N   0  0  0  0  0  0
   -1.3288   -0.5114   -0.6301 C   0  0  0  0  0  0
   -0.0283   -0.7302   -1.3594 C   0  0  0  0  0  0
    0.5356    0.2047   -1.8875 O   0  0  0  0  0  0
    0.5082   -1.9649   -1.4247 N   0  0  0  0  0  0
   -0.0568   -3.0834   -0.6623 C   0  0  0  0  0  0
    1.0552   -3.8688   -0.0136 C   0  0  0  0  0  0
    0.7084   -4.8134    0.9430 C   0  0  0  0  0  0
    1.6801   -5.5704    1.5642 C   0  0  0  0  0  0
    3.0093   -5.3875    1.2301 C   0  0  0  0  0  0
    3.3553   -4.4467    0.2830 C   0  0  0  0  0  0
    2.3791   -3.6783   -0.3399 C   0  0  0  0  0  0
    2.8338   -2.6511   -1.3430 C   0  0  0  0  0  0
    1.6811   -2.2463   -2.2690 C   0  0  0  0  0  0
    2.0593   -1.0101   -3.0433 C   0  0  0  0  0  0
    1.8681   -0.9618   -4.2354 O   0  0  0  0  0  0
    2.6087    0.0374   -2.4087 O   0  0  0  0  0  0
    2.9731    1.2286   -3.1548 C   0  0  0  0  0  0
    3.5647    2.2481   -2.2159 C   0  0  0  0  0  0
    4.9265    2.2609   -1.9785 C   0  0  0  0  0  0
    5.4692    3.1961   -1.1172 C   0  0  0  0  0  0
    4.6501    4.1186   -0.4935 C   0  0  0  0  0  0
    3.2885    4.1063   -0.7315 C   0  0  0  0  0  0
    2.7464    3.1740   -1.5962 C   0  0  0  0  0  0
   -2.4261   -1.3573   -1.2792 C   0  0  0  0  0  0
   -3.7266   -1.1385   -0.5499 C   0  0  0  0  0  0
   -4.5820   -0.1339   -0.9540 C   0  0  0  0  0  0
   -5.7854    0.0673   -0.2780 C   0  0  0  0  0  0
   -6.1163   -0.7496    0.8037 C   0  0  0  0  0  0
   -5.2526   -1.7505    1.1980 C   0  0  0  0  0  0
   -4.0629   -1.9487    0.5196 C   0  0  0  0  0  0
   -6.7072    1.1432   -0.7058 C   0  3  0  0  0  0
   -7.8559    1.3329   -0.0581 N   0  0  0  0  0  0
   -8.4600    2.0381   -0.3385 H   0  0  0  0  0  0
   -8.0880    0.7660    0.6939 H   0  0  0  0  0  0
   -6.3883    1.9219   -1.7387 N   0  0  0  0  0  0
   -6.9925    2.6271   -2.0192 H   0  0  0  0  0  0
   -5.5520    1.7837   -2.2103 H   0  0  0  0  0  0
    0.7264   -1.0518    4.2523 H   0  0  0  0  0  0
    2.8774   -1.0513    5.3957 H   0  0  0  0  0  0
    4.5491    0.6892    4.9338 H   0  0  0  0  0  0
    4.0962    2.4600    3.3235 H   0  0  0  0  0  0
    2.5510    3.5116    1.6927 H   0  0  0  0  0  0
    0.3988    3.5133    0.5526 H   0  0  0  0  0  0
   -0.8209    0.0025    2.6253 H   0  0  0  0  0  0
   -1.8381    1.3258   -1.5648 H   0  0  0  0  0  0
   -1.2139   -0.8041    0.4135 H   0  0  0  0  0  0
   -0.7248   -2.6970    0.1074 H   0  0  0  0  0  0
   -0.6165   -3.7342   -1.3341 H   0  0  0  0  0  0
   -0.3300   -4.9564    1.2030 H   0  0  0  0  0  0
    1.4038   -6.3024    2.3086 H   0  0  0  0  0  0
    3.7746   -5.9797    1.7098 H   0  0  0  0  0  0
    4.3941   -4.3059    0.0230 H   0  0  0  0  0  0
    3.1980   -1.7703   -0.8142 H   0  0  0  0  0  0
    3.6429   -3.0688   -1.9421 H   0  0  0  0  0  0
    1.4588   -3.0606   -2.9586 H   0  0  0  0  0  0
    3.7066    0.9690   -3.9182 H   0  0  0  0  0  0
    2.0853    1.6450   -3.6307 H   0  0  0  0  0  0
    5.5664    1.5402   -2.4658 H   0  0  0  0  0  0
    6.5330    3.2057   -0.9312 H   0  0  0  0  0  0
    5.0740    4.8488    0.1800 H   0  0  0  0  0  0
    2.6486    4.8269   -0.2440 H   0  0  0  0  0  0
    1.6825    3.1644   -1.7822 H   0  0  0  0  0  0
   -2.5410   -1.0646   -2.3228 H   0  0  0  0  0  0
   -2.1522   -2.4110   -1.2254 H   0  0  0  0  0  0
   -4.3202    0.4954   -1.7918 H   0  0  0  0  0  0
   -7.0464   -0.5985    1.3314 H   0  0  0  0  0  0
   -5.5075   -2.3835    2.0350 H   0  0  0  0  0  0
   -3.3903   -2.7338    0.8319 H   0  0  0  0  0  0
  1  2  1  0  0  0
  1 10  2  0  0  0
  1 52  1  0  0  0
  2  3  2  0  0  0
  2 53  1  0  0  0
  3  4  1  0  0  0
  3 54  1  0  0  0
  4  5  2  0  0  0
  4 55  1  0  0  0
  5  6  1  0  0  0
  5 10  1  0  0  0
  6  7  2  0  0  0
  6 56  1  0  0  0
  7  8  1  0  0  0
  7 57  1  0  0  0
  8  9  2  0  0  0
  8 11  1  0  0  0
  9 10  1  0  0  0
  9 58  1  0  0  0
 11 12  2  0  0  0
 11 13  2  0  0  0
 11 14  1  0  0  0
 14 15  1  0  0  0
 14 59  1  0  0  0
 15 16  1  0  0  0
 15 38  1  0  0  0
 15 60  1  0  0  0
 16 17  2  0  0  0
 16 18  1  0  0  0
 18 19  1  0  0  0
 18 27  1  0  0  0
 19 20  1  0  0  0
 19 61  1  0  0  0
 19 62  1  0  0  0
 20 21  1  0  0  0
 20 25  2  0  0  0
 21 22  2  0  0  0
 21 63  1  0  0  0
 22 23  1  0  0  0
 22 64  1  0  0  0
 23 24  2  0  0  0
 23 65  1  0  0  0
 24 25  1  0  0  0
 24 66  1  0  0  0
 25 26  1  0  0  0
 26 27  1  0  0  0
 26 67  1  0  0  0
 26 68  1  0  0  0
 27 28  1  0  0  0
 27 69  1  0  0  0
 28 29  2  0  0  0
 28 30  1  0  0  0
 30 31  1  0  0  0
 31 32  1  0  0  0
 31 70  1  0  0  0
 31 71  1  0  0  0
 32 33  1  0  0  0
 32 37  2  0  0  0
 33 34  2  0  0  0
 33 72  1  0  0  0
 34 35  1  0  0  0
 34 73  1  0  0  0
 35 36  2  0  0  0
 35 74  1  0  0  0
 36 37  1  0  0  0
 36 75  1  0  0  0
 37 76  1  0  0  0
 38 39  1  0  0  0
 38 77  1  0  0  0
 38 78  1  0  0  0
 39 40  1  0  0  0
 39 44  2  0  0  0
 40 41  2  0  0  0
 40 79  1  0  0  0
 41 42  1  0  0  0
 41 45  1  0  0  0
 42 43  2  0  0  0
 42 80  1  0  0  0
 43 44  1  0  0  0
 43 81  1  0  0  0
 44 82  1  0  0  0
 45 46  1  0  0  0
 45 49  1  0  0  0
 46 47  1  0  0  0
 46 48  1  0  0  0
 49 50  1  0  0  0
 49 51  1  0  0  0
M  CHG  1  45   1
M  END
>  <Activity>
6.161

>  <set>
1

>  <Min_dist>
999.9

>  <Avg_dist>
999.9

$$$$
55
  Cerius2 12110215013D 1   1.00000                          
 
 64 67  0  0  0  0  0  0  0  0999 V2000
   -2.7240   -0.0245   -3.2592 C   0  0  0  0  0  0
   -3.8092   -0.6940   -3.7359 C   0  0  0  0  0  0
   -5.0106   -0.7075   -3.0305 C   0  0  0  0  0  0
   -5.1341   -0.0520   -1.8438 C   0  0  0  0  0  0
   -4.0355    0.6497   -1.3197 C   0  0  0  0  0  0
   -4.1249    1.3387   -0.0980 C   0  0  0  0  0  0
   -3.0400    2.0080    0.3785 C   0  0  0  0  0  0
   -1.8382    2.0217   -0.3273 C   0  0  0  0  0  0
   -1.7147    1.3664   -1.5136 C   0  0  0  0  0  0
   -2.8133    0.6638   -2.0376 C   0  0  0  0  0  0
   -0.4582    2.9014    0.3259 S   0  0  0  0  0  0
    0.4311    3.0905   -0.7661 O   0  0  0  0  0  0
   -1.0061    3.9374    1.1295 O   0  0  0  0  0  0
    0.3252    1.8860    1.3736 N   0  0  0  0  0  0
    0.9630    0.6662    0.8722 C   0  0  0  0  0  0
    2.4151    0.9428    0.5787 C   0  0  0  0  0  0
    2.9643    1.8991    1.0834 O   0  0  0  0  0  0
    3.1034    0.1274   -0.2446 N   0  0  0  0  0  0
    4.5229    0.3767   -0.5302 C   0  0  0  0  0  0
    5.3181   -0.8970   -0.2267 C   0  0  0  0  0  0
    4.7160   -2.0676   -1.0072 C   0  0  0  0  0  0
    3.2671   -2.2860   -0.5656 C   0  0  0  0  0  0
    2.4501   -1.0313   -0.8686 C   0  0  0  0  0  0
    6.7546   -0.7034   -0.6389 C   0  0  0  0  0  0
    7.1075    0.3448   -1.1254 O   0  0  0  0  0  0
    7.6421   -1.6953   -0.4655 O   0  5  0  0  0  0
    0.8571   -0.4358    1.9283 C   0  0  0  0  0  0
   -0.5899   -0.8106    2.1198 C   0  0  0  0  0  0
   -1.1436   -1.8260    1.3669 C   0  0  0  0  0  0
   -2.4831   -2.1720    1.5457 C   0  0  0  0  0  0
   -3.2548   -1.4881    2.4859 C   0  0  0  0  0  0
   -2.6895   -0.4750    3.2323 C   0  0  0  0  0  0
   -1.3588   -0.1401    3.0539 C   0  0  0  0  0  0
   -3.0832   -3.2594    0.7415 C   0  3  0  0  0  0
   -4.3946   -3.4830    0.7975 N   0  0  0  0  0  0
   -4.7761   -4.2485    0.3399 H   0  0  0  0  0  0
   -4.9685   -2.8804    1.2959 H   0  0  0  0  0  0
   -2.3119   -4.0143   -0.0383 N   0  0  0  0  0  0
   -2.7053   -4.7271   -0.5656 H   0  0  0  0  0  0
   -1.3565   -3.8514   -0.0791 H   0  0  0  0  0  0
   -1.7979   -0.0261   -3.8149 H   0  0  0  0  0  0
   -3.7379   -1.2223   -4.6752 H   0  0  0  0  0  0
   -5.8568   -1.2459   -3.4313 H   0  0  0  0  0  0
   -6.0718   -0.0710   -1.3082 H   0  0  0  0  0  0
   -5.0499    1.3374    0.4595 H   0  0  0  0  0  0
   -3.1114    2.5366    1.3176 H   0  0  0  0  0  0
   -0.7774    1.3865   -2.0498 H   0  0  0  0  0  0
    0.3618    2.0989    2.3192 H   0  0  0  0  0  0
    0.4628    0.3436   -0.0409 H   0  0  0  0  0  0
    4.6432    0.6409   -1.5808 H   0  0  0  0  0  0
    4.8843    1.1914    0.0973 H   0  0  0  0  0  0
    5.2710   -1.1094    0.8414 H   0  0  0  0  0  0
    4.7408   -1.8440   -2.0738 H   0  0  0  0  0  0
    5.2951   -2.9703   -0.8121 H   0  0  0  0  0  0
    2.8463   -3.1346   -1.1050 H   0  0  0  0  0  0
    3.2394   -2.4853    0.5056 H   0  0  0  0  0  0
    1.4433   -1.1450   -0.4668 H   0  0  0  0  0  0
    2.4004   -0.8791   -1.9468 H   0  0  0  0  0  0
    1.4184   -1.3101    1.5987 H   0  0  0  0  0  0
    1.2670   -0.0754    2.8718 H   0  0  0  0  0  0
   -0.5412   -2.3513    0.6406 H   0  0  0  0  0  0
   -4.2925   -1.7512    2.6287 H   0  0  0  0  0  0
   -3.2858    0.0553    3.9600 H   0  0  0  0  0  0
   -0.9209    0.6539    3.6407 H   0  0  0  0  0  0
  1  2  1  0  0  0
  1 10  2  0  0  0
  1 41  1  0  0  0
  2  3  2  0  0  0
  2 42  1  0  0  0
  3  4  1  0  0  0
  3 43  1  0  0  0
  4  5  2  0  0  0
  4 44  1  0  0  0
  5  6  1  0  0  0
  5 10  1  0  0  0
  6  7  2  0  0  0
  6 45  1  0  0  0
  7  8  1  0  0  0
  7 46  1  0  0  0
  8  9  2  0  0  0
  8 11  1  0  0  0
  9 10  1  0  0  0
  9 47  1  0  0  0
 11 12  2  0  0  0
 11 13  2  0  0  0
 11 14  1  0  0  0
 14 15  1  0  0  0
 14 48  1  0  0  0
 15 16  1  0  0  0
 15 27  1  0  0  0
 15 49  1  0  0  0
 16 17  2  0  0  0
 16 18  1  0  0  0
 18 19  1  0  0  0
 18 23  1  0  0  0
 19 20  1  0  0  0
 19 50  1  0  0  0
 19 51  1  0  0  0
 20 21  1  0  0  0
 20 24  1  0  0  0
 20 52  1  0  0  0
 21 22  1  0  0  0
 21 53  1  0  0  0
 21 54  1  0  0  0
 22 23  1  0  0  0
 22 55  1  0  0  0
 22 56  1  0  0  0
 23 57  1  0  0  0
 23 58  1  0  0  0
 24 25  2  0  0  0
 24 26  1  0  0  0
 27 28  1  0  0  0
 27 59  1  0  0  0
 27 60  1  0  0  0
 28 29  1  0  0  0
 28 33  2  0  0  0
 29 30  2  0  0  0
 29 61  1  0  0  0
 30 31  1  0  0  0
 30 34  1  0  0  0
 31 32  2  0  0  0
 31 62  1  0  0  0
 32 33  1  0  0  0
 32 63  1  0  0  0
 33 64  1  0  0  0
 34 35  1  0  0  0
 34 38  1  0  0  0
 35 36  1  0  0  0
 35 37  1  0  0  0
 38 39  1  0  0  0
 38 40  1  0  0  0
M  CHG  2  26  -1  34   1
M  END
>  <Activity>
5.959

>  <set>
1

>  <Min_dist>
999.9

>  <Avg_dist>
999.9

$$$$
57
  Cerius2 12110215013D 1   1.00000                          
 
100103  0  0  0  0  0  0  0  0999 V2000
    3.2265   -3.5702   -0.3861 C   0  0  0  0  0  0
    1.9504   -3.1749    0.3112 C   0  0  0  0  0  0
    1.7656   -1.8695    0.7267 C   0  0  0  0  0  0
    0.5951   -1.5068    1.3663 C   0  0  0  0  0  0
   -0.3909   -2.4495    1.5901 C   0  0  0  0  0  0
   -0.2065   -3.7547    1.1739 C   0  0  0  0  0  0
    0.9622   -4.1164    0.5303 C   0  0  0  0  0  0
   -1.2812   -4.7825    1.4183 C   0  0  0  0  0  0
   -1.7540   -5.3541    0.0802 C   0  0  0  0  0  0
   -0.7196   -5.9113    2.2852 C   0  0  0  0  0  0
    0.3941   -0.0839    1.8202 C   0  0  0  0  0  0
   -1.1007    0.2426    1.8281 C   0  0  0  0  0  0
    0.9608    0.0863    3.2311 C   0  0  0  0  0  0
    3.0224   -0.6679    0.4414 S   0  0  0  0  0  0
    2.7265    0.4147    1.3131 O   0  0  0  0  0  0
    4.2465   -1.3890    0.4118 O   0  0  0  0  0  0
    2.8082   -0.0819   -1.0926 N   0  0  0  0  0  0
    1.5538    0.5830   -1.4541 C   0  0  0  0  0  0
    0.8993   -0.1620   -2.5889 C   0  0  0  0  0  0
    1.5335   -0.9770   -3.2249 O   0  0  0  0  0  0
   -0.3907    0.0774   -2.8969 N   0  0  0  0  0  0
   -1.1423    1.1330   -2.2044 C   0  0  0  0  0  0
   -2.4278    0.5281   -1.6314 C   0  0  0  0  0  0
   -3.2749    1.6214   -1.0329 C   0  0  0  0  0  0
   -2.8898    2.7711   -1.0611 O   0  0  0  0  0  0
   -4.4604    1.3215   -0.4663 N   0  0  0  0  0  0
   -5.2839    2.3844    0.1155 C   0  0  0  0  0  0
   -6.5483    1.7887    0.6790 C   0  0  0  0  0  0
   -6.5845    1.3592    1.9924 C   0  0  0  0  0  0
   -7.7443    0.8128    2.5092 C   0  0  0  0  0  0
   -8.8681    0.6962    1.7127 C   0  0  0  0  0  0
   -8.8322    1.1265    0.3995 C   0  0  0  0  0  0
   -7.6737    1.6769   -0.1160 C   0  0  0  0  0  0
   -3.2052   -0.1642   -2.7532 C   0  0  0  0  0  0
   -2.3584   -1.2961   -3.3397 C   0  0  0  0  0  0
   -1.0705   -0.7081   -3.9360 C   0  0  0  0  0  0
    1.8456    2.0206   -1.8889 C   0  0  0  0  0  0
    2.3627    2.8064   -0.7115 C   0  0  0  0  0  0
    3.7180    2.8527   -0.4564 C   0  0  0  0  0  0
    4.1951    3.5809    0.6336 C   0  0  0  0  0  0
    3.2971    4.2582    1.4595 C   0  0  0  0  0  0
    1.9446    4.2041    1.1938 C   0  0  0  0  0  0
    1.4781    3.4843    0.1079 C   0  0  0  0  0  0
    5.6471    3.6344    0.9132 C   0  3  0  0  0  0
    6.0994    4.3303    1.9544 N   0  0  0  0  0  0
    7.0513    4.3653    2.1376 H   0  0  0  0  0  0
    5.4770    4.8021    2.5296 H   0  0  0  0  0  0
    6.5014    2.9867    0.1236 N   0  0  0  0  0  0
    7.4533    3.0217    0.3069 H   0  0  0  0  0  0
    6.1719    2.4797   -0.6349 H   0  0  0  0  0  0
    4.1467   -4.2886    0.6030 C   0  0  0  0  0  0
    2.9017   -4.5058   -1.5523 C   0  0  0  0  0  0
    3.7254   -2.6779   -0.7642 H   0  0  0  0  0  0
   -1.3051   -2.1663    2.0905 H   0  0  0  0  0  0
    1.1063   -5.1361    0.2051 H   0  0  0  0  0  0
   -2.1217   -4.3145    1.9308 H   0  0  0  0  0  0
   -2.5313   -6.0975    0.2570 H   0  0  0  0  0  0
   -2.1541   -4.5500   -0.5374 H   0  0  0  0  0  0
   -0.9136   -5.8221   -0.4323 H   0  0  0  0  0  0
    0.1208   -6.3792    1.7727 H   0  0  0  0  0  0
   -0.3828   -5.5040    3.2385 H   0  0  0  0  0  0
   -1.4969   -6.6547    2.4620 H   0  0  0  0  0  0
    0.9098    0.5915    1.1375 H   0  0  0  0  0  0
   -1.4924    0.1763    0.8131 H   0  0  0  0  0  0
   -1.6245   -0.4686    2.4669 H   0  0  0  0  0  0
   -1.2500    1.2525    2.2100 H   0  0  0  0  0  0
    2.0257   -0.1463    3.2254 H   0  0  0  0  0  0
    0.8154    1.1155    3.5594 H   0  0  0  0  0  0
    0.4450   -0.5891    3.9137 H   0  0  0  0  0  0
    3.5132   -0.1790   -1.7517 H   0  0  0  0  0  0
    0.8861    0.5924   -0.5926 H   0  0  0  0  0  0
   -0.5376    1.5406   -1.3943 H   0  0  0  0  0  0
   -1.3939    1.9252   -2.9096 H   0  0  0  0  0  0
   -2.1752   -0.1997   -0.8603 H   0  0  0  0  0  0
   -4.7684    0.4020   -0.4437 H   0  0  0  0  0  0
   -4.7288    2.8790    0.9125 H   0  0  0  0  0  0
   -5.5372    3.1113   -0.6561 H   0  0  0  0  0  0
   -5.7065    1.4503    2.6147 H   0  0  0  0  0  0
   -7.7723    0.4766    3.5352 H   0  0  0  0  0  0
   -9.7740    0.2686    2.1163 H   0  0  0  0  0  0
   -9.7101    1.0351   -0.2228 H   0  0  0  0  0  0
   -7.6456    2.0131   -1.1420 H   0  0  0  0  0  0
   -4.1324   -0.5743   -2.3530 H   0  0  0  0  0  0
   -3.4360    0.5593   -3.5351 H   0  0  0  0  0  0
   -2.1065   -2.0071   -2.5530 H   0  0  0  0  0  0
   -2.9217   -1.8036   -4.1228 H   0  0  0  0  0  0
   -1.3188   -0.0674   -4.7821 H   0  0  0  0  0  0
   -0.4184   -1.5167   -4.2663 H   0  0  0  0  0  0
    2.5954    2.0159   -2.6801 H   0  0  0  0  0  0
    0.9297    2.4812   -2.2591 H   0  0  0  0  0  0
    4.4080    2.3260   -1.0991 H   0  0  0  0  0  0
    3.6603    4.8234    2.3051 H   0  0  0  0  0  0
    1.2485    4.7276    1.8324 H   0  0  0  0  0  0
    0.4183    3.4449   -0.0959 H   0  0  0  0  0  0
    5.0697   -4.5745    0.0986 H   0  0  0  0  0  0
    4.3781   -3.6221    1.4338 H   0  0  0  0  0  0
    3.6478   -5.1809    0.9811 H   0  0  0  0  0  0
    2.4028   -5.3981   -1.1742 H   0  0  0  0  0  0
    2.2462   -3.9940   -2.2569 H   0  0  0  0  0  0
    3.8247   -4.7917   -2.0567 H   0  0  0  0  0  0
  1  2  1  0  0  0
  1 51  1  0  0  0
  1 52  1  0  0  0
  1 53  1  0  0  0
  2  3  1  0  0  0
  2  7  2  0  0  0
  3  4  2  0  0  0
  3 14  1  0  0  0
  4  5  1  0  0  0
  4 11  1  0  0  0
  5  6  2  0  0  0
  5 54  1  0  0  0
  6  7  1  0  0  0
  6  8  1  0  0  0
  7 55  1  0  0  0
  8  9  1  0  0  0
  8 10  1  0  0  0
  8 56  1  0  0  0
  9 57  1  0  0  0
  9 58  1  0  0  0
  9 59  1  0  0  0
 10 60  1  0  0  0
 10 61  1  0  0  0
 10 62  1  0  0  0
 11 12  1  0  0  0
 11 13  1  0  0  0
 11 63  1  0  0  0
 12 64  1  0  0  0
 12 65  1  0  0  0
 12 66  1  0  0  0
 13 67  1  0  0  0
 13 68  1  0  0  0
 13 69  1  0  0  0
 14 15  2  0  0  0
 14 16  2  0  0  0
 14 17  1  0  0  0
 17 18  1  0  0  0
 17 70  1  0  0  0
 18 19  1  0  0  0
 18 37  1  0  0  0
 18 71  1  0  0  0
 19 20  2  0  0  0
 19 21  1  0  0  0
 21 22  1  0  0  0
 21 36  1  0  0  0
 22 23  1  0  0  0
 22 72  1  0  0  0
 22 73  1  0  0  0
 23 24  1  0  0  0
 23 34  1  0  0  0
 23 74  1  0  0  0
 24 25  2  0  0  0
 24 26  1  0  0  0
 26 27  1  0  0  0
 26 75  1  0  0  0
 27 28  1  0  0  0
 27 76  1  0  0  0
 27 77  1  0  0  0
 28 29  1  0  0  0
 28 33  2  0  0  0
 29 30  2  0  0  0
 29 78  1  0  0  0
 30 31  1  0  0  0
 30 79  1  0  0  0
 31 32  2  0  0  0
 31 80  1  0  0  0
 32 33  1  0  0  0
 32 81  1  0  0  0
 33 82  1  0  0  0
 34 35  1  0  0  0
 34 83  1  0  0  0
 34 84  1  0  0  0
 35 36  1  0  0  0
 35 85  1  0  0  0
 35 86  1  0  0  0
 36 87  1  0  0  0
 36 88  1  0  0  0
 37 38  1  0  0  0
 37 89  1  0  0  0
 37 90  1  0  0  0
 38 39  1  0  0  0
 38 43  2  0  0  0
 39 40  2  0  0  0
 39 91  1  0  0  0
 40 41  1  0  0  0
 40 44  1  0  0  0
 41 42  2  0  0  0
 41 92  1  0  0  0
 42 43  1  0  0  0
 42 93  1  0  0  0
 43 94  1  0  0  0
 44 45  1  0  0  0
 44 48  1  0  0  0
 45 46  1  0  0  0
 45 47  1  0  0  0
 48 49  1  0  0  0
 48 50  1  0  0  0
 51 95  1  0  0  0
 51 96  1  0  0  0
 51 97  1  0  0  0
 52 98  1  0  0  0
 52 99  1  0  0  0
 52100  1  0  0  0
M  CHG  1  44   1
M  END
>  <Activity>
5.745

>  <set>
1

>  <Min_dist>
999.9

>  <Avg_dist>
999.9

$$$$
59
  Cerius2 12110215013D 1   1.00000                          
 
 69 72  0  0  0  0  0  0  0  0999 V2000
   -3.2646    3.2630   -1.4391 C   0  0  0  0  0  0
   -4.5865    3.5800   -1.5121 C   0  0  0  0  0  0
   -5.4314    3.3884   -0.4209 C   0  0  0  0  0  0
   -4.9598    2.8784    0.7498 C   0  0  0  0  0  0
   -3.6011    2.5390    0.8628 C   0  0  0  0  0  0
   -3.0775    2.0105    2.0552 C   0  0  0  0  0  0
   -1.7560    1.6936    2.1281 C   0  0  0  0  0  0
   -0.9107    1.8854    1.0366 C   0  0  0  0  0  0
   -1.3821    2.3953   -0.1338 C   0  0  0  0  0  0
   -2.7414    2.7342   -0.2472 C   0  0  0  0  0  0
    0.7941    1.4620    1.1744 S   0  0  0  0  0  0
    1.4634    2.2268    0.1812 O   0  0  0  0  0  0
    1.0862    1.4840    2.5649 O   0  0  0  0  0  0
    0.9510   -0.1188    0.7067 N   0  0  0  0  0  0
    0.5601   -0.5248   -0.6456 C   0  0  0  0  0  0
   -0.6407   -1.4322   -0.5703 C   0  0  0  0  0  0
   -1.5813   -1.2563   -1.3153 O   0  0  0  0  0  0
   -0.6693   -2.4392    0.3251 N   0  0  0  0  0  0
   -1.8845   -3.2448    0.5071 C   0  0  0  0  0  0
   -2.9069   -2.8584   -0.5305 C   0  0  0  0  0  0
   -2.9654   -3.4645   -1.5793 O   0  0  0  0  0  0
   -3.7561   -1.8392   -0.2928 N   0  0  0  0  0  0
   -4.7500   -1.4636   -1.3015 C   0  0  0  0  0  0
   -1.5236   -4.7248    0.3462 C   0  0  0  0  0  0
   -0.3866   -5.0761    1.3085 C   0  0  0  0  0  0
    0.8483   -4.2381    0.9693 C   0  0  0  0  0  0
    0.5160   -2.7561    1.1333 C   0  0  0  0  0  0
    1.7204   -1.2684   -1.3102 C   0  0  0  0  0  0
    2.8962   -0.3372   -1.4558 C   0  0  0  0  0  0
    3.8335   -0.2487   -0.4469 C   0  0  0  0  0  0
    4.9213    0.6138   -0.5832 C   0  0  0  0  0  0
    5.0543    1.3821   -1.7404 C   0  0  0  0  0  0
    4.1105    1.2845   -2.7418 C   0  0  0  0  0  0
    3.0368    0.4229   -2.6030 C   0  0  0  0  0  0
    5.9299    0.7140    0.4951 C   0  3  0  0  0  0
    6.9678    1.5386    0.3620 N   0  0  0  0  0  0
    7.6289    1.6043    1.0688 H   0  0  0  0  0  0
    7.0624    2.0734   -0.4418 H   0  0  0  0  0  0
    5.8000   -0.0206    1.5990 N   0  0  0  0  0  0
    6.4611    0.0451    2.3059 H   0  0  0  0  0  0
    5.0443   -0.6210    1.6960 H   0  0  0  0  0  0
   -2.6224    3.4131   -2.2943 H   0  0  0  0  0  0
   -4.9861    3.9863   -2.4294 H   0  0  0  0  0  0
   -6.4762    3.6489   -0.5050 H   0  0  0  0  0  0
   -5.6264    2.7357    1.5874 H   0  0  0  0  0  0
   -3.7204    1.8570    2.9094 H   0  0  0  0  0  0
   -1.3562    1.2876    3.0456 H   0  0  0  0  0  0
   -0.7152    2.5391   -0.9709 H   0  0  0  0  0  0
    1.3017   -0.7759    1.3281 H   0  0  0  0  0  0
    0.3113    0.3592   -1.2327 H   0  0  0  0  0  0
   -2.2916   -3.0720    1.5033 H   0  0  0  0  0  0
   -3.7093   -1.3544    0.5460 H   0  0  0  0  0  0
   -5.3418   -0.6252   -0.9339 H   0  0  0  0  0  0
   -4.2424   -1.1742   -2.2217 H   0  0  0  0  0  0
   -5.4054   -2.3118   -1.4993 H   0  0  0  0  0  0
   -2.3952   -5.3386    0.5733 H   0  0  0  0  0  0
   -1.2035   -4.9119   -0.6789 H   0  0  0  0  0  0
   -0.6986   -4.8655    2.3314 H   0  0  0  0  0  0
   -0.1445   -6.1346    1.2136 H   0  0  0  0  0  0
    1.6648   -4.5055    1.6401 H   0  0  0  0  0  0
    1.1460   -4.4298   -0.0615 H   0  0  0  0  0  0
    1.3600   -2.1532    0.7984 H   0  0  0  0  0  0
    0.3048   -2.5428    2.1812 H   0  0  0  0  0  0
    2.0062   -2.1209   -0.6939 H   0  0  0  0  0  0
    1.4107   -1.6193   -2.2946 H   0  0  0  0  0  0
    3.7249   -0.8456    0.4466 H   0  0  0  0  0  0
    5.8942    2.0519   -1.8517 H   0  0  0  0  0  0
    4.2124    1.8786   -3.6380 H   0  0  0  0  0  0
    2.3007    0.3498   -3.3899 H   0  0  0  0  0  0
  1  2  1  0  0  0
  1 10  2  0  0  0
  1 42  1  0  0  0
  2  3  2  0  0  0
  2 43  1  0  0  0
  3  4  1  0  0  0
  3 44  1  0  0  0
  4  5  2  0  0  0
  4 45  1  0  0  0
  5  6  1  0  0  0
  5 10  1  0  0  0
  6  7  2  0  0  0
  6 46  1  0  0  0
  7  8  1  0  0  0
  7 47  1  0  0  0
  8  9  2  0  0  0
  8 11  1  0  0  0
  9 10  1  0  0  0
  9 48  1  0  0  0
 11 12  2  0  0  0
 11 13  2  0  0  0
 11 14  1  0  0  0
 14 15  1  0  0  0
 14 49  1  0  0  0
 15 16  1  0  0  0
 15 28  1  0  0  0
 15 50  1  0  0  0
 16 17  2  0  0  0
 16 18  1  0  0  0
 18 19  1  0  0  0
 18 27  1  0  0  0
 19 20  1  0  0  0
 19 24  1  0  0  0
 19 51  1  0  0  0
 20 21  2  0  0  0
 20 22  1  0  0  0
 22 23  1  0  0  0
 22 52  1  0  0  0
 23 53  1  0  0  0
 23 54  1  0  0  0
 23 55  1  0  0  0
 24 25  1  0  0  0
 24 56  1  0  0  0
 24 57  1  0  0  0
 25 26  1  0  0  0
 25 58  1  0  0  0
 25 59  1  0  0  0
 26 27  1  0  0  0
 26 60  1  0  0  0
 26 61  1  0  0  0
 27 62  1  0  0  0
 27 63  1  0  0  0
 28 29  1  0  0  0
 28 64  1  0  0  0
 28 65  1  0  0  0
 29 30  1  0  0  0
 29 34  2  0  0  0
 30 31  2  0  0  0
 30 66  1  0  0  0
 31 32  1  0  0  0
 31 35  1  0  0  0
 32 33  2  0  0  0
 32 67  1  0  0  0
 33 34  1  0  0  0
 33 68  1  0  0  0
 34 69  1  0  0  0
 35 36  1  0  0  0
 35 39  1  0  0  0
 36 37  1  0  0  0
 36 38  1  0  0  0
 39 40  1  0  0  0
 39 41  1  0  0  0
M  CHG  1  35   1
M  END
>  <Activity>
5.638

>  <set>
1

>  <Min_dist>
999.9

>  <Avg_dist>
999.9

$$$$
60
  Cerius2 12110215013D 1   1.00000                          
 
 61 64  0  0  0  0  0  0  0  0999 V2000
   -2.2161    0.9579   -3.1524 C   0  0  0  0  0  0
   -3.4164    0.7266   -3.7515 C   0  0  0  0  0  0
   -4.6113    0.9132   -3.0597 C   0  0  0  0  0  0
   -4.6133    1.3317   -1.7644 C   0  0  0  0  0  0
   -3.3938    1.5803   -1.1123 C   0  0  0  0  0  0
   -3.3557    2.0139    0.2240 C   0  0  0  0  0  0
   -2.1557    2.2451    0.8229 C   0  0  0  0  0  0
   -0.9604    2.0587    0.1308 C   0  0  0  0  0  0
   -0.9583    1.6402   -1.1642 C   0  0  0  0  0  0
   -2.1781    1.3908   -1.8163 C   0  0  0  0  0  0
    0.5712    2.3702    0.9444 S   0  0  0  0  0  0
    1.5368    2.5064   -0.0892 O   0  0  0  0  0  0
    0.2885    3.3445    1.9395 O   0  0  0  0  0  0
    0.9837    0.9935    1.7670 N   0  0  0  0  0  0
    1.2866   -0.2366    1.0311 C   0  0  0  0  0  0
    2.7737   -0.3349    0.8075 C   0  0  0  0  0  0
    3.5393    0.2157    1.5702 O   0  0  0  0  0  0
    3.2529   -1.0347   -0.2399 N   0  0  0  0  0  0
    2.4391   -1.6861   -1.2825 C   0  0  0  0  0  0
    3.3416   -2.8134   -1.8432 C   0  0  0  0  0  0
    4.7391   -2.1401   -1.8082 C   0  0  0  0  0  0
    4.6738   -1.2695   -0.5356 C   0  0  0  0  0  0
    5.3781    0.0412   -0.7746 C   0  0  0  0  0  0
    4.7650    1.0794   -0.6969 O   0  0  0  0  0  0
    6.6865    0.0552   -1.0738 O   0  5  0  0  0  0
    0.8115   -1.4451    1.8402 C   0  0  0  0  0  0
   -0.6923   -1.4258    1.9359 C   0  0  0  0  0  0
   -1.4498   -2.1167    1.0122 C   0  0  0  0  0  0
   -2.8418   -2.0982    1.1025 C   0  0  0  0  0  0
   -3.4592   -1.3803    2.1274 C   0  0  0  0  0  0
   -2.6907   -0.6937    3.0445 C   0  0  0  0  0  0
   -1.3102   -0.7203    2.9526 C   0  0  0  0  0  0
   -3.6601   -2.8364    0.1151 C   0  3  0  0  0  0
   -4.9862   -2.7167    0.1270 N   0  0  0  0  0  0
   -5.5275   -3.2600   -0.4669 H   0  0  0  0  0  0
   -5.4109   -2.0863    0.7295 H   0  0  0  0  0  0
   -3.0705   -3.6204   -0.7852 N   0  0  0  0  0  0
   -3.6069   -4.1044   -1.4324 H   0  0  0  0  0  0
   -2.1044   -3.7076   -0.7938 H   0  0  0  0  0  0
   -1.2978    0.8051   -3.6998 H   0  0  0  0  0  0
   -3.4428    0.3938   -4.7786 H   0  0  0  0  0  0
   -5.5501    0.7232   -3.5587 H   0  0  0  0  0  0
   -5.5473    1.4724   -1.2407 H   0  0  0  0  0  0
   -4.2739    2.1633    0.7727 H   0  0  0  0  0  0
   -2.1292    2.5782    1.8499 H   0  0  0  0  0  0
   -0.0243    1.5008   -1.6882 H   0  0  0  0  0  0
    1.0249    1.0014    2.7361 H   0  0  0  0  0  0
    0.7749   -0.2196    0.0689 H   0  0  0  0  0  0
    1.5323   -2.1069   -0.8482 H   0  0  0  0  0  0
    2.1891   -0.9739   -2.0688 H   0  0  0  0  0  0
    3.3151   -3.6921   -1.1988 H   0  0  0  0  0  0
    3.0572   -3.0704   -2.8636 H   0  0  0  0  0  0
    5.5262   -2.8895   -1.7256 H   0  0  0  0  0  0
    4.8892   -1.5172   -2.6900 H   0  0  0  0  0  0
    5.1387   -1.7959    0.2980 H   0  0  0  0  0  0
    1.1325   -2.3621    1.3461 H   0  0  0  0  0  0
    1.2399   -1.4030    2.8417 H   0  0  0  0  0  0
   -0.9661   -2.6702    0.2210 H   0  0  0  0  0  0
   -4.5364   -1.3619    2.2023 H   0  0  0  0  0  0
   -3.1673   -0.1374    3.8380 H   0  0  0  0  0  0
   -0.7129   -0.1812    3.6730 H   0  0  0  0  0  0
  1  2  1  0  0  0
  1 10  2  0  0  0
  1 40  1  0  0  0
  2  3  2  0  0  0
  2 41  1  0  0  0
  3  4  1  0  0  0
  3 42  1  0  0  0
  4  5  2  0  0  0
  4 43  1  0  0  0
  5  6  1  0  0  0
  5 10  1  0  0  0
  6  7  2  0  0  0
  6 44  1  0  0  0
  7  8  1  0  0  0
  7 45  1  0  0  0
  8  9  2  0  0  0
  8 11  1  0  0  0
  9 10  1  0  0  0
  9 46  1  0  0  0
 11 12  2  0  0  0
 11 13  2  0  0  0
 11 14  1  0  0  0
 14 15  1  0  0  0
 14 47  1  0  0  0
 15 16  1  0  0  0
 15 26  1  0  0  0
 15 48  1  0  0  0
 16 17  2  0  0  0
 16 18  1  0  0  0
 18 19  1  0  0  0
 18 22  1  0  0  0
 19 20  1  0  0  0
 19 49  1  0  0  0
 19 50  1  0  0  0
 20 21  1  0  0  0
 20 51  1  0  0  0
 20 52  1  0  0  0
 21 22  1  0  0  0
 21 53  1  0  0  0
 21 54  1  0  0  0
 22 23  1  0  0  0
 22 55  1  0  0  0
 23 24  2  0  0  0
 23 25  1  0  0  0
 26 27  1  0  0  0
 26 56  1  0  0  0
 26 57  1  0  0  0
 27 28  1  0  0  0
 27 32  2  0  0  0
 28 29  2  0  0  0
 28 58  1  0  0  0
 29 30  1  0  0  0
 29 33  1  0  0  0
 30 31  2  0  0  0
 30 59  1  0  0  0
 31 32  1  0  0  0
 31 60  1  0  0  0
 32 61  1  0  0  0
 33 34  1  0  0  0
 33 37  1  0  0  0
 34 35  1  0  0  0
 34 36  1  0  0  0
 37 38  1  0  0  0
 37 39  1  0  0  0
M  CHG  2  25  -1  33   1
M  END
>  <Activity>
5.538

>  <set>
1

>  <Min_dist>
999.9

>  <Avg_dist>
999.9

$$$$
62
  Cerius2 12110215013D 1   1.00000                          
 
 60 62  0  0  0  0  0  0  0  0999 V2000
   -3.6567    1.1504   -1.6939 C   0  0  0  0  0  0
   -5.1430    0.7773   -1.7419 C   0  0  0  0  0  0
   -5.7424    1.1277   -0.3733 C   0  0  0  0  0  0
   -5.2465    0.2159    0.5954 O   0  0  0  0  0  0
   -3.8968    0.2868    0.6703 C   0  0  0  0  0  0
   -3.3087   -0.0895    1.8800 C   0  0  0  0  0  0
   -1.9401   -0.0567    2.0343 C   0  0  0  0  0  0
   -1.1355    0.3504    0.9858 C   0  0  0  0  0  0
   -1.7102    0.7275   -0.2113 C   0  0  0  0  0  0
   -3.0869    0.7016   -0.3692 C   0  0  0  0  0  0
    0.6157    0.3880    1.1773 S   0  0  0  0  0  0
    1.0909    1.3067    0.2029 O   0  0  0  0  0  0
    0.8492    0.4785    2.5760 O   0  0  0  0  0  0
    1.1958   -1.0939    0.7192 N   0  0  0  0  0  0
    0.9665   -1.5810   -0.6433 C   0  0  0  0  0  0
    0.1877   -2.8701   -0.5914 C   0  0  0  0  0  0
   -0.5600   -3.1639   -1.5000 O   0  0  0  0  0  0
    0.3221   -3.6966    0.4647 N   0  0  0  0  0  0
   -0.4350   -4.9498    0.5151 C   0  0  0  0  0  0
    2.3114   -1.8250   -1.3307 C   0  0  0  0  0  0
    3.0902   -0.5359   -1.3826 C   0  0  0  0  0  0
    3.9406   -0.2031   -0.3480 C   0  0  0  0  0  0
    4.6611    0.9904   -0.3977 C   0  0  0  0  0  0
    4.5168    1.8404   -1.4948 C   0  0  0  0  0  0
    3.6635    1.4963   -2.5227 C   0  0  0  0  0  0
    2.9555    0.3086   -2.4699 C   0  0  0  0  0  0
    5.5743    1.3536    0.7085 C   0  3  0  0  0  0
    6.2607    2.4934    0.6581 N   0  0  0  0  0  0
    6.8593    2.7314    1.3833 H   0  0  0  0  0  0
    6.1621    3.0856   -0.1037 H   0  0  0  0  0  0
    5.7095    0.5406    1.7542 N   0  0  0  0  0  0
    6.3082    0.7787    2.4794 H   0  0  0  0  0  0
    5.2095   -0.2898    1.7909 H   0  0  0  0  0  0
   -5.3405    2.5528    0.0120 C   0  0  0  0  0  0
   -7.2674    1.0241   -0.4406 C   0  0  0  0  0  0
   -3.1283    0.6523   -2.5068 H   0  0  0  0  0  0
   -3.5476    2.2305   -1.7916 H   0  0  0  0  0  0
   -5.6441    1.3481   -2.5237 H   0  0  0  0  0  0
   -5.2519   -0.2903   -1.9326 H   0  0  0  0  0  0
   -3.9324   -0.4086    2.7019 H   0  0  0  0  0  0
   -1.4956   -0.3487    2.9742 H   0  0  0  0  0  0
   -1.0825    1.0451   -1.0307 H   0  0  0  0  0  0
    1.6874   -1.6393    1.3530 H   0  0  0  0  0  0
    0.4011   -0.8373   -1.2047 H   0  0  0  0  0  0
    0.9201   -3.4617    1.1914 H   0  0  0  0  0  0
   -0.1979   -5.4807    1.4370 H   0  0  0  0  0  0
   -1.5024   -4.7308    0.4862 H   0  0  0  0  0  0
   -0.1681   -5.5702   -0.3404 H   0  0  0  0  0  0
    2.8768   -2.5687   -0.7693 H   0  0  0  0  0  0
    2.1408   -2.1875   -2.3444 H   0  0  0  0  0  0
    4.0477   -0.8650    0.4987 H   0  0  0  0  0  0
    5.0716    2.7659   -1.5390 H   0  0  0  0  0  0
    3.5506    2.1536   -3.3723 H   0  0  0  0  0  0
    2.2887    0.0437   -3.2771 H   0  0  0  0  0  0
   -5.7669    2.8003    0.9841 H   0  0  0  0  0  0
   -4.2540    2.6226    0.0633 H   0  0  0  0  0  0
   -5.7144    3.2508   -0.7371 H   0  0  0  0  0  0
   -7.6917    1.2732    0.5321 H   0  0  0  0  0  0
   -7.6460    1.7184   -1.1907 H   0  0  0  0  0  0
   -7.5509    0.0069   -0.7110 H   0  0  0  0  0  0
  1  2  1  0  0  0
  1 10  1  0  0  0
  1 36  1  0  0  0
  1 37  1  0  0  0
  2  3  1  0  0  0
  2 38  1  0  0  0
  2 39  1  0  0  0
  3  4  1  0  0  0
  3 34  1  0  0  0
  3 35  1  0  0  0
  4  5  1  0  0  0
  5  6  1  0  0  0
  5 10  2  0  0  0
  6  7  2  0  0  0
  6 40  1  0  0  0
  7  8  1  0  0  0
  7 41  1  0  0  0
  8  9  2  0  0  0
  8 11  1  0  0  0
  9 10  1  0  0  0
  9 42  1  0  0  0
 11 12  2  0  0  0
 11 13  2  0  0  0
 11 14  1  0  0  0
 14 15  1  0  0  0
 14 43  1  0  0  0
 15 16  1  0  0  0
 15 20  1  0  0  0
 15 44  1  0  0  0
 16 17  2  0  0  0
 16 18  1  0  0  0
 18 19  1  0  0  0
 18 45  1  0  0  0
 19 46  1  0  0  0
 19 47  1  0  0  0
 19 48  1  0  0  0
 20 21  1  0  0  0
 20 49  1  0  0  0
 20 50  1  0  0  0
 21 22  1  0  0  0
 21 26  2  0  0  0
 22 23  2  0  0  0
 22 51  1  0  0  0
 23 24  1  0  0  0
 23 27  1  0  0  0
 24 25  2  0  0  0
 24 52  1  0  0  0
 25 26  1  0  0  0
 25 53  1  0  0  0
 26 54  1  0  0  0
 27 28  1  0  0  0
 27 31  1  0  0  0
 28 29  1  0  0  0
 28 30  1  0  0  0
 31 32  1  0  0  0
 31 33  1  0  0  0
 34 55  1  0  0  0
 34 56  1  0  0  0
 34 57  1  0  0  0
 35 58  1  0  0  0
 35 59  1  0  0  0
 35 60  1  0  0  0
M  CHG  1  27   1
M  END
>  <Activity>
5.509

>  <set>
1

>  <Min_dist>
999.9

>  <Avg_dist>
999.9

$$$$
63
  Cerius2 12110215013D 1   1.00000                          
 
 52 54  0  0  0  0  0  0  0  0999 V2000
   -4.0103    1.6318   -1.6926 C   0  0  0  0  0  0
   -5.3605    1.7382   -1.8295 C   0  0  0  0  0  0
   -6.2144    1.4474   -0.7676 C   0  0  0  0  0  0
   -5.7234    1.0480    0.4375 C   0  0  0  0  0  0
   -4.3352    0.9262    0.6167 C   0  0  0  0  0  0
   -3.7910    0.5172    1.8463 C   0  0  0  0  0  0
   -2.4411    0.4108    1.9831 C   0  0  0  0  0  0
   -1.5869    0.7020    0.9209 C   0  0  0  0  0  0
   -2.0778    1.1013   -0.2839 C   0  0  0  0  0  0
   -3.4664    1.2224   -0.4635 C   0  0  0  0  0  0
    0.1547    0.5514    1.1416 S   0  0  0  0  0  0
    0.7427    1.3838    0.1514 O   0  0  0  0  0  0
    0.3769    0.6555    2.5413 O   0  0  0  0  0  0
    0.5734   -0.9979    0.7336 N   0  0  0  0  0  0
    0.3109   -1.4955   -0.6191 C   0  0  0  0  0  0
   -0.6067   -2.6887   -0.5461 C   0  0  0  0  0  0
   -1.3694   -2.9239   -1.4594 O   0  0  0  0  0  0
   -0.5799   -3.4945    0.5339 N   0  0  0  0  0  0
   -1.4719   -4.6544    0.6048 C   0  0  0  0  0  0
    1.6301   -1.9061   -1.2764 C   0  0  0  0  0  0
    2.5477   -0.7129   -1.3493 C   0  0  0  0  0  0
    3.4149   -0.4467   -0.3094 C   0  0  0  0  0  0
    4.2640    0.6580   -0.3787 C   0  0  0  0  0  0
    4.2304    1.4871   -1.5005 C   0  0  0  0  0  0
    3.3590    1.2101   -2.5335 C   0  0  0  0  0  0
    2.5230    0.1098   -2.4610 C   0  0  0  0  0  0
    5.1959    0.9496    0.7330 C   0  3  0  0  0  0
    6.0052    2.0047    0.6640 N   0  0  0  0  0  0
    6.6161    2.1958    1.3928 H   0  0  0  0  0  0
    5.9837    2.5822   -0.1151 H   0  0  0  0  0  0
    5.2253    0.1569    1.8024 N   0  0  0  0  0  0
    5.8363    0.3480    2.5312 H   0  0  0  0  0  0
    4.6358   -0.6118    1.8527 H   0  0  0  0  0  0
   -3.3608    1.8566   -2.5256 H   0  0  0  0  0  0
   -5.7760    2.0532   -2.7753 H   0  0  0  0  0  0
   -7.2819    1.5406   -0.9026 H   0  0  0  0  0  0
   -6.3973    0.8262    1.2518 H   0  0  0  0  0  0
   -4.4406    0.2889    2.6783 H   0  0  0  0  0  0
   -2.0256    0.0963    2.9290 H   0  0  0  0  0  0
   -1.4037    1.3242   -1.0978 H   0  0  0  0  0  0
    0.9924   -1.5760    1.3902 H   0  0  0  0  0  0
   -0.1605   -0.7102   -1.2100 H   0  0  0  0  0  0
    0.0301   -3.3063    1.2643 H   0  0  0  0  0  0
   -1.3083   -5.1817    1.5446 H   0  0  0  0  0  0
   -2.5079   -4.3198    0.5516 H   0  0  0  0  0  0
   -1.2633   -5.3247   -0.2290 H   0  0  0  0  0  0
    2.1015   -2.6914   -0.6854 H   0  0  0  0  0  0
    1.4348   -2.2763   -2.2828 H   0  0  0  0  0  0
    3.4359   -1.0919    0.5564 H   0  0  0  0  0  0
    4.8851    2.3440   -1.5599 H   0  0  0  0  0  0
    3.3318    1.8512   -3.4021 H   0  0  0  0  0  0
    1.8425   -0.1028   -3.2722 H   0  0  0  0  0  0
  1  2  1  0  0  0
  1 10  2  0  0  0
  1 34  1  0  0  0
  2  3  2  0  0  0
  2 35  1  0  0  0
  3  4  1  0  0  0
  3 36  1  0  0  0
  4  5  2  0  0  0
  4 37  1  0  0  0
  5  6  1  0  0  0
  5 10  1  0  0  0
  6  7  2  0  0  0
  6 38  1  0  0  0
  7  8  1  0  0  0
  7 39  1  0  0  0
  8  9  2  0  0  0
  8 11  1  0  0  0
  9 10  1  0  0  0
  9 40  1  0  0  0
 11 12  2  0  0  0
 11 13  2  0  0  0
 11 14  1  0  0  0
 14 15  1  0  0  0
 14 41  1  0  0  0
 15 16  1  0  0  0
 15 20  1  0  0  0
 15 42  1  0  0  0
 16 17  2  0  0  0
 16 18  1  0  0  0
 18 19  1  0  0  0
 18 43  1  0  0  0
 19 44  1  0  0  0
 19 45  1  0  0  0
 19 46  1  0  0  0
 20 21  1  0  0  0
 20 47  1  0  0  0
 20 48  1  0  0  0
 21 22  1  0  0  0
 21 26  2  0  0  0
 22 23  2  0  0  0
 22 49  1  0  0  0
 23 24  1  0  0  0
 23 27  1  0  0  0
 24 25  2  0  0  0
 24 50  1  0  0  0
 25 26  1  0  0  0
 25 51  1  0  0  0
 26 52  1  0  0  0
 27 28  1  0  0  0
 27 31  1  0  0  0
 28 29  1  0  0  0
 28 30  1  0  0  0
 31 32  1  0  0  0
 31 33  1  0  0  0
M  CHG  1  27   1
M  END
>  <Activity>
5.244

>  <set>
1

>  <Min_dist>
999.9

>  <Avg_dist>
999.9

$$$$
64
  Cerius2 12110215013D 1   1.00000                          
 
 58 60  0  0  0  0  0  0  0  0999 V2000
   -3.6983    2.5159   -1.4641 C   0  0  0  0  0  0
   -5.0335    2.7486   -1.5910 C   0  0  0  0  0  0
   -5.9278    2.3561   -0.5973 C   0  0  0  0  0  0
   -5.4923    1.7282    0.5293 C   0  0  0  0  0  0
   -4.1212    1.4704    0.6956 C   0  0  0  0  0  0
   -3.6340    0.8249    1.8451 C   0  0  0  0  0  0
   -2.2991    0.5923    1.9719 C   0  0  0  0  0  0
   -1.4045    0.9852    0.9779 C   0  0  0  0  0  0
   -1.8398    1.6129   -0.1484 C   0  0  0  0  0  0
   -3.2114    1.8701   -0.3152 C   0  0  0  0  0  0
    0.3159    0.6648    1.1830 S   0  0  0  0  0  0
    0.9850    1.5990    0.3470 O   0  0  0  0  0  0
    0.5179    0.5213    2.5822 O   0  0  0  0  0  0
    0.6235   -0.8252    0.5289 N   0  0  0  0  0  0
    0.3506   -1.0732   -0.8889 C   0  0  0  0  0  0
   -0.6564   -2.1868   -1.0193 C   0  0  0  0  0  0
   -1.4166   -2.2094   -1.9640 O   0  0  0  0  0  0
   -0.7122   -3.1576   -0.0861 N   0  0  0  0  0  0
   -1.6912   -4.2401   -0.2128 C   0  0  0  0  0  0
   -1.1317   -5.5114    0.4289 C   0  0  0  0  0  0
   -2.9880   -3.8403    0.4938 C   0  0  0  0  0  0
    1.6474   -1.4730   -1.5955 C   0  0  0  0  0  0
    2.6544   -0.3595   -1.4651 C   0  0  0  0  0  0
    3.5187   -0.3352   -0.3896 C   0  0  0  0  0  0
    4.4505    0.6960   -0.2707 C   0  0  0  0  0  0
    4.5022    1.6972   -1.2413 C   0  0  0  0  0  0
    3.6327    1.6616   -2.3117 C   0  0  0  0  0  0
    2.7142    0.6331   -2.4268 C   0  0  0  0  0  0
    5.3799    0.7284    0.8803 C   0  3  0  0  0  0
    6.2683    1.7140    0.9911 N   0  0  0  0  0  0
    6.8775    1.7353    1.7456 H   0  0  0  0  0  0
    6.3062    2.4108    0.3173 H   0  0  0  0  0  0
    5.3279   -0.2280    1.8051 N   0  0  0  0  0  0
    5.9371   -0.2068    2.5596 H   0  0  0  0  0  0
    4.6807   -0.9460    1.7244 H   0  0  0  0  0  0
   -3.0173    2.8221   -2.2444 H   0  0  0  0  0  0
   -5.4052    3.2452   -2.4751 H   0  0  0  0  0  0
   -6.9822    2.5533   -0.7225 H   0  0  0  0  0  0
   -6.1971    1.4299    1.2914 H   0  0  0  0  0  0
   -4.3153    0.5154    2.6238 H   0  0  0  0  0  0
   -1.9274    0.0961    2.8562 H   0  0  0  0  0  0
   -1.1348    1.9123   -0.9098 H   0  0  0  0  0  0
    0.9843   -1.5337    1.0846 H   0  0  0  0  0  0
   -0.0480   -0.1676   -1.3461 H   0  0  0  0  0  0
   -0.1042   -3.1395    0.6695 H   0  0  0  0  0  0
   -1.8942   -4.4247   -1.2677 H   0  0  0  0  0  0
   -1.8600   -6.3168    0.3346 H   0  0  0  0  0  0
   -0.2078   -5.7962   -0.0745 H   0  0  0  0  0  0
   -0.9286   -5.3268    1.4838 H   0  0  0  0  0  0
   -2.7849   -3.6558    1.5487 H   0  0  0  0  0  0
   -3.3865   -2.9347    0.0366 H   0  0  0  0  0  0
   -3.7163   -4.6458    0.3995 H   0  0  0  0  0  0
    2.0460   -2.3787   -1.1384 H   0  0  0  0  0  0
    1.4443   -1.6576   -2.6504 H   0  0  0  0  0  0
    3.4735   -1.1127    0.3586 H   0  0  0  0  0  0
    5.2212    2.4984   -1.1546 H   0  0  0  0  0  0
    3.6715    2.4360   -3.0635 H   0  0  0  0  0  0
    2.0356    0.6096   -3.2666 H   0  0  0  0  0  0
  1  2  1  0  0  0
  1 10  2  0  0  0
  1 36  1  0  0  0
  2  3  2  0  0  0
  2 37  1  0  0  0
  3  4  1  0  0  0
  3 38  1  0  0  0
  4  5  2  0  0  0
  4 39  1  0  0  0
  5  6  1  0  0  0
  5 10  1  0  0  0
  6  7  2  0  0  0
  6 40  1  0  0  0
  7  8  1  0  0  0
  7 41  1  0  0  0
  8  9  2  0  0  0
  8 11  1  0  0  0
  9 10  1  0  0  0
  9 42  1  0  0  0
 11 12  2  0  0  0
 11 13  2  0  0  0
 11 14  1  0  0  0
 14 15  1  0  0  0
 14 43  1  0  0  0
 15 16  1  0  0  0
 15 22  1  0  0  0
 15 44  1  0  0  0
 16 17  2  0  0  0
 16 18  1  0  0  0
 18 19  1  0  0  0
 18 45  1  0  0  0
 19 20  1  0  0  0
 19 21  1  0  0  0
 19 46  1  0  0  0
 20 47  1  0  0  0
 20 48  1  0  0  0
 20 49  1  0  0  0
 21 50  1  0  0  0
 21 51  1  0  0  0
 21 52  1  0  0  0
 22 23  1  0  0  0
 22 53  1  0  0  0
 22 54  1  0  0  0
 23 24  1  0  0  0
 23 28  2  0  0  0
 24 25  2  0  0  0
 24 55  1  0  0  0
 25 26  1  0  0  0
 25 29  1  0  0  0
 26 27  2  0  0  0
 26 56  1  0  0  0
 27 28  1  0  0  0
 27 57  1  0  0  0
 28 58  1  0  0  0
 29 30  1  0  0  0
 29 33  1  0  0  0
 30 31  1  0  0  0
 30 32  1  0  0  0
 33 34  1  0  0  0
 33 35  1  0  0  0
M  CHG  1  29   1
M  END
>  <Activity>
5.208

>  <set>
1

>  <Min_dist>
999.9

>  <Avg_dist>
999.9

$$$$
66
  Cerius2 12110215013D 1   1.00000                          
 
 49 50  0  0  0  0  0  0  0  0999 V2000
    5.5681    1.5409    1.7315 C   0  0  0  0  0  0
    5.1860    0.8640    0.0925 S   0  0  0  0  0  0
    4.8968    1.8925   -0.8444 O   0  0  0  0  0  0
    6.0266   -0.2357   -0.2288 O   0  0  0  0  0  0
    3.7108    0.1454    0.3157 N   0  0  0  0  0  0
    2.4697    0.9035    0.1034 C   0  0  0  0  0  0
    1.6027    0.1496   -0.9126 C   0  0  0  0  0  0
    1.5111   -1.2577   -0.4991 N   0  0  0  0  0  0
    0.3105   -1.8428   -0.3184 C   0  0  0  0  0  0
    0.2460   -2.9724    0.1182 O   0  0  0  0  0  0
   -0.9518   -1.0933   -0.6587 C   0  0  0  0  0  0
   -1.3569   -0.2125    0.5250 C   0  0  0  0  0  0
   -2.6192    0.5370    0.1847 C   0  0  0  0  0  0
   -3.8489   -0.0185    0.4738 C   0  0  0  0  0  0
   -5.0164    0.6768    0.1585 C   0  0  0  0  0  0
   -4.9326    1.9308   -0.4478 C   0  0  0  0  0  0
   -3.6972    2.4752   -0.7317 C   0  0  0  0  0  0
   -2.5427    1.7827   -0.4117 C   0  0  0  0  0  0
   -6.3383    0.0869    0.4653 C   0  3  0  0  0  0
   -7.4509    0.7529    0.1632 N   0  0  0  0  0  0
   -8.3174    0.3662    0.3643 H   0  0  0  0  0  0
   -7.3949    1.6249   -0.2580 H   0  0  0  0  0  0
   -6.4151   -1.1100    1.0435 N   0  0  0  0  0  0
   -7.2816   -1.4968    1.2447 H   0  0  0  0  0  0
   -5.6045   -1.5953    1.2636 H   0  0  0  0  0  0
   -2.0275   -2.0513   -0.9469 N   0  3  0  0  0  0
   -2.1883   -2.6303   -0.1364 H   0  0  0  0  0  0
   -2.8727   -1.5495   -1.1748 H   0  0  0  0  0  0
   -1.7604   -2.6321   -1.7275 H   0  0  0  0  0  0
    2.7522   -2.0157   -0.2868 C   0  0  0  0  0  0
    3.6191   -1.2635    0.7237 C   0  0  0  0  0  0
    6.5342    2.0447    1.7003 H   0  0  0  0  0  0
    4.7956    2.2540    2.0192 H   0  0  0  0  0  0
    5.6042    0.7308    2.4598 H   0  0  0  0  0  0
    1.9314    0.9955    1.0467 H   0  0  0  0  0  0
    2.7080    1.8945   -0.2829 H   0  0  0  0  0  0
    0.6054    0.5887   -0.9395 H   0  0  0  0  0  0
    2.0592    0.2117   -1.9004 H   0  0  0  0  0  0
   -0.7781   -0.4678   -1.5343 H   0  0  0  0  0  0
   -1.5306   -0.8380    1.4006 H   0  0  0  0  0  0
   -0.5587    0.4983    0.7388 H   0  0  0  0  0  0
   -3.9073   -0.9896    0.9428 H   0  0  0  0  0  0
   -5.8329    2.4738   -0.6947 H   0  0  0  0  0  0
   -3.6309    3.4455   -1.2013 H   0  0  0  0  0  0
   -1.5779    2.2132   -0.6360 H   0  0  0  0  0  0
    2.5140   -3.0067    0.0995 H   0  0  0  0  0  0
    3.2905   -2.1078   -1.2301 H   0  0  0  0  0  0
    4.6160   -1.7035    0.7496 H   0  0  0  0  0  0
    3.1642   -1.3236    1.7124 H   0  0  0  0  0  0
  1  2  1  0  0  0
  1 32  1  0  0  0
  1 33  1  0  0  0
  1 34  1  0  0  0
  2  3  2  0  0  0
  2  4  2  0  0  0
  2  5  1  0  0  0
  5  6  1  0  0  0
  5 31  1  0  0  0
  6  7  1  0  0  0
  6 35  1  0  0  0
  6 36  1  0  0  0
  7  8  1  0  0  0
  7 37  1  0  0  0
  7 38  1  0  0  0
  8  9  1  0  0  0
  8 30  1  0  0  0
  9 10  2  0  0  0
  9 11  1  0  0  0
 11 12  1  0  0  0
 11 26  1  0  0  0
 11 39  1  0  0  0
 12 13  1  0  0  0
 12 40  1  0  0  0
 12 41  1  0  0  0
 13 14  1  0  0  0
 13 18  2  0  0  0
 14 15  2  0  0  0
 14 42  1  0  0  0
 15 16  1  0  0  0
 15 19  1  0  0  0
 16 17  2  0  0  0
 16 43  1  0  0  0
 17 18  1  0  0  0
 17 44  1  0  0  0
 18 45  1  0  0  0
 19 20  1  0  0  0
 19 23  1  0  0  0
 20 21  1  0  0  0
 20 22  1  0  0  0
 23 24  1  0  0  0
 23 25  1  0  0  0
 26 27  1  0  0  0
 26 28  1  0  0  0
 26 29  1  0  0  0
 30 31  1  0  0  0
 30 46  1  0  0  0
 30 47  1  0  0  0
 31 48  1  0  0  0
 31 49  1  0  0  0
M  CHG  2  19   1  26   1
M  END
>  <Activity>
4.886

>  <set>
1

>  <Min_dist>
999.9

>  <Avg_dist>
999.9

$$$$
68
  Cerius2 12110215013D 1   1.00000                          
 
 59 60  0  0  0  0  0  0  0  0999 V2000
   -2.1936   -0.3597    2.7221 C   0  0  0  0  0  0
   -2.5851    0.3163    1.4334 C   0  0  0  0  0  0
   -1.6077    0.7677    0.5654 C   0  0  0  0  0  0
   -1.9635    1.3882   -0.6176 C   0  0  0  0  0  0
   -3.2972    1.5589   -0.9356 C   0  0  0  0  0  0
   -4.2795    1.1066   -0.0669 C   0  0  0  0  0  0
   -3.9197    0.4794    1.1174 C   0  0  0  0  0  0
   -5.5920    1.2737   -0.3772 O   0  0  0  0  0  0
   -6.3456    0.7118    0.6991 C   0  0  0  0  0  0
   -3.6844    2.2363   -2.2248 C   0  0  0  0  0  0
   -0.8958    1.8794   -1.5609 C   0  0  0  0  0  0
    0.0940    0.5521    0.9683 S   0  0  0  0  0  0
    0.8143    1.3582    0.0460 O   0  0  0  0  0  0
    0.1714    0.6525    2.3836 O   0  0  0  0  0  0
    0.4942   -1.0134    0.6057 N   0  0  0  0  0  0
    0.3569   -1.5053   -0.7674 C   0  0  0  0  0  0
   -0.6080   -2.6626   -0.7923 C   0  0  0  0  0  0
   -1.2786   -2.8719   -1.7809 O   0  0  0  0  0  0
   -0.7257   -3.4651    0.2841 N   0  0  0  0  0  0
   -1.6636   -4.5902    0.2600 C   0  0  0  0  0  0
    1.7214   -1.9677   -1.2823 C   0  0  0  0  0  0
    2.6863   -0.8104   -1.2574 C   0  0  0  0  0  0
    3.4486   -0.5736   -0.1318 C   0  0  0  0  0  0
    4.3416    0.4979   -0.1106 C   0  0  0  0  0  0
    4.4579    1.3238   -1.2293 C   0  0  0  0  0  0
    3.6902    1.0765   -2.3484 C   0  0  0  0  0  0
    2.8100    0.0089   -2.3651 C   0  0  0  0  0  0
    5.1618    0.7578    1.0933 C   0  3  0  0  0  0
    6.0132    1.7812    1.1105 N   0  0  0  0  0  0
    6.5509    1.9516    1.8997 H   0  0  0  0  0  0
    6.0959    2.3565    0.3339 H   0  0  0  0  0  0
    5.0482   -0.0318    2.1593 N   0  0  0  0  0  0
    5.5859    0.1385    2.9485 H   0  0  0  0  0  0
    4.4279   -0.7775    2.1467 H   0  0  0  0  0  0
   -2.0964    0.3877    3.5095 H   0  0  0  0  0  0
   -2.9601   -1.0830    3.0004 H   0  0  0  0  0  0
   -1.2413   -0.8728    2.5886 H   0  0  0  0  0  0
   -4.6827    0.1260    1.7952 H   0  0  0  0  0  0
   -7.4104    0.8229    0.4939 H   0  0  0  0  0  0
   -6.1033   -0.3463    0.7988 H   0  0  0  0  0  0
   -6.0981    1.2301    1.6255 H   0  0  0  0  0  0
   -3.7803    1.4896   -3.0131 H   0  0  0  0  0  0
   -4.6365    2.7504   -2.0935 H   0  0  0  0  0  0
   -2.9163    2.9589   -2.5005 H   0  0  0  0  0  0
   -0.4315    1.0283   -2.0590 H   0  0  0  0  0  0
   -1.3438    2.5366   -2.3062 H   0  0  0  0  0  0
   -0.1398    2.4286   -0.9997 H   0  0  0  0  0  0
    0.8195   -1.6047    1.3025 H   0  0  0  0  0  0
   -0.0195   -0.7047   -1.4042 H   0  0  0  0  0  0
   -0.1893   -3.2977    1.0748 H   0  0  0  0  0  0
   -1.6200   -5.1201    1.2115 H   0  0  0  0  0  0
   -2.6748   -4.2168    0.0981 H   0  0  0  0  0  0
   -1.3940   -5.2708   -0.5476 H   0  0  0  0  0  0
    2.0978   -2.7683   -0.6455 H   0  0  0  0  0  0
    1.6192   -2.3337   -2.3039 H   0  0  0  0  0  0
    3.3538   -1.2162    0.7310 H   0  0  0  0  0  0
    5.1473    2.1552   -1.2188 H   0  0  0  0  0  0
    3.7790    1.7153   -3.2147 H   0  0  0  0  0  0
    2.2111   -0.1805   -3.2436 H   0  0  0  0  0  0
  1  2  1  0  0  0
  1 35  1  0  0  0
  1 36  1  0  0  0
  1 37  1  0  0  0
  2  3  1  0  0  0
  2  7  2  0  0  0
  3  4  2  0  0  0
  3 12  1  0  0  0
  4  5  1  0  0  0
  4 11  1  0  0  0
  5  6  2  0  0  0
  5 10  1  0  0  0
  6  7  1  0  0  0
  6  8  1  0  0  0
  7 38  1  0  0  0
  8  9  1  0  0  0
  9 39  1  0  0  0
  9 40  1  0  0  0
  9 41  1  0  0  0
 10 42  1  0  0  0
 10 43  1  0  0  0
 10 44  1  0  0  0
 11 45  1  0  0  0
 11 46  1  0  0  0
 11 47  1  0  0  0
 12 13  2  0  0  0
 12 14  2  0  0  0
 12 15  1  0  0  0
 15 16  1  0  0  0
 15 48  1  0  0  0
 16 17  1  0  0  0
 16 21  1  0  0  0
 16 49  1  0  0  0
 17 18  2  0  0  0
 17 19  1  0  0  0
 19 20  1  0  0  0
 19 50  1  0  0  0
 20 51  1  0  0  0
 20 52  1  0  0  0
 20 53  1  0  0  0
 21 22  1  0  0  0
 21 54  1  0  0  0
 21 55  1  0  0  0
 22 23  1  0  0  0
 22 27  2  0  0  0
 23 24  2  0  0  0
 23 56  1  0  0  0
 24 25  1  0  0  0
 24 28  1  0  0  0
 25 26  2  0  0  0
 25 57  1  0  0  0
 26 27  1  0  0  0
 26 58  1  0  0  0
 27 59  1  0  0  0
 28 29  1  0  0  0
 28 32  1  0  0  0
 29 30  1  0  0  0
 29 31  1  0  0  0
 32 33  1  0  0  0
 32 34  1  0  0  0
M  CHG  1  28   1
M  END
>  <Activity>
4.77

>  <set>
1

>  <Min_dist>
999.9

>  <Avg_dist>
999.9

$$$$
69
  Cerius2 12110215013D 1   1.00000                          
Structure written by Cerius2 SD Exporter
 47 48  0  0  0  0  0  0  0  0999 V2000
    1.8420    0.1188    1.4125 N   0  3  0  0  0  0
    0.9510   -0.8375    0.7508 C   0  0  0  0  0  0
   -0.2684   -1.0634    1.6070 C   0  0  0  0  0  0
   -0.2585   -0.7360    2.7748 O   0  0  0  0  0  0
   -1.3700   -1.6291    1.0751 N   0  0  0  0  0  0
   -2.5419   -1.9177    1.9137 C   0  0  0  0  0  0
   -3.7684   -1.2382    1.2925 C   0  0  0  0  0  0
   -3.9362   -1.7127   -0.2022 C   0  0  0  0  0  0
   -2.6476   -1.2883   -0.9753 C   0  0  0  0  0  0
   -1.4231   -1.9627   -0.3552 C   0  0  0  0  0  0
    1.6858   -2.1644    0.5498 C   0  0  0  0  0  0
    2.8644   -1.9523   -0.3651 C   0  0  0  0  0  0
    4.0941   -1.6159    0.1630 C   0  0  0  0  0  0
    5.1842   -1.4203   -0.6852 C   0  0  0  0  0  0
    5.0233   -1.5665   -2.0636 C   0  0  0  0  0  0
    3.7887   -1.9030   -2.5790 C   0  0  0  0  0  0
    2.7126   -2.1008   -1.7320 C   0  0  0  0  0  0
    6.5055   -1.0590   -0.1257 C   0  3  0  0  0  0
    7.5441   -0.8730   -0.9379 N   0  0  0  0  0  0
    8.4103   -0.6361   -0.5711 H   0  0  0  0  0  0
    7.4346   -0.9744   -1.8963 H   0  0  0  0  0  0
    6.6559   -0.9198    1.1899 N   0  0  0  0  0  0
    2.2052   -0.0831    2.2889 H   0  0  0  0  0  0
    0.6465   -0.4405   -0.2176 H   0  0  0  0  0  0
   -2.7036   -2.9947    1.9581 H   0  0  0  0  0  0
   -2.3776   -1.5283    2.9184 H   0  0  0  0  0  0
   -4.6729   -1.5945    1.7854 H   0  0  0  0  0  0
   -3.6865   -0.1576    1.4096 H   0  0  0  0  0  0
   -2.8119   -1.6777   -1.9800 H   0  0  0  0  0  0
   -2.4859   -0.2113   -1.0197 H   0  0  0  0  0  0
   -0.5194   -1.6055   -0.8490 H   0  0  0  0  0  0
   -1.5032   -3.0436   -0.4705 H   0  0  0  0  0  0
    2.0358   -2.5355    1.5131 H   0  0  0  0  0  0
    1.0069   -2.8919    0.1050 H   0  0  0  0  0  0
    4.2123   -1.5039    1.2306 H   0  0  0  0  0  0
    5.8633   -1.4161   -2.7255 H   0  0  0  0  0  0
    3.6628   -2.0161   -3.6457 H   0  0  0  0  0  0
    1.7481   -2.3641   -2.1404 H   0  0  0  0  0  0
   -4.0955   -2.6481   -0.2482 H   0  0  0  0  0  0
    2.5702    0.2537    0.9011 H   0  0  0  0  0  0
   -5.0324   -1.0454   -0.7617 C   0  0  0  0  0  0
    1.4033    0.9023    1.4735 H   0  0  0  0  0  0
   -5.1451   -1.3223   -1.6634 H   0  0  0  0  0  0
   -5.8160   -1.2529   -0.2664 H   0  0  0  0  0  0
   -4.8799   -0.1081   -0.7350 H   0  0  0  0  0  0
    5.9539   -1.0455    1.7389 H   0  0  0  0  0  0
    7.4596   -0.7000    1.5302 H   0  0  0  0  0  0
  1  2  1  0  0  0
  1 23  1  0  0  0
  1 40  1  0  0  0
  1 42  1  0  0  0
  2  3  1  0  0  0
  2 11  1  0  0  0
  2 24  1  0  0  0
  3  4  2  0  0  0
  3  5  1  0  0  0
  5  6  1  0  0  0
  5 10  1  0  0  0
  6  7  1  0  0  0
  6 25  1  0  0  0
  6 26  1  0  0  0
  7  8  1  0  0  0
  7 27  1  0  0  0
  7 28  1  0  0  0
  8  9  1  0  0  0
  8 39  1  0  0  0
  8 41  1  0  0  0
  9 10  1  0  0  0
  9 29  1  0  0  0
  9 30  1  0  0  0
 10 31  1  0  0  0
 10 32  1  0  0  0
 11 12  1  0  0  0
 11 33  1  0  0  0
 11 34  1  0  0  0
 12 13  1  0  0  0
 12 17  2  0  0  0
 13 14  2  0  0  0
 13 35  1  0  0  0
 14 15  1  0  0  0
 14 18  1  0  0  0
 15 16  2  0  0  0
 15 36  1  0  0  0
 16 17  1  0  0  0
 16 37  1  0  0  0
 17 38  1  0  0  0
 18 19  1  0  0  0
 18 22  1  0  0  0
 19 20  1  0  0  0
 19 21  1  0  0  0
 22 46  1  0  0  0
 22 47  1  0  0  0
 41 43  1  0  0  0
 41 44  1  0  0  0
 41 45  1  0  0  0
M  CHG  2   1   1  18   1
M  END
>  <Activity>
4.569

>  <set>
1

>  <Min_dist>
999.9

>  <Avg_dist>
999.9

$$$$
73
  Cerius2 12110215013D 1   1.00000                          
 
 67 70  0  0  0  0  0  0  0  0999 V2000
   -1.9633    2.6526   -2.1246 C   0  0  0  0  0  0
   -3.1352    3.3222   -2.3018 C   0  0  0  0  0  0
   -3.5923    4.2322   -1.3509 C   0  0  0  0  0  0
   -2.8807    4.4777   -0.2167 C   0  0  0  0  0  0
   -1.6665    3.8052    0.0013 C   0  0  0  0  0  0
   -0.9038    4.0327    1.1597 C   0  0  0  0  0  0
    0.2677    3.3631    1.3368 C   0  0  0  0  0  0
    0.7252    2.4531    0.3854 C   0  0  0  0  0  0
    0.0137    2.2076   -0.7485 C   0  0  0  0  0  0
   -1.2012    2.8797   -0.9663 C   0  0  0  0  0  0
    2.2478    1.6082    0.6544 S   0  0  0  0  0  0
    2.6981    1.2050   -0.6316 O   0  0  0  0  0  0
    2.9805    2.4142    1.5670 O   0  0  0  0  0  0
    1.9003    0.2088    1.4688 N   0  0  0  0  0  0
    1.0076   -0.7856    0.8685 C   0  0  0  0  0  0
   -0.1870   -0.9935    1.7634 C   0  0  0  0  0  0
   -0.1415   -0.6487    2.9253 O   0  0  0  0  0  0
   -1.3058   -1.5625    1.2727 N   0  0  0  0  0  0
   -2.4393   -1.8681    2.1569 C   0  0  0  0  0  0
   -3.6958   -1.1921    1.5943 C   0  0  0  0  0  0
   -3.8044   -1.5177    0.1653 N   0  0  0  0  0  0
   -5.1795   -2.2159   -0.4379 S   0  0  0  0  0  0
   -4.7035   -2.9132   -1.5809 O   0  0  0  0  0  0
   -5.7110   -2.8930    0.6927 O   0  0  0  0  0  0
   -6.1983   -0.7885   -0.9020 C   0  0  0  0  0  0
   -2.6709   -1.2121   -0.7189 C   0  0  0  0  0  0
   -1.4166   -1.8830   -0.1573 C   0  0  0  0  0  0
    1.7567   -2.1092    0.7022 C   0  0  0  0  0  0
    2.8710   -1.9337   -0.2971 C   0  0  0  0  0  0
    4.1238   -1.5435    0.1300 C   0  0  0  0  0  0
    5.1543   -1.3820   -0.7963 C   0  0  0  0  0  0
    4.9106   -1.6163   -2.1501 C   0  0  0  0  0  0
    3.6538   -2.0060   -2.5644 C   0  0  0  0  0  0
    2.6372   -2.1696   -1.6399 C   0  0  0  0  0  0
    6.4999   -0.9633   -0.3452 C   0  3  0  0  0  0
    7.4814   -0.8099   -1.2317 N   0  0  0  0  0  0
    8.3635   -0.5355   -0.9360 H   0  0  0  0  0  0
    7.3143   -0.9726   -2.1733 H   0  0  0  0  0  0
    6.7292   -0.7400    0.9472 N   0  0  0  0  0  0
    7.6113   -0.4656    1.2429 H   0  0  0  0  0  0
    6.0142   -0.8517    1.5930 H   0  0  0  0  0  0
   -1.6234    1.9471   -2.8683 H   0  0  0  0  0  0
   -3.7191    3.1458   -3.1931 H   0  0  0  0  0  0
   -4.5252    4.7508   -1.5162 H   0  0  0  0  0  0
   -3.2472    5.1860    0.5115 H   0  0  0  0  0  0
   -1.2454    4.7355    1.9052 H   0  0  0  0  0  0
    0.8519    3.5399    2.2278 H   0  0  0  0  0  0
    0.3810    1.5002   -1.4773 H   0  0  0  0  0  0
    2.2879    0.0475    2.3432 H   0  0  0  0  0  0
    0.6736   -0.4322   -0.1070 H   0  0  0  0  0  0
   -2.5912   -2.9467    2.1974 H   0  0  0  0  0  0
   -2.2357   -1.4869    3.1576 H   0  0  0  0  0  0
   -4.5761   -1.5599    2.1212 H   0  0  0  0  0  0
   -3.6168   -0.1120    1.7184 H   0  0  0  0  0  0
   -7.1437   -1.1368   -1.3179 H   0  0  0  0  0  0
   -6.3922   -0.1783   -0.0199 H   0  0  0  0  0  0
   -5.6711   -0.1928   -1.6472 H   0  0  0  0  0  0
   -2.8744   -1.5933   -1.7196 H   0  0  0  0  0  0
   -2.5190   -0.1335   -0.7595 H   0  0  0  0  0  0
   -0.5370   -1.5143   -0.6851 H   0  0  0  0  0  0
   -1.4936   -2.9634   -0.2798 H   0  0  0  0  0  0
    2.1741   -2.4135    1.6621 H   0  0  0  0  0  0
    1.0672   -2.8749    0.3468 H   0  0  0  0  0  0
    4.3061   -1.3633    1.1791 H   0  0  0  0  0  0
    5.7042   -1.4926   -2.8722 H   0  0  0  0  0  0
    3.4638   -2.1873   -3.6120 H   0  0  0  0  0  0
    1.6550   -2.4748   -1.9692 H   0  0  0  0  0  0
  1  2  1  0  0  0
  1 10  2  0  0  0
  1 42  1  0  0  0
  2  3  2  0  0  0
  2 43  1  0  0  0
  3  4  1  0  0  0
  3 44  1  0  0  0
  4  5  2  0  0  0
  4 45  1  0  0  0
  5  6  1  0  0  0
  5 10  1  0  0  0
  6  7  2  0  0  0
  6 46  1  0  0  0
  7  8  1  0  0  0
  7 47  1  0  0  0
  8  9  2  0  0  0
  8 11  1  0  0  0
  9 10  1  0  0  0
  9 48  1  0  0  0
 11 12  2  0  0  0
 11 13  2  0  0  0
 11 14  1  0  0  0
 14 15  1  0  0  0
 14 49  1  0  0  0
 15 16  1  0  0  0
 15 28  1  0  0  0
 15 50  1  0  0  0
 16 17  2  0  0  0
 16 18  1  0  0  0
 18 19  1  0  0  0
 18 27  1  0  0  0
 19 20  1  0  0  0
 19 51  1  0  0  0
 19 52  1  0  0  0
 20 21  1  0  0  0
 20 53  1  0  0  0
 20 54  1  0  0  0
 21 22  1  0  0  0
 21 26  1  0  0  0
 22 23  2  0  0  0
 22 24  2  0  0  0
 22 25  1  0  0  0
 25 55  1  0  0  0
 25 56  1  0  0  0
 25 57  1  0  0  0
 26 27  1  0  0  0
 26 58  1  0  0  0
 26 59  1  0  0  0
 27 60  1  0  0  0
 27 61  1  0  0  0
 28 29  1  0  0  0
 28 62  1  0  0  0
 28 63  1  0  0  0
 29 30  1  0  0  0
 29 34  2  0  0  0
 30 31  2  0  0  0
 30 64  1  0  0  0
 31 32  1  0  0  0
 31 35  1  0  0  0
 32 33  2  0  0  0
 32 65  1  0  0  0
 33 34  1  0  0  0
 33 66  1  0  0  0
 34 67  1  0  0  0
 35 36  1  0  0  0
 35 39  1  0  0  0
 36 37  1  0  0  0
 36 38  1  0  0  0
 39 40  1  0  0  0
 39 41  1  0  0  0
M  CHG  1  35   1
M  END
>  <Activity>
8.481

>  <set>
1

>  <Min_dist>
999.9

>  <Avg_dist>
999.9

$$$$
74
  Cerius2 12110215013D 1   1.00000                          
 
 60 62  0  0  0  0  0  0  0  0999 V2000
   -3.0229    3.5873   -1.2117 C   0  0  0  0  0  0
   -4.2923    4.0663   -1.3221 C   0  0  0  0  0  0
   -5.2745    3.7150   -0.3984 C   0  0  0  0  0  0
   -4.9934    2.8823    0.6411 C   0  0  0  0  0  0
   -3.6943    2.3675    0.7877 C   0  0  0  0  0  0
   -3.3660    1.5056    1.8482 C   0  0  0  0  0  0
   -2.0969    1.0268    1.9584 C   0  0  0  0  0  0
   -1.1143    1.3784    1.0346 C   0  0  0  0  0  0
   -1.3953    2.2109   -0.0047 C   0  0  0  0  0  0
   -2.6950    2.7252   -0.1518 C   0  0  0  0  0  0
    0.5164    0.7359    1.2153 S   0  0  0  0  0  0
    1.3655    1.6357    0.5163 O   0  0  0  0  0  0
    0.6425    0.3827    2.5859 O   0  0  0  0  0  0
    0.5827   -0.6897    0.3753 N   0  0  0  0  0  0
    0.3194   -0.7038   -1.0657 C   0  0  0  0  0  0
   -0.8606   -1.5964   -1.3521 C   0  0  0  0  0  0
   -1.5778   -1.3652   -2.2965 O   0  0  0  0  0  0
   -1.1148   -2.6482   -0.5579 O   0  0  0  0  0  0
   -2.2518   -3.5082   -0.8337 C   0  0  0  0  0  0
   -2.3144   -4.6223    0.2131 C   0  0  0  0  0  0
   -3.5124   -5.5285   -0.0776 C   0  0  0  0  0  0
   -3.5751   -6.6425    0.9693 C   0  0  0  0  0  0
    1.5504   -1.2334   -1.8040 C   0  0  0  0  0  0
    2.7304   -0.3408   -1.5176 C   0  0  0  0  0  0
    3.5486   -0.6061   -0.4386 C   0  0  0  0  0  0
    4.6407    0.2208   -0.1752 C   0  0  0  0  0  0
    4.8985    1.3120   -1.0058 C   0  0  0  0  0  0
    4.0730    1.5666   -2.0814 C   0  0  0  0  0  0
    2.9944    0.7394   -2.3404 C   0  0  0  0  0  0
    5.5219   -0.0577    0.9805 C   0  3  0  0  0  0
    6.5635    0.7334    1.2293 N   0  0  0  0  0  0
    7.1411    0.5509    1.9869 H   0  0  0  0  0  0
    6.7448    1.4923    0.6530 H   0  0  0  0  0  0
    5.2731   -1.0994    1.7715 N   0  0  0  0  0  0
    5.8507   -1.2820    2.5291 H   0  0  0  0  0  0
    4.5142   -1.6757    1.5902 H   0  0  0  0  0  0
   -2.2729    3.8650   -1.9375 H   0  0  0  0  0  0
   -4.5418    4.7288   -2.1378 H   0  0  0  0  0  0
   -6.2738    4.1096   -0.5086 H   0  0  0  0  0  0
   -5.7647    2.6189    1.3496 H   0  0  0  0  0  0
   -4.1168    1.2250    2.5720 H   0  0  0  0  0  0
   -1.8473    0.3646    2.7743 H   0  0  0  0  0  0
   -0.6236    2.4752   -0.7125 H   0  0  0  0  0  0
    0.7959   -1.5155    0.8375 H   0  0  0  0  0  0
    0.0999    0.3086   -1.4049 H   0  0  0  0  0  0
   -3.1693   -2.9211   -0.7949 H   0  0  0  0  0  0
   -2.1430   -3.9473   -1.8255 H   0  0  0  0  0  0
   -1.3969   -5.2094    0.1743 H   0  0  0  0  0  0
   -2.4232   -4.1832    1.2048 H   0  0  0  0  0  0
   -4.4300   -4.9413   -0.0388 H   0  0  0  0  0  0
   -3.4037   -5.9675   -1.0693 H   0  0  0  0  0  0
   -4.4286   -7.2881    0.7622 H   0  0  0  0  0  0
   -2.6576   -7.2296    0.9305 H   0  0  0  0  0  0
   -3.6839   -6.2034    1.9610 H   0  0  0  0  0  0
    1.7699   -2.2457   -1.4648 H   0  0  0  0  0  0
    1.3545   -1.2438   -2.8762 H   0  0  0  0  0  0
    3.3437   -1.4520    0.2009 H   0  0  0  0  0  0
    5.7423    1.9561   -0.8069 H   0  0  0  0  0  0
    4.2713    2.4110   -2.7248 H   0  0  0  0  0  0
    2.3510    0.9429   -3.1836 H   0  0  0  0  0  0
  1  2  1  0  0  0
  1 10  2  0  0  0
  1 37  1  0  0  0
  2  3  2  0  0  0
  2 38  1  0  0  0
  3  4  1  0  0  0
  3 39  1  0  0  0
  4  5  2  0  0  0
  4 40  1  0  0  0
  5  6  1  0  0  0
  5 10  1  0  0  0
  6  7  2  0  0  0
  6 41  1  0  0  0
  7  8  1  0  0  0
  7 42  1  0  0  0
  8  9  2  0  0  0
  8 11  1  0  0  0
  9 10  1  0  0  0
  9 43  1  0  0  0
 11 12  2  0  0  0
 11 13  2  0  0  0
 11 14  1  0  0  0
 14 15  1  0  0  0
 14 44  1  0  0  0
 15 16  1  0  0  0
 15 23  1  0  0  0
 15 45  1  0  0  0
 16 17  2  0  0  0
 16 18  1  0  0  0
 18 19  1  0  0  0
 19 20  1  0  0  0
 19 46  1  0  0  0
 19 47  1  0  0  0
 20 21  1  0  0  0
 20 48  1  0  0  0
 20 49  1  0  0  0
 21 22  1  0  0  0
 21 50  1  0  0  0
 21 51  1  0  0  0
 22 52  1  0  0  0
 22 53  1  0  0  0
 22 54  1  0  0  0
 23 24  1  0  0  0
 23 55  1  0  0  0
 23 56  1  0  0  0
 24 25  1  0  0  0
 24 29  2  0  0  0
 25 26  2  0  0  0
 25 57  1  0  0  0
 26 27  1  0  0  0
 26 30  1  0  0  0
 27 28  2  0  0  0
 27 58  1  0  0  0
 28 29  1  0  0  0
 28 59  1  0  0  0
 29 60  1  0  0  0
 30 31  1  0  0  0
 30 34  1  0  0  0
 31 32  1  0  0  0
 31 33  1  0  0  0
 34 35  1  0  0  0
 34 36  1  0  0  0
M  CHG  1  30   1
M  END
>  <Activity>
7.886

>  <set>
1

>  <Min_dist>
999.9

>  <Avg_dist>
999.9

$$$$
75
  Cerius2 12110215013D 1   1.00000                          
 
 67 70  0  0  0  0  0  0  0  0999 V2000
    0.4196    3.5835    0.9159 C   0  0  0  0  0  0
   -0.2145    4.5297    1.6613 C   0  0  0  0  0  0
   -1.4015    5.1123    1.2220 C   0  0  0  0  0  0
   -1.9616    4.7523    0.0347 C   0  0  0  0  0  0
   -1.3359    3.7789   -0.7623 C   0  0  0  0  0  0
   -0.1284    3.1862   -0.3154 C   0  0  0  0  0  0
    0.4977    2.2129   -1.1129 C   0  0  0  0  0  0
   -0.0620    1.8533   -2.3000 C   0  0  0  0  0  0
   -1.2492    2.4365   -2.7397 C   0  0  0  0  0  0
   -1.8837    3.3817   -1.9941 C   0  0  0  0  0  0
    1.9998    1.4625   -0.5786 S   0  0  0  0  0  0
    2.3121    0.4829   -1.5594 O   0  0  0  0  0  0
    2.8478    2.5330   -0.1860 O   0  0  0  0  0  0
    1.6667    0.6206    0.8081 N   0  0  0  0  0  0
    0.7679   -0.5354    0.7651 C   0  0  0  0  0  0
   -0.4803   -0.2308    1.5526 C   0  0  0  0  0  0
   -0.4669    0.6389    2.3979 O   0  0  0  0  0  0
   -1.6116   -0.9247    1.3177 N   0  0  0  0  0  0
   -2.8537   -0.5938    2.0300 C   0  0  0  0  0  0
   -3.9534   -0.3205    0.9965 C   0  0  0  0  0  0
   -3.9670   -1.4214    0.0230 N   0  0  0  0  0  0
   -5.3572   -2.2733   -0.2665 S   0  0  0  0  0  0
   -4.8688   -3.5331   -0.7066 O   0  0  0  0  0  0
   -6.0765   -2.1254    0.9500 O   0  0  0  0  0  0
   -6.1347   -1.3482   -1.6194 C   0  0  0  0  0  0
   -2.7249   -1.7523   -0.6894 C   0  0  0  0  0  0
   -1.6266   -2.0220    0.3401 C   0  0  0  0  0  0
    1.4707   -1.7508    1.3733 C   0  0  0  0  0  0
    2.6436   -2.1371    0.5095 C   0  0  0  0  0  0
    3.8862   -1.5872    0.7498 C   0  0  0  0  0  0
    4.9710   -1.9463   -0.0504 C   0  0  0  0  0  0
    4.7917   -2.8602   -1.0895 C   0  0  0  0  0  0
    3.5444   -3.4028   -1.3194 C   0  0  0  0  0  0
    2.4735   -3.0465   -0.5188 C   0  0  0  0  0  0
    6.3061   -1.3601    0.2013 C   0  3  0  0  0  0
    7.3396   -1.7047   -0.5641 N   0  0  0  0  0  0
    8.2148   -1.3205   -0.3991 H   0  0  0  0  0  0
    7.2173   -2.3401   -1.2868 H   0  0  0  0  0  0
    6.4740   -0.4880    1.1933 N   0  0  0  0  0  0
    7.3492   -0.1037    1.3584 H   0  0  0  0  0  0
    5.7211   -0.2369    1.7510 H   0  0  0  0  0  0
    1.3414    3.1438    1.2670 H   0  0  0  0  0  0
    0.2086    4.8331    2.6075 H   0  0  0  0  0  0
   -1.8847    5.8606    1.8329 H   0  0  0  0  0  0
   -2.8823    5.2122   -0.2928 H   0  0  0  0  0  0
    0.4212    1.1051   -2.9109 H   0  0  0  0  0  0
   -1.6721    2.1333   -3.6861 H   0  0  0  0  0  0
   -2.8030    3.8249   -2.3476 H   0  0  0  0  0  0
    2.0668    0.8929    1.6487 H   0  0  0  0  0  0
    0.5012   -0.7501   -0.2698 H   0  0  0  0  0  0
   -3.1466   -1.4313    2.6631 H   0  0  0  0  0  0
   -2.6986    0.2943    2.6426 H   0  0  0  0  0  0
   -4.9199   -0.2629    1.4972 H   0  0  0  0  0  0
   -3.7480    0.6190    0.4834 H   0  0  0  0  0  0
   -7.0734   -1.8285   -1.8956 H   0  0  0  0  0  0
   -6.3312   -0.3263   -1.2949 H   0  0  0  0  0  0
   -5.4668   -1.3338   -2.4807 H   0  0  0  0  0  0
   -2.8800   -2.6404   -1.3020 H   0  0  0  0  0  0
   -2.4320   -0.9148   -1.3224 H   0  0  0  0  0  0
   -0.6607   -2.0793   -0.1619 H   0  0  0  0  0  0
   -1.8303   -2.9608    0.8550 H   0  0  0  0  0  0
    1.8228   -1.5034    2.3747 H   0  0  0  0  0  0
    0.7709   -2.5845    1.4298 H   0  0  0  0  0  0
    4.0186   -0.8801    1.5553 H   0  0  0  0  0  0
    5.6276   -3.1418   -1.7127 H   0  0  0  0  0  0
    3.4043   -4.1099   -2.1236 H   0  0  0  0  0  0
    1.4990   -3.4741   -0.7028 H   0  0  0  0  0  0
  1  2  1  0  0  0
  1  6  2  0  0  0
  1 42  1  0  0  0
  2  3  2  0  0  0
  2 43  1  0  0  0
  3  4  1  0  0  0
  3 44  1  0  0  0
  4  5  2  0  0  0
  4 45  1  0  0  0
  5  6  1  0  0  0
  5 10  1  0  0  0
  6  7  1  0  0  0
  7  8  2  0  0  0
  7 11  1  0  0  0
  8  9  1  0  0  0
  8 46  1  0  0  0
  9 10  2  0  0  0
  9 47  1  0  0  0
 10 48  1  0  0  0
 11 12  2  0  0  0
 11 13  2  0  0  0
 11 14  1  0  0  0
 14 15  1  0  0  0
 14 49  1  0  0  0
 15 16  1  0  0  0
 15 28  1  0  0  0
 15 50  1  0  0  0
 16 17  2  0  0  0
 16 18  1  0  0  0
 18 19  1  0  0  0
 18 27  1  0  0  0
 19 20  1  0  0  0
 19 51  1  0  0  0
 19 52  1  0  0  0
 20 21  1  0  0  0
 20 53  1  0  0  0
 20 54  1  0  0  0
 21 22  1  0  0  0
 21 26  1  0  0  0
 22 23  2  0  0  0
 22 24  2  0  0  0
 22 25  1  0  0  0
 25 55  1  0  0  0
 25 56  1  0  0  0
 25 57  1  0  0  0
 26 27  1  0  0  0
 26 58  1  0  0  0
 26 59  1  0  0  0
 27 60  1  0  0  0
 27 61  1  0  0  0
 28 29  1  0  0  0
 28 62  1  0  0  0
 28 63  1  0  0  0
 29 30  1  0  0  0
 29 34  2  0  0  0
 30 31  2  0  0  0
 30 64  1  0  0  0
 31 32  1  0  0  0
 31 35  1  0  0  0
 32 33  2  0  0  0
 32 65  1  0  0  0
 33 34  1  0  0  0
 33 66  1  0  0  0
 34 67  1  0  0  0
 35 36  1  0  0  0
 35 39  1  0  0  0
 36 37  1  0  0  0
 36 38  1  0  0  0
 39 40  1  0  0  0
 39 41  1  0  0  0
M  CHG  1  35   1
M  END
>  <Activity>
7.585

>  <set>
1

>  <Min_dist>
999.9

>  <Avg_dist>
999.9

$$$$
76
  Cerius2 12110215013D 1   1.00000                          
 
 68 71  0  0  0  0  0  0  0  0999 V2000
   -3.1083    1.9950   -2.0336 C   0  0  0  0  0  0
   -4.4124    2.3499   -2.1969 C   0  0  0  0  0  0
   -5.1693    2.8139   -1.1231 C   0  0  0  0  0  0
   -4.6270    2.9257    0.1204 C   0  0  0  0  0  0
   -3.2841    2.5685    0.3278 C   0  0  0  0  0  0
   -2.6892    2.6707    1.5970 C   0  0  0  0  0  0
   -1.3855    2.3159    1.7601 C   0  0  0  0  0  0
   -0.6282    1.8519    0.6859 C   0  0  0  0  0  0
   -1.1703    1.7402   -0.5573 C   0  0  0  0  0  0
   -2.5138    2.0967   -0.7646 C   0  0  0  0  0  0
    1.0567    1.4038    0.9414 S   0  0  0  0  0  0
    1.6784    1.4970   -0.3330 O   0  0  0  0  0  0
    1.4682    2.0994    2.1102 O   0  0  0  0  0  0
    1.0866   -0.2031    1.3403 N   0  0  0  0  0  0
    0.5592   -1.1999    0.4051 C   0  0  0  0  0  0
   -0.5074   -2.0156    1.0891 C   0  0  0  0  0  0
   -0.6716   -1.9170    2.2867 O   0  0  0  0  0  0
   -1.2789   -2.8548    0.3700 N   0  0  0  0  0  0
   -2.2541   -3.7259    1.0408 C   0  0  0  0  0  0
   -3.3701   -2.8682    1.6235 C   0  0  0  0  0  0
   -4.2562   -2.3473    0.4795 C   0  0  0  0  0  0
   -3.5584   -1.1811   -0.2114 C   0  0  0  0  0  0
   -3.1757   -1.5531   -1.6555 C   0  0  0  0  0  0
   -2.5646   -2.9542   -1.6825 C   0  0  0  0  0  0
   -1.1596   -2.9035   -1.0776 C   0  0  0  0  0  0
    1.6923   -2.1215   -0.0506 C   0  0  0  0  0  0
    2.7590   -1.3058   -0.7346 C   0  0  0  0  0  0
    3.7976   -0.7741    0.0022 C   0  0  0  0  0  0
    4.7844   -0.0196   -0.6326 C   0  0  0  0  0  0
    4.7143    0.1924   -2.0100 C   0  0  0  0  0  0
    3.6709   -0.3445   -2.7353 C   0  0  0  0  0  0
    2.6980   -1.0964   -2.1006 C   0  0  0  0  0  0
    5.9006    0.5539    0.1515 C   0  3  0  0  0  0
    6.8410    1.2736   -0.4573 N   0  0  0  0  0  0
    7.5727    1.6495    0.0567 H   0  0  0  0  0  0
    6.7943    1.4219   -1.4147 H   0  0  0  0  0  0
    5.9645    0.3502    1.4657 N   0  0  0  0  0  0
    6.6962    0.7261    1.9797 H   0  0  0  0  0  0
    5.2795   -0.1741    1.9092 H   0  0  0  0  0  0
   -2.5349    1.6331   -2.8743 H   0  0  0  0  0  0
   -4.8669    2.2708   -3.1734 H   0  0  0  0  0  0
   -6.2018    3.0895   -1.2799 H   0  0  0  0  0  0
   -5.2258    3.2873    0.9433 H   0  0  0  0  0  0
   -3.2635    3.0292    2.4385 H   0  0  0  0  0  0
   -0.9308    2.3954    2.7365 H   0  0  0  0  0  0
   -0.5711    1.3797   -1.3804 H   0  0  0  0  0  0
    1.4533   -0.4844    2.1931 H   0  0  0  0  0  0
    0.1311   -0.6950   -0.4609 H   0  0  0  0  0  0
   -2.6725   -4.4278    0.3195 H   0  0  0  0  0  0
   -1.7607   -4.2758    1.8423 H   0  0  0  0  0  0
   -3.9720   -3.4682    2.3061 H   0  0  0  0  0  0
   -2.9380   -2.0251    2.1625 H   0  0  0  0  0  0
   -4.4270   -3.1471   -0.2411 H   0  0  0  0  0  0
   -5.2113   -2.0116    0.8834 H   0  0  0  0  0  0
   -4.2278   -0.3210   -0.2277 H   0  0  0  0  0  0
   -2.6567   -0.9227    0.3437 H   0  0  0  0  0  0
   -4.0666   -1.5340   -2.2832 H   0  0  0  0  0  0
   -2.4501   -0.8337   -2.0351 H   0  0  0  0  0  0
   -3.1878   -3.6338   -1.1012 H   0  0  0  0  0  0
   -2.5063   -3.3056   -2.7127 H   0  0  0  0  0  0
   -0.6382   -2.0154   -1.4346 H   0  0  0  0  0  0
   -0.6040   -3.7962   -1.3648 H   0  0  0  0  0  0
    2.1205   -2.6264    0.8154 H   0  0  0  0  0  0
    1.3000   -2.8631   -0.7463 H   0  0  0  0  0  0
    3.8462   -0.9414    1.0680 H   0  0  0  0  0  0
    5.4750    0.7760   -2.5072 H   0  0  0  0  0  0
    3.6152   -0.1808   -3.8014 H   0  0  0  0  0  0
    1.8831   -1.5146   -2.6728 H   0  0  0  0  0  0
  1  2  1  0  0  0
  1 10  2  0  0  0
  1 40  1  0  0  0
  2  3  2  0  0  0
  2 41  1  0  0  0
  3  4  1  0  0  0
  3 42  1  0  0  0
  4  5  2  0  0  0
  4 43  1  0  0  0
  5  6  1  0  0  0
  5 10  1  0  0  0
  6  7  2  0  0  0
  6 44  1  0  0  0
  7  8  1  0  0  0
  7 45  1  0  0  0
  8  9  2  0  0  0
  8 11  1  0  0  0
  9 10  1  0  0  0
  9 46  1  0  0  0
 11 12  2  0  0  0
 11 13  2  0  0  0
 11 14  1  0  0  0
 14 15  1  0  0  0
 14 47  1  0  0  0
 15 16  1  0  0  0
 15 26  1  0  0  0
 15 48  1  0  0  0
 16 17  2  0  0  0
 16 18  1  0  0  0
 18 19  1  0  0  0
 18 25  1  0  0  0
 19 20  1  0  0  0
 19 49  1  0  0  0
 19 50  1  0  0  0
 20 21  1  0  0  0
 20 51  1  0  0  0
 20 52  1  0  0  0
 21 22  1  0  0  0
 21 53  1  0  0  0
 21 54  1  0  0  0
 22 23  1  0  0  0
 22 55  1  0  0  0
 22 56  1  0  0  0
 23 24  1  0  0  0
 23 57  1  0  0  0
 23 58  1  0  0  0
 24 25  1  0  0  0
 24 59  1  0  0  0
 24 60  1  0  0  0
 25 61  1  0  0  0
 25 62  1  0  0  0
 26 27  1  0  0  0
 26 63  1  0  0  0
 26 64  1  0  0  0
 27 28  1  0  0  0
 27 32  2  0  0  0
 28 29  2  0  0  0
 28 65  1  0  0  0
 29 30  1  0  0  0
 29 33  1  0  0  0
 30 31  2  0  0  0
 30 66  1  0  0  0
 31 32  1  0  0  0
 31 67  1  0  0  0
 32 68  1  0  0  0
 33 34  1  0  0  0
 33 37  1  0  0  0
 34 35  1  0  0  0
 34 36  1  0  0  0
 37 38  1  0  0  0
 37 39  1  0  0  0
M  CHG  1  33   1
M  END
>  <Activity>
7.523

>  <set>
1

>  <Min_dist>
999.9

>  <Avg_dist>
999.9

$$$$
77
  Cerius2 12110215013D 1   1.00000                          
 
 65 68  0  0  0  0  0  0  0  0999 V2000
   -3.4392    1.8995   -2.1164 C   0  0  0  0  0  0
   -4.7545    2.2326   -2.2262 C   0  0  0  0  0  0
   -5.4135    2.9017   -1.1970 C   0  0  0  0  0  0
   -4.7612    3.2414   -0.0514 C   0  0  0  0  0  0
   -3.4032    2.9139    0.0985 C   0  0  0  0  0  0
   -2.6962    3.2484    1.2662 C   0  0  0  0  0  0
   -1.3813    2.9153    1.3760 C   0  0  0  0  0  0
   -0.7220    2.2462    0.3462 C   0  0  0  0  0  0
   -1.3740    1.9066   -0.7990 C   0  0  0  0  0  0
   -2.7327    2.2335   -0.9488 C   0  0  0  0  0  0
    0.9813    1.8345    0.5297 S   0  0  0  0  0  0
    1.4845    1.6759   -0.7897 O   0  0  0  0  0  0
    1.4935    2.7347    1.5027 O   0  0  0  0  0  0
    1.0556    0.3325    1.2232 N   0  0  0  0  0  0
    0.4509   -0.8175    0.5465 C   0  0  0  0  0  0
   -0.7089   -1.3276    1.3623 C   0  0  0  0  0  0
   -0.7158   -1.1784    2.5659 O   0  0  0  0  0  0
   -1.7385   -1.9496    0.7545 N   0  0  0  0  0  0
   -1.6986   -2.2474   -0.6856 C   0  0  0  0  0  0
   -2.0540   -3.7243   -0.8863 C   0  0  0  0  0  0
   -3.3437   -4.0080   -0.2443 N   0  3  0  0  0  0
   -4.0447   -3.3805   -0.6088 H   0  0  0  0  0  0
   -3.7355   -5.3950   -0.5283 C   0  0  0  0  0  0
   -3.2310   -3.8226    1.2079 C   0  0  0  0  0  0
   -2.9315   -2.3556    1.5135 C   0  0  0  0  0  0
    1.4942   -1.9263    0.3943 C   0  0  0  0  0  0
    2.6540   -1.4161   -0.4216 C   0  0  0  0  0  0
    3.7242   -0.8119    0.2059 C   0  0  0  0  0  0
    4.7973   -0.3407   -0.5507 C   0  0  0  0  0  0
    4.7808   -0.4838   -1.9387 C   0  0  0  0  0  0
    3.7050   -1.0896   -2.5540 C   0  0  0  0  0  0
    2.6461   -1.5597   -1.7974 C   0  0  0  0  0  0
    5.9478    0.3086    0.1156 C   0  3  0  0  0  0
    6.9706    0.7574   -0.6093 N   0  0  0  0  0  0
    7.7248    1.1831   -0.1724 H   0  0  0  0  0  0
    6.9614    0.6587   -1.5742 H   0  0  0  0  0  0
    5.9605    0.4441    1.4401 N   0  0  0  0  0  0
    6.7147    0.8698    1.8770 H   0  0  0  0  0  0
    5.2154    0.1172    1.9682 H   0  0  0  0  0  0
   -2.9425    1.3772   -2.9207 H   0  0  0  0  0  0
   -5.2953    1.9747   -3.1248 H   0  0  0  0  0  0
   -6.4573    3.1550   -1.3098 H   0  0  0  0  0  0
   -5.2848    3.7602    0.7379 H   0  0  0  0  0  0
   -3.1938    3.7675    2.0721 H   0  0  0  0  0  0
   -0.8403    3.1736    2.2744 H   0  0  0  0  0  0
   -0.8500    1.3889   -1.5888 H   0  0  0  0  0  0
    1.4996    0.2142    2.0775 H   0  0  0  0  0  0
    0.0966   -0.5143   -0.4387 H   0  0  0  0  0  0
   -2.4219   -1.6222   -1.2091 H   0  0  0  0  0  0
   -0.6974   -2.0559   -1.0716 H   0  0  0  0  0  0
   -2.1235   -3.9398   -1.9525 H   0  0  0  0  0  0
   -1.2803   -4.3483   -0.4390 H   0  0  0  0  0  0
   -4.6928   -5.6069   -0.0523 H   0  0  0  0  0  0
   -3.8269   -5.5334   -1.6056 H   0  0  0  0  0  0
   -2.9774   -6.0739   -0.1378 H   0  0  0  0  0  0
   -4.1679   -4.1105    1.6849 H   0  0  0  0  0  0
   -2.4217   -4.4436    1.5919 H   0  0  0  0  0  0
   -2.7473   -2.2340    2.5809 H   0  0  0  0  0  0
   -3.7780   -1.7385    1.2122 H   0  0  0  0  0  0
    1.8485   -2.2295    1.3795 H   0  0  0  0  0  0
    1.0442   -2.7819   -0.1092 H   0  0  0  0  0  0
    3.7309   -0.7038    1.2805 H   0  0  0  0  0  0
    5.6084   -0.1206   -2.5300 H   0  0  0  0  0  0
    3.6910   -1.2006   -3.6282 H   0  0  0  0  0  0
    1.8062   -2.0332   -2.2838 H   0  0  0  0  0  0
  1  2  1  0  0  0
  1 10  2  0  0  0
  1 40  1  0  0  0
  2  3  2  0  0  0
  2 41  1  0  0  0
  3  4  1  0  0  0
  3 42  1  0  0  0
  4  5  2  0  0  0
  4 43  1  0  0  0
  5  6  1  0  0  0
  5 10  1  0  0  0
  6  7  2  0  0  0
  6 44  1  0  0  0
  7  8  1  0  0  0
  7 45  1  0  0  0
  8  9  2  0  0  0
  8 11  1  0  0  0
  9 10  1  0  0  0
  9 46  1  0  0  0
 11 12  2  0  0  0
 11 13  2  0  0  0
 11 14  1  0  0  0
 14 15  1  0  0  0
 14 47  1  0  0  0
 15 16  1  0  0  0
 15 26  1  0  0  0
 15 48  1  0  0  0
 16 17  2  0  0  0
 16 18  1  0  0  0
 18 19  1  0  0  0
 18 25  1  0  0  0
 19 20  1  0  0  0
 19 49  1  0  0  0
 19 50  1  0  0  0
 20 21  1  0  0  0
 20 51  1  0  0  0
 20 52  1  0  0  0
 21 22  1  0  0  0
 21 23  1  0  0  0
 21 24  1  0  0  0
 23 53  1  0  0  0
 23 54  1  0  0  0
 23 55  1  0  0  0
 24 25  1  0  0  0
 24 56  1  0  0  0
 24 57  1  0  0  0
 25 58  1  0  0  0
 25 59  1  0  0  0
 26 27  1  0  0  0
 26 60  1  0  0  0
 26 61  1  0  0  0
 27 28  1  0  0  0
 27 32  2  0  0  0
 28 29  2  0  0  0
 28 62  1  0  0  0
 29 30  1  0  0  0
 29 33  1  0  0  0
 30 31  2  0  0  0
 30 63  1  0  0  0
 31 32  1  0  0  0
 31 64  1  0  0  0
 32 65  1  0  0  0
 33 34  1  0  0  0
 33 37  1  0  0  0
 34 35  1  0  0  0
 34 36  1  0  0  0
 37 38  1  0  0  0
 37 39  1  0  0  0
M  CHG  2  21   1  33   1
M  END
>  <Activity>
7.444

>  <set>
1

>  <Min_dist>
999.9

>  <Avg_dist>
999.9

$$$$
78
  Cerius2 12110215013D 1   1.00000                          
 
 59 62  0  0  0  0  0  0  0  0999 V2000
   -3.8120    0.9761   -2.0902 C   0  0  0  0  0  0
   -5.1629    1.1080   -2.1934 C   0  0  0  0  0  0
   -5.9102    1.6670   -1.1589 C   0  0  0  0  0  0
   -5.3112    2.0973   -0.0147 C   0  0  0  0  0  0
   -3.9187    1.9772    0.1284 C   0  0  0  0  0  0
   -3.2647    2.4106    1.2945 C   0  0  0  0  0  0
   -1.9142    2.2786    1.3976 C   0  0  0  0  0  0
   -1.1665    1.7196    0.3626 C   0  0  0  0  0  0
   -1.7653    1.2895   -0.7813 C   0  0  0  0  0  0
   -3.1584    1.4088   -0.9242 C   0  0  0  0  0  0
    0.5802    1.5681    0.5376 S   0  0  0  0  0  0
    1.0954    1.4912   -0.7844 O   0  0  0  0  0  0
    0.9556    2.5320    1.5119 O   0  0  0  0  0  0
    0.8827    0.0922    1.2250 N   0  0  0  0  0  0
    0.4547   -1.1335    0.5462 C   0  0  0  0  0  0
   -0.6133   -1.8136    1.3636 C   0  0  0  0  0  0
   -0.6521   -1.6524    2.5650 O   0  0  0  0  0  0
   -1.5253   -2.6008    0.7594 N   0  0  0  0  0  0
   -1.5340   -2.9644   -0.6651 C   0  0  0  0  0  0
   -2.7721   -3.8543   -0.9032 C   0  0  0  0  0  0
   -3.7028   -3.4787    0.2800 C   0  0  0  0  0  0
   -2.6757   -3.2450    1.4188 C   0  0  0  0  0  0
    1.6516   -2.0733    0.3878 C   0  0  0  0  0  0
    2.7195   -1.3933   -0.4295 C   0  0  0  0  0  0
    3.6893   -0.6375    0.1970 C   0  0  0  0  0  0
    4.6774   -0.0090   -0.5610 C   0  0  0  0  0  0
    4.6783   -0.1492   -1.9493 C   0  0  0  0  0  0
    3.7033   -0.9075   -2.5637 C   0  0  0  0  0  0
    2.7290   -1.5327   -1.8057 C   0  0  0  0  0  0
    5.7200    0.8033    0.1043 C   0  3  0  0  0  0
    6.6619    1.4019   -0.6218 N   0  0  0  0  0  0
    7.3453    1.9344   -0.1857 H   0  0  0  0  0  0
    6.6646    1.3055   -1.5870 H   0  0  0  0  0  0
    5.7163    0.9355    1.4292 N   0  0  0  0  0  0
    6.3998    1.4680    1.8654 H   0  0  0  0  0  0
    5.0302    0.4994    1.9583 H   0  0  0  0  0  0
   -3.2461    0.5371   -2.8986 H   0  0  0  0  0  0
   -5.6629    0.7746   -3.0908 H   0  0  0  0  0  0
   -6.9808    1.7608   -1.2665 H   0  0  0  0  0  0
   -5.9033    2.5289    0.7787 H   0  0  0  0  0  0
   -3.8309    2.8463    2.1044 H   0  0  0  0  0  0
   -1.4141    2.6124    2.2948 H   0  0  0  0  0  0
   -1.1731    0.8590   -1.5752 H   0  0  0  0  0  0
    1.3433    0.0392    2.0770 H   0  0  0  0  0  0
    0.0560   -0.8840   -0.4371 H   0  0  0  0  0  0
   -1.6009   -2.0648   -1.2769 H   0  0  0  0  0  0
   -0.6274   -3.5168   -0.9122 H   0  0  0  0  0  0
   -3.2431   -3.6128   -1.8561 H   0  0  0  0  0  0
   -2.5023   -4.9096   -0.8616 H   0  0  0  0  0  0
   -4.2637   -2.5697    0.0626 H   0  0  0  0  0  0
   -4.3748   -4.3012    0.5249 H   0  0  0  0  0  0
   -2.3810   -4.1950    1.8647 H   0  0  0  0  0  0
   -3.0939   -2.5828    2.1769 H   0  0  0  0  0  0
    2.0503   -2.3228    1.3711 H   0  0  0  0  0  0
    1.3331   -2.9853   -0.1172 H   0  0  0  0  0  0
    3.6831   -0.5325    1.2719 H   0  0  0  0  0  0
    5.4405    0.3352   -2.5417 H   0  0  0  0  0  0
    3.7027   -1.0165   -3.6381 H   0  0  0  0  0  0
    1.9678   -2.1253   -2.2913 H   0  0  0  0  0  0
  1  2  1  0  0  0
  1 10  2  0  0  0
  1 37  1  0  0  0
  2  3  2  0  0  0
  2 38  1  0  0  0
  3  4  1  0  0  0
  3 39  1  0  0  0
  4  5  2  0  0  0
  4 40  1  0  0  0
  5  6  1  0  0  0
  5 10  1  0  0  0
  6  7  2  0  0  0
  6 41  1  0  0  0
  7  8  1  0  0  0
  7 42  1  0  0  0
  8  9  2  0  0  0
  8 11  1  0  0  0
  9 10  1  0  0  0
  9 43  1  0  0  0
 11 12  2  0  0  0
 11 13  2  0  0  0
 11 14  1  0  0  0
 14 15  1  0  0  0
 14 44  1  0  0  0
 15 16  1  0  0  0
 15 23  1  0  0  0
 15 45  1  0  0  0
 16 17  2  0  0  0
 16 18  1  0  0  0
 18 19  1  0  0  0
 18 22  1  0  0  0
 19 20  1  0  0  0
 19 46  1  0  0  0
 19 47  1  0  0  0
 20 21  1  0  0  0
 20 48  1  0  0  0
 20 49  1  0  0  0
 21 22  1  0  0  0
 21 50  1  0  0  0
 21 51  1  0  0  0
 22 52  1  0  0  0
 22 53  1  0  0  0
 23 24  1  0  0  0
 23 54  1  0  0  0
 23 55  1  0  0  0
 24 25  1  0  0  0
 24 29  2  0  0  0
 25 26  2  0  0  0
 25 56  1  0  0  0
 26 27  1  0  0  0
 26 30  1  0  0  0
 27 28  2  0  0  0
 27 57  1  0  0  0
 28 29  1  0  0  0
 28 58  1  0  0  0
 29 59  1  0  0  0
 30 31  1  0  0  0
 30 34  1  0  0  0
 31 32  1  0  0  0
 31 33  1  0  0  0
 34 35  1  0  0  0
 34 36  1  0  0  0
M  CHG  1  30   1
M  END
>  <Activity>
7.284

>  <set>
1

>  <Min_dist>
999.9

>  <Avg_dist>
999.9

$$$$
79
  Cerius2 12110215013D 1   1.00000                          
 
 68 71  0  0  0  0  0  0  0  0999 V2000
   -3.2601    3.2655   -1.4265 C   0  0  0  0  0  0
   -4.5826    3.5802   -1.4963 C   0  0  0  0  0  0
   -5.4255    3.3833   -0.4045 C   0  0  0  0  0  0
   -4.9511    2.8700    0.7636 C   0  0  0  0  0  0
   -3.5916    2.5328    0.8733 C   0  0  0  0  0  0
   -3.0651    2.0011    2.0631 C   0  0  0  0  0  0
   -1.7429    1.6864    2.1327 C   0  0  0  0  0  0
   -0.8997    1.8837    1.0406 C   0  0  0  0  0  0
   -1.3739    2.3968   -0.1272 C   0  0  0  0  0  0
   -2.7340    2.7335   -0.2373 C   0  0  0  0  0  0
    0.8061    1.4630    1.1743 S   0  0  0  0  0  0
    1.4724    2.2325    0.1827 O   0  0  0  0  0  0
    1.1004    1.4807    2.5644 O   0  0  0  0  0  0
    0.9652   -0.1159    0.7008 N   0  0  0  0  0  0
    0.5730   -0.5179   -0.6523 C   0  0  0  0  0  0
   -0.6332   -1.4183   -0.5790 C   0  0  0  0  0  0
   -1.5650   -1.2465   -1.3361 O   0  0  0  0  0  0
   -0.6765   -2.4144    0.3278 N   0  0  0  0  0  0
   -1.8999   -3.2070    0.5113 C   0  0  0  0  0  0
   -2.9122   -2.8239   -0.5374 C   0  0  0  0  0  0
   -2.9771   -3.4470   -1.5705 O   0  0  0  0  0  0
   -3.7416   -1.7905   -0.3236 O   0  0  0  0  0  0
   -4.7169   -1.4213   -1.3340 C   0  0  0  0  0  0
   -1.5511   -4.6920    0.3700 C   0  0  0  0  0  0
   -0.4235   -5.0419    1.3438 C   0  0  0  0  0  0
    0.8209   -4.2189    1.0029 C   0  0  0  0  0  0
    0.5007   -2.7322    1.1474 C   0  0  0  0  0  0
    1.7293   -1.2675   -1.3170 C   0  0  0  0  0  0
    2.9110   -0.3432   -1.4600 C   0  0  0  0  0  0
    3.8478   -0.2620   -0.4501 C   0  0  0  0  0  0
    4.9413    0.5938   -0.5843 C   0  0  0  0  0  0
    5.0803    1.3627   -1.7403 C   0  0  0  0  0  0
    4.1368    1.2724   -2.7428 C   0  0  0  0  0  0
    3.0572    0.4178   -2.6059 C   0  0  0  0  0  0
    5.9493    0.6861    0.4950 C   0  3  0  0  0  0
    6.9919    1.5038    0.3641 N   0  0  0  0  0  0
    7.6527    1.5643    1.0716 H   0  0  0  0  0  0
    7.0906    2.0390   -0.4389 H   0  0  0  0  0  0
    5.8137   -0.0485    1.5972 N   0  0  0  0  0  0
    6.4745    0.0120    2.3047 H   0  0  0  0  0  0
    5.0541   -0.6443    1.6926 H   0  0  0  0  0  0
   -2.6195    3.4198   -2.2822 H   0  0  0  0  0  0
   -4.9845    3.9891   -2.4116 H   0  0  0  0  0  0
   -6.4709    3.6421   -0.4861 H   0  0  0  0  0  0
   -5.6162    2.7232    1.6018 H   0  0  0  0  0  0
   -3.7064    1.8434    2.9177 H   0  0  0  0  0  0
   -1.3409    1.2780    3.0482 H   0  0  0  0  0  0
   -0.7085    2.5448   -0.9649 H   0  0  0  0  0  0
    1.3181   -0.7745    1.3193 H   0  0  0  0  0  0
    0.3298    0.3683   -1.2385 H   0  0  0  0  0  0
   -2.3119   -3.0190    1.5028 H   0  0  0  0  0  0
   -5.2957   -0.5662   -0.9849 H   0  0  0  0  0  0
   -4.2014   -1.1585   -2.2577 H   0  0  0  0  0  0
   -5.3857   -2.2621   -1.5177 H   0  0  0  0  0  0
   -2.4296   -5.2954    0.5987 H   0  0  0  0  0  0
   -1.2261   -4.8939   -0.6506 H   0  0  0  0  0  0
   -0.7402   -4.8166    2.3622 H   0  0  0  0  0  0
   -0.1902   -6.1035    1.2628 H   0  0  0  0  0  0
    1.6307   -4.4855    1.6821 H   0  0  0  0  0  0
    1.1236   -4.4252   -0.0237 H   0  0  0  0  0  0
    1.3522   -2.1407    0.8110 H   0  0  0  0  0  0
    0.2847   -2.5047    2.1913 H   0  0  0  0  0  0
    2.0093   -2.1226   -0.7018 H   0  0  0  0  0  0
    1.4185   -1.6150   -2.3022 H   0  0  0  0  0  0
    3.7345   -0.8594    0.4425 H   0  0  0  0  0  0
    5.9244    2.0273   -1.8500 H   0  0  0  0  0  0
    4.2431    1.8673   -3.6379 H   0  0  0  0  0  0
    2.3213    0.3507   -3.3935 H   0  0  0  0  0  0
  1  2  1  0  0  0
  1 10  2  0  0  0
  1 42  1  0  0  0
  2  3  2  0  0  0
  2 43  1  0  0  0
  3  4  1  0  0  0
  3 44  1  0  0  0
  4  5  2  0  0  0
  4 45  1  0  0  0
  5  6  1  0  0  0
  5 10  1  0  0  0
  6  7  2  0  0  0
  6 46  1  0  0  0
  7  8  1  0  0  0
  7 47  1  0  0  0
  8  9  2  0  0  0
  8 11  1  0  0  0
  9 10  1  0  0  0
  9 48  1  0  0  0
 11 12  2  0  0  0
 11 13  2  0  0  0
 11 14  1  0  0  0
 14 15  1  0  0  0
 14 49  1  0  0  0
 15 16  1  0  0  0
 15 28  1  0  0  0
 15 50  1  0  0  0
 16 17  2  0  0  0
 16 18  1  0  0  0
 18 19  1  0  0  0
 18 27  1  0  0  0
 19 20  1  0  0  0
 19 24  1  0  0  0
 19 51  1  0  0  0
 20 21  2  0  0  0
 20 22  1  0  0  0
 22 23  1  0  0  0
 23 52  1  0  0  0
 23 53  1  0  0  0
 23 54  1  0  0  0
 24 25  1  0  0  0
 24 55  1  0  0  0
 24 56  1  0  0  0
 25 26  1  0  0  0
 25 57  1  0  0  0
 25 58  1  0  0  0
 26 27  1  0  0  0
 26 59  1  0  0  0
 26 60  1  0  0  0
 27 61  1  0  0  0
 27 62  1  0  0  0
 28 29  1  0  0  0
 28 63  1  0  0  0
 28 64  1  0  0  0
 29 30  1  0  0  0
 29 34  2  0  0  0
 30 31  2  0  0  0
 30 65  1  0  0  0
 31 32  1  0  0  0
 31 35  1  0  0  0
 32 33  2  0  0  0
 32 66  1  0  0  0
 33 34  1  0  0  0
 33 67  1  0  0  0
 34 68  1  0  0  0
 35 36  1  0  0  0
 35 39  1  0  0  0
 36 37  1  0  0  0
 36 38  1  0  0  0
 39 40  1  0  0  0
 39 41  1  0  0  0
M  CHG  1  35   1
M  END
>  <Activity>
7.155

>  <set>
1

>  <Min_dist>
999.9

>  <Avg_dist>
999.9

$$$$
80
  Cerius2 12110215013D 1   1.00000                          
 
 57 59  0  0  0  0  0  0  0  0999 V2000
    5.1461    3.4102    1.0838 C   0  0  0  0  0  0
    3.7296    3.0203    0.7483 C   0  0  0  0  0  0
    3.1638    3.4308   -0.4443 C   0  0  0  0  0  0
    1.8645    3.0732   -0.7520 C   0  0  0  0  0  0
    1.1311    2.3049    0.1326 C   0  0  0  0  0  0
    1.6972    1.8936    1.3248 C   0  0  0  0  0  0
    2.9980    2.2476    1.6306 C   0  0  0  0  0  0
   -0.5256    1.8501   -0.2591 S   0  0  0  0  0  0
   -1.1519    1.5649    0.9841 O   0  0  0  0  0  0
   -0.9756    2.8093   -1.2059 O   0  0  0  0  0  0
   -0.4641    0.4091   -1.0729 N   0  0  0  0  0  0
    0.1187   -0.7711   -0.4298 C   0  0  0  0  0  0
    1.3709   -1.1762   -1.1639 C   0  0  0  0  0  0
    1.4929   -0.9188   -2.3427 O   0  0  0  0  0  0
    2.3552   -1.8247   -0.5103 N   0  0  0  0  0  0
    2.1881   -2.2597    0.8870 C   0  0  0  0  0  0
    2.6584   -3.7144    0.9938 C   0  0  0  0  0  0
    4.0015   -3.8187    0.5233 O   0  0  0  0  0  0
    3.9871   -3.5916   -0.8854 C   0  0  0  0  0  0
    3.6372   -2.1310   -1.1679 C   0  0  0  0  0  0
   -0.8889   -1.9218   -0.4665 C   0  0  0  0  0  0
   -2.1411   -1.5166    0.2675 C   0  0  0  0  0  0
   -3.1698   -0.8993   -0.4144 C   0  0  0  0  0  0
   -4.3284   -0.5253    0.2665 C   0  0  0  0  0  0
   -4.4393   -0.7784    1.6343 C   0  0  0  0  0  0
   -3.4039   -1.3962    2.3046 C   0  0  0  0  0  0
   -2.2593   -1.7695    1.6224 C   0  0  0  0  0  0
   -5.4350    0.1375   -0.4584 C   0  3  0  0  0  0
   -6.5397    0.4934    0.1942 N   0  0  0  0  0  0
   -7.2651    0.9279   -0.2811 H   0  0  0  0  0  0
   -6.6190    0.3181    1.1449 H   0  0  0  0  0  0
   -5.3261    0.3782   -1.7635 N   0  0  0  0  0  0
   -6.0515    0.8126   -2.2387 H   0  0  0  0  0  0
   -4.5214    0.1189   -2.2389 H   0  0  0  0  0  0
    5.1444    4.3583    1.6215 H   0  0  0  0  0  0
    5.5969    2.6390    1.7085 H   0  0  0  0  0  0
    5.7216    3.5151    0.1641 H   0  0  0  0  0  0
    3.7368    4.0311   -1.1355 H   0  0  0  0  0  0
    1.4222    3.3945   -1.6835 H   0  0  0  0  0  0
    1.1241    1.2936    2.0161 H   0  0  0  0  0  0
    3.4403    1.9263    2.5620 H   0  0  0  0  0  0
   -0.8141    0.3466   -1.9754 H   0  0  0  0  0  0
    0.3645   -0.5363    0.6059 H   0  0  0  0  0  0
    2.7889   -1.6297    1.5429 H   0  0  0  0  0  0
    1.1379   -2.1909    1.1706 H   0  0  0  0  0  0
    2.6125   -4.0353    2.0345 H   0  0  0  0  0  0
    2.0116   -4.3504    0.3894 H   0  0  0  0  0  0
    4.9697   -3.8174   -1.2996 H   0  0  0  0  0  0
    3.2410   -4.2367   -1.3495 H   0  0  0  0  0  0
    3.5480   -1.9753   -2.2430 H   0  0  0  0  0  0
    4.4147   -1.4819   -0.7649 H   0  0  0  0  0  0
   -1.1348   -2.1565   -1.5022 H   0  0  0  0  0  0
   -0.4553   -2.7999    0.0120 H   0  0  0  0  0  0
   -3.0779   -0.7057   -1.4729 H   0  0  0  0  0  0
   -5.3336   -0.4909    2.1671 H   0  0  0  0  0  0
   -3.4883   -1.5924    3.3632 H   0  0  0  0  0  0
   -1.4515   -2.2529    2.1516 H   0  0  0  0  0  0
  1  2  1  0  0  0
  1 35  1  0  0  0
  1 36  1  0  0  0
  1 37  1  0  0  0
  2  3  1  0  0  0
  2  7  2  0  0  0
  3  4  2  0  0  0
  3 38  1  0  0  0
  4  5  1  0  0  0
  4 39  1  0  0  0
  5  6  2  0  0  0
  5  8  1  0  0  0
  6  7  1  0  0  0
  6 40  1  0  0  0
  7 41  1  0  0  0
  8  9  2  0  0  0
  8 10  2  0  0  0
  8 11  1  0  0  0
 11 12  1  0  0  0
 11 42  1  0  0  0
 12 13  1  0  0  0
 12 21  1  0  0  0
 12 43  1  0  0  0
 13 14  2  0  0  0
 13 15  1  0  0  0
 15 16  1  0  0  0
 15 20  1  0  0  0
 16 17  1  0  0  0
 16 44  1  0  0  0
 16 45  1  0  0  0
 17 18  1  0  0  0
 17 46  1  0  0  0
 17 47  1  0  0  0
 18 19  1  0  0  0
 19 20  1  0  0  0
 19 48  1  0  0  0
 19 49  1  0  0  0
 20 50  1  0  0  0
 20 51  1  0  0  0
 21 22  1  0  0  0
 21 52  1  0  0  0
 21 53  1  0  0  0
 22 23  1  0  0  0
 22 27  2  0  0  0
 23 24  2  0  0  0
 23 54  1  0  0  0
 24 25  1  0  0  0
 24 28  1  0  0  0
 25 26  2  0  0  0
 25 55  1  0  0  0
 26 27  1  0  0  0
 26 56  1  0  0  0
 27 57  1  0  0  0
 28 29  1  0  0  0
 28 32  1  0  0  0
 29 30  1  0  0  0
 29 31  1  0  0  0
 32 33  1  0  0  0
 32 34  1  0  0  0
M  CHG  1  28   1
M  END
>  <Activity>
6.77

>  <set>
1

>  <Min_dist>
999.9

>  <Avg_dist>
999.9

$$$$
83
  Cerius2 12110215013D 1   1.00000                          
 
 78 82  0  0  0  0  0  0  0  0999 V2000
   -1.9125    1.9383   -1.7882 C   0  0  0  0  0  0
   -3.0764    2.6383   -1.8801 C   0  0  0  0  0  0
   -3.1593    3.9544   -1.4305 C   0  0  0  0  0  0
   -2.0791    4.5785   -0.8859 C   0  0  0  0  0  0
   -0.8606    3.8879   -0.7740 C   0  0  0  0  0  0
    0.2764    4.4989   -0.2178 C   0  0  0  0  0  0
    1.4398    3.7989   -0.1259 C   0  0  0  0  0  0
    1.5229    2.4824   -0.5759 C   0  0  0  0  0  0
    0.4429    1.8585   -1.1204 C   0  0  0  0  0  0
   -0.7761    2.5490   -1.2317 C   0  0  0  0  0  0
    3.0493    1.6130   -0.4383 S   0  0  0  0  0  0
    2.9920    0.5765   -1.4087 O   0  0  0  0  0  0
    4.0569    2.6119   -0.3604 O   0  0  0  0  0  0
    3.0550    0.8524    1.0327 N   0  0  0  0  0  0
    2.0189   -0.1330    1.3518 C   0  0  0  0  0  0
    1.2498    0.3218    2.5653 C   0  0  0  0  0  0
    1.7200    1.1637    3.3009 O   0  0  0  0  0  0
    0.0394   -0.2069    2.8331 N   0  0  0  0  0  0
   -0.5834   -1.1599    1.9044 C   0  0  0  0  0  0
   -1.9862   -0.6572    1.5491 C   0  0  0  0  0  0
   -2.7808   -0.4231    2.8359 C   0  0  0  0  0  0
   -2.0840    0.6463    3.6804 C   0  0  0  0  0  0
   -0.6798    0.1541    4.0625 C   0  0  0  0  0  0
   -2.6903   -1.6869    0.7035 C   0  0  0  0  0  0
   -2.1292   -2.7170    0.4140 O   0  0  0  0  0  0
   -3.9408   -1.4596    0.2719 O   0  0  0  0  0  0
   -4.6192   -2.4516   -0.5429 C   0  0  0  0  0  0
   -5.9991   -1.9566   -0.8920 C   0  0  0  0  0  0
   -6.1969   -1.2145   -2.0414 C   0  0  0  0  0  0
   -7.4627   -0.7603   -2.3615 C   0  0  0  0  0  0
   -8.5307   -1.0486   -1.5326 C   0  0  0  0  0  0
   -8.3330   -1.7914   -0.3836 C   0  0  0  0  0  0
   -7.0680   -2.2493   -0.0657 C   0  0  0  0  0  0
    2.6732   -1.4857    1.6401 C   0  0  0  0  0  0
    3.3302   -2.0032    0.3865 C   0  0  0  0  0  0
    4.6454   -1.6843    0.1165 C   0  0  0  0  0  0
    5.2523   -2.1646   -1.0441 C   0  0  0  0  0  0
    4.5242   -2.9652   -1.9251 C   0  0  0  0  0  0
    3.2102   -3.2769   -1.6437 C   0  0  0  0  0  0
    2.6155   -2.8017   -0.4882 C   0  0  0  0  0  0
    6.6620   -1.8260   -1.3400 C   0  3  0  0  0  0
    7.2385   -2.2860   -2.4486 N   0  0  0  0  0  0
    8.1626   -2.0640   -2.6426 H   0  0  0  0  0  0
    6.7344   -2.8429   -3.0622 H   0  0  0  0  0  0
    7.3540   -1.0615   -0.4977 N   0  0  0  0  0  0
    8.2781   -0.8396   -0.6917 H   0  0  0  0  0  0
    6.9340   -0.7265    0.3099 H   0  0  0  0  0  0
   -1.8641    0.9173   -2.1371 H   0  0  0  0  0  0
   -3.9484    2.1665   -2.3083 H   0  0  0  0  0  0
   -4.0947    4.4877   -1.5158 H   0  0  0  0  0  0
   -2.1581    5.5992   -0.5420 H   0  0  0  0  0  0
    0.2271    5.5186    0.1344 H   0  0  0  0  0  0
    2.3120    4.2708    0.3019 H   0  0  0  0  0  0
    0.5224    0.8382   -1.4655 H   0  0  0  0  0  0
    3.7443    1.0594    1.6830 H   0  0  0  0  0  0
    1.3383   -0.2314    0.5061 H   0  0  0  0  0  0
    0.0185   -1.2339    0.9986 H   0  0  0  0  0  0
   -0.6552   -2.1387    2.3787 H   0  0  0  0  0  0
   -1.9080    0.2779    0.9946 H   0  0  0  0  0  0
   -3.7876   -0.0888    2.5853 H   0  0  0  0  0  0
   -2.8375   -1.3528    3.4020 H   0  0  0  0  0  0
   -2.0049    1.5691    3.1057 H   0  0  0  0  0  0
   -2.6629    0.8293    4.5856 H   0  0  0  0  0  0
   -0.7623   -0.7166    4.7130 H   0  0  0  0  0  0
   -0.1419    0.9491    4.5790 H   0  0  0  0  0  0
   -4.0514   -2.6202   -1.4579 H   0  0  0  0  0  0
   -4.6983   -3.3859    0.0130 H   0  0  0  0  0  0
   -5.3625   -0.9893   -2.6890 H   0  0  0  0  0  0
   -7.6171   -0.1800   -3.2592 H   0  0  0  0  0  0
   -9.5194   -0.6931   -1.7824 H   0  0  0  0  0  0
   -9.1673   -2.0163    0.2642 H   0  0  0  0  0  0
   -6.9136   -2.8296    0.8319 H   0  0  0  0  0  0
    3.4239   -1.3670    2.4214 H   0  0  0  0  0  0
    1.9133   -2.1937    1.9709 H   0  0  0  0  0  0
    5.2035   -1.0639    0.8020 H   0  0  0  0  0  0
    4.9884   -3.3398   -2.8254 H   0  0  0  0  0  0
    2.6455   -3.8962   -2.3249 H   0  0  0  0  0  0
    1.5865   -3.0485   -0.2724 H   0  0  0  0  0  0
  1  2  1  0  0  0
  1 10  2  0  0  0
  1 48  1  0  0  0
  2  3  2  0  0  0
  2 49  1  0  0  0
  3  4  1  0  0  0
  3 50  1  0  0  0
  4  5  2  0  0  0
  4 51  1  0  0  0
  5  6  1  0  0  0
  5 10  1  0  0  0
  6  7  2  0  0  0
  6 52  1  0  0  0
  7  8  1  0  0  0
  7 53  1  0  0  0
  8  9  2  0  0  0
  8 11  1  0  0  0
  9 10  1  0  0  0
  9 54  1  0  0  0
 11 12  2  0  0  0
 11 13  2  0  0  0
 11 14  1  0  0  0
 14 15  1  0  0  0
 14 55  1  0  0  0
 15 16  1  0  0  0
 15 34  1  0  0  0
 15 56  1  0  0  0
 16 17  2  0  0  0
 16 18  1  0  0  0
 18 19  1  0  0  0
 18 23  1  0  0  0
 19 20  1  0  0  0
 19 57  1  0  0  0
 19 58  1  0  0  0
 20 21  1  0  0  0
 20 24  1  0  0  0
 20 59  1  0  0  0
 21 22  1  0  0  0
 21 60  1  0  0  0
 21 61  1  0  0  0
 22 23  1  0  0  0
 22 62  1  0  0  0
 22 63  1  0  0  0
 23 64  1  0  0  0
 23 65  1  0  0  0
 24 25  2  0  0  0
 24 26  1  0  0  0
 26 27  1  0  0  0
 27 28  1  0  0  0
 27 66  1  0  0  0
 27 67  1  0  0  0
 28 29  1  0  0  0
 28 33  2  0  0  0
 29 30  2  0  0  0
 29 68  1  0  0  0
 30 31  1  0  0  0
 30 69  1  0  0  0
 31 32  2  0  0  0
 31 70  1  0  0  0
 32 33  1  0  0  0
 32 71  1  0  0  0
 33 72  1  0  0  0
 34 35  1  0  0  0
 34 73  1  0  0  0
 34 74  1  0  0  0
 35 36  1  0  0  0
 35 40  2  0  0  0
 36 37  2  0  0  0
 36 75  1  0  0  0
 37 38  1  0  0  0
 37 41  1  0  0  0
 38 39  2  0  0  0
 38 76  1  0  0  0
 39 40  1  0  0  0
 39 77  1  0  0  0
 40 78  1  0  0  0
 41 42  1  0  0  0
 41 45  1  0  0  0
 42 43  1  0  0  0
 42 44  1  0  0  0
 45 46  1  0  0  0
 45 47  1  0  0  0
M  CHG  1  41   1
M  END
>  <Activity>
6.523

>  <set>
1

>  <Min_dist>
999.9

>  <Avg_dist>
999.9

$$$$
84
  Cerius2 12110215013D 1   1.00000                          
 
 71 75  0  0  0  0  0  0  0  0999 V2000
   -2.2870    2.0436   -2.0148 C   0  0  0  0  0  0
   -3.5364    2.5674   -2.1472 C   0  0  0  0  0  0
   -4.0287    3.4901   -1.2265 C   0  0  0  0  0  0
   -3.2747    3.8943   -0.1676 C   0  0  0  0  0  0
   -1.9802    3.3752    0.0024 C   0  0  0  0  0  0
   -1.1719    3.7689    1.0827 C   0  0  0  0  0  0
    0.0771    3.2451    1.2150 C   0  0  0  0  0  0
    0.5697    2.3223    0.2938 C   0  0  0  0  0  0
   -0.1840    1.9182   -0.7648 C   0  0  0  0  0  0
   -1.4792    2.4368   -0.9345 C   0  0  0  0  0  0
    2.1930    1.6696    0.5028 S   0  0  0  0  0  0
    2.5984    1.2237   -0.7841 O   0  0  0  0  0  0
    2.8893    2.6153    1.3027 O   0  0  0  0  0  0
    2.0620    0.3046    1.4312 N   0  0  0  0  0  0
    1.2493   -0.8222    0.9664 C   0  0  0  0  0  0
    0.1490   -1.0917    1.9603 C   0  0  0  0  0  0
    0.2558   -0.7017    3.1038 O   0  0  0  0  0  0
   -0.9536   -1.7661    1.5785 N   0  0  0  0  0  0
   -2.0906   -1.9439    2.4959 C   0  0  0  0  0  0
   -3.3745   -1.5561    1.7553 C   0  0  0  0  0  0
   -3.4923   -2.3499    0.5268 N   0  0  0  0  0  0
   -4.6875   -1.9664   -0.0858 C   0  0  0  0  0  0
   -5.0753   -2.5532   -1.2837 C   0  0  0  0  0  0
   -6.2579   -2.1721   -1.8865 C   0  0  0  0  0  0
   -7.0558   -1.2074   -1.2989 C   0  0  0  0  0  0
   -6.6727   -0.6213   -0.1065 C   0  0  0  0  0  0
   -5.4939   -1.0015    0.5044 C   0  0  0  0  0  0
   -2.4071   -1.9351   -0.3695 C   0  0  0  0  0  0
   -1.0616   -2.3430    0.2289 C   0  0  0  0  0  0
    2.1308   -2.0655    0.8319 C   0  0  0  0  0  0
    3.1620   -1.8362   -0.2429 C   0  0  0  0  0  0
    4.3852   -1.2866    0.0825 C   0  0  0  0  0  0
    5.3388   -1.0755   -0.9136 C   0  0  0  0  0  0
    5.0486   -1.4220   -2.2338 C   0  0  0  0  0  0
    3.8221   -1.9707   -2.5461 C   0  0  0  0  0  0
    2.8824   -2.1825   -1.5527 C   0  0  0  0  0  0
    6.6522   -0.4861   -0.5717 C   0  3  0  0  0  0
    7.5604   -0.2857   -1.5246 N   0  0  0  0  0  0
    8.4214    0.1006   -1.3004 H   0  0  0  0  0  0
    7.3609   -0.5262   -2.4429 H   0  0  0  0  0  0
    6.9260   -0.1560    0.6889 N   0  0  0  0  0  0
    7.7870    0.2303    0.9130 H   0  0  0  0  0  0
    6.2644   -0.3020    1.3830 H   0  0  0  0  0  0
   -1.9201    1.3262   -2.7339 H   0  0  0  0  0  0
   -4.1552    2.2635   -2.9785 H   0  0  0  0  0  0
   -5.0233    3.8909   -1.3551 H   0  0  0  0  0  0
   -3.6694    4.6105    0.5379 H   0  0  0  0  0  0
   -1.5400    4.4836    1.8039 H   0  0  0  0  0  0
    0.6962    3.5493    2.0460 H   0  0  0  0  0  0
    0.2111    1.2030   -1.4709 H   0  0  0  0  0  0
    2.5234    0.2512    2.2828 H   0  0  0  0  0  0
    0.8125   -0.5800   -0.0024 H   0  0  0  0  0  0
   -2.1489   -2.9859    2.8107 H   0  0  0  0  0  0
   -1.9622   -1.3031    3.3682 H   0  0  0  0  0  0
   -4.2353   -1.7486    2.3957 H   0  0  0  0  0  0
   -3.3411   -0.4967    1.5011 H   0  0  0  0  0  0
   -4.4525   -3.3064   -1.7433 H   0  0  0  0  0  0
   -6.5599   -2.6276   -2.8180 H   0  0  0  0  0  0
   -7.9800   -0.9109   -1.7726 H   0  0  0  0  0  0
   -7.2981    0.1318    0.3498 H   0  0  0  0  0  0
   -5.1955   -0.5436    1.4358 H   0  0  0  0  0  0
   -2.5344   -2.4148   -1.3400 H   0  0  0  0  0  0
   -2.4327   -0.8525   -0.4939 H   0  0  0  0  0  0
   -0.2524   -1.9686   -0.3979 H   0  0  0  0  0  0
   -1.0033   -3.4295    0.2944 H   0  0  0  0  0  0
    2.6316   -2.2602    1.7802 H   0  0  0  0  0  0
    1.5122   -2.9224    0.5650 H   0  0  0  0  0  0
    4.6037   -1.0202    1.1060 H   0  0  0  0  0  0
    5.7826   -1.2606   -3.0094 H   0  0  0  0  0  0
    3.5962   -2.2390   -3.5676 H   0  0  0  0  0  0
    1.9236   -2.6123   -1.8023 H   0  0  0  0  0  0
  1  2  1  0  0  0
  1 10  2  0  0  0
  1 44  1  0  0  0
  2  3  2  0  0  0
  2 45  1  0  0  0
  3  4  1  0  0  0
  3 46  1  0  0  0
  4  5  2  0  0  0
  4 47  1  0  0  0
  5  6  1  0  0  0
  5 10  1  0  0  0
  6  7  2  0  0  0
  6 48  1  0  0  0
  7  8  1  0  0  0
  7 49  1  0  0  0
  8  9  2  0  0  0
  8 11  1  0  0  0
  9 10  1  0  0  0
  9 50  1  0  0  0
 11 12  2  0  0  0
 11 13  2  0  0  0
 11 14  1  0  0  0
 14 15  1  0  0  0
 14 51  1  0  0  0
 15 16  1  0  0  0
 15 30  1  0  0  0
 15 52  1  0  0  0
 16 17  2  0  0  0
 16 18  1  0  0  0
 18 19  1  0  0  0
 18 29  1  0  0  0
 19 20  1  0  0  0
 19 53  1  0  0  0
 19 54  1  0  0  0
 20 21  1  0  0  0
 20 55  1  0  0  0
 20 56  1  0  0  0
 21 22  1  0  0  0
 21 28  1  0  0  0
 22 23  1  0  0  0
 22 27  2  0  0  0
 23 24  2  0  0  0
 23 57  1  0  0  0
 24 25  1  0  0  0
 24 58  1  0  0  0
 25 26  2  0  0  0
 25 59  1  0  0  0
 26 27  1  0  0  0
 26 60  1  0  0  0
 27 61  1  0  0  0
 28 29  1  0  0  0
 28 62  1  0  0  0
 28 63  1  0  0  0
 29 64  1  0  0  0
 29 65  1  0  0  0
 30 31  1  0  0  0
 30 66  1  0  0  0
 30 67  1  0  0  0
 31 32  1  0  0  0
 31 36  2  0  0  0
 32 33  2  0  0  0
 32 68  1  0  0  0
 33 34  1  0  0  0
 33 37  1  0  0  0
 34 35  2  0  0  0
 34 69  1  0  0  0
 35 36  1  0  0  0
 35 70  1  0  0  0
 36 71  1  0  0  0
 37 38  1  0  0  0
 37 41  1  0  0  0
 38 39  1  0  0  0
 38 40  1  0  0  0
 41 42  1  0  0  0
 41 43  1  0  0  0
M  CHG  1  37   1
M  END
>  <Activity>
6.284

>  <set>
1

>  <Min_dist>
999.9

>  <Avg_dist>
999.9

$$$$
85
  Cerius2 12110215013D 1   1.00000                          
 
 71 74  0  0  0  0  0  0  0  0999 V2000
   -2.5301    3.7636   -1.2962 C   0  0  0  0  0  0
   -3.7864    4.2770   -1.4020 C   0  0  0  0  0  0
   -4.7176    4.1113   -0.3788 C   0  0  0  0  0  0
   -4.3982    3.4308    0.7561 C   0  0  0  0  0  0
   -3.1112    2.8862    0.9012 C   0  0  0  0  0  0
   -2.7445    2.1779    2.0584 C   0  0  0  0  0  0
   -1.4885    1.6647    2.1640 C   0  0  0  0  0  0
   -0.5570    1.8307    1.1407 C   0  0  0  0  0  0
   -0.8762    2.5109    0.0060 C   0  0  0  0  0  0
   -2.1638    3.0551   -0.1395 C   0  0  0  0  0  0
    1.0585    1.1502    1.3190 S   0  0  0  0  0  0
    1.8910    1.8971    0.4425 O   0  0  0  0  0  0
    1.2618    0.9996    2.7173 O   0  0  0  0  0  0
    1.0193   -0.3861    0.7020 N   0  0  0  0  0  0
    0.6616   -0.6028   -0.7020 C   0  0  0  0  0  0
   -0.6133   -1.4027   -0.7779 C   0  0  0  0  0  0
   -1.3181   -1.3283   -1.7621 O   0  0  0  0  0  0
   -0.9703   -2.2006    0.2479 N   0  0  0  0  0  0
   -2.3859   -2.4910    0.5129 C   0  0  0  0  0  0
   -3.2350   -1.9151   -0.5909 C   0  0  0  0  0  0
   -3.2230   -2.4201   -1.6885 O   0  0  0  0  0  0
   -4.0047   -0.8410   -0.3547 O   0  0  0  0  0  0
   -4.8228   -0.2861   -1.4182 C   0  0  0  0  0  0
   -2.5759   -4.0101    0.5675 C   0  0  0  0  0  0
   -2.2895   -4.6104   -0.8104 C   0  0  0  0  0  0
   -1.6094   -4.6045    1.5945 C   0  0  0  0  0  0
   -0.1683   -4.3128    1.1699 C   0  0  0  0  0  0
    0.0492   -2.8016    1.1187 C   0  0  0  0  0  0
    1.7862   -1.3679   -1.4026 C   0  0  0  0  0  0
    3.0081   -0.4908   -1.4961 C   0  0  0  0  0  0
    3.9438   -0.5032   -0.4819 C   0  0  0  0  0  0
    5.0745    0.3089   -0.5702 C   0  0  0  0  0  0
    5.2518    1.1292   -1.6849 C   0  0  0  0  0  0
    4.3091    1.1325   -2.6921 C   0  0  0  0  0  0
    3.1923    0.3207   -2.6010 C   0  0  0  0  0  0
    6.0815    0.3009    0.5140 C   0  3  0  0  0  0
    7.1598    1.0771    0.4269 N   0  0  0  0  0  0
    7.8199    1.0719    1.1376 H   0  0  0  0  0  0
    7.2852    1.6479   -0.3473 H   0  0  0  0  0  0
    5.9094   -0.4826    1.5767 N   0  0  0  0  0  0
    6.5695   -0.4879    2.2874 H   0  0  0  0  0  0
    5.1238   -1.0482    1.6402 H   0  0  0  0  0  0
   -1.8201    3.8964   -2.0991 H   0  0  0  0  0  0
   -4.0655    4.8212   -2.2921 H   0  0  0  0  0  0
   -5.7075    4.5292   -0.4877 H   0  0  0  0  0  0
   -5.1302    3.3106    1.5410 H   0  0  0  0  0  0
   -3.4556    2.0420    2.8598 H   0  0  0  0  0  0
   -1.2093    1.1209    3.0544 H   0  0  0  0  0  0
   -0.1438    2.6323   -0.7784 H   0  0  0  0  0  0
    1.2333   -1.1426    1.2703 H   0  0  0  0  0  0
    0.5165    0.3597   -1.1926 H   0  0  0  0  0  0
   -2.6772   -2.0498    1.4661 H   0  0  0  0  0  0
   -5.3737    0.5755   -1.0409 H   0  0  0  0  0  0
   -4.1831    0.0249   -2.2441 H   0  0  0  0  0  0
   -5.5259   -1.0421   -1.7679 H   0  0  0  0  0  0
   -3.6014   -4.2384    0.8577 H   0  0  0  0  0  0
   -2.4247   -5.6913   -0.7710 H   0  0  0  0  0  0
   -2.9761   -4.1847   -1.5420 H   0  0  0  0  0  0
   -1.2635   -4.3829   -1.0996 H   0  0  0  0  0  0
   -1.7976   -4.1582    2.5710 H   0  0  0  0  0  0
   -1.7596   -5.6825    1.6531 H   0  0  0  0  0  0
    0.5199   -4.7565    1.8893 H   0  0  0  0  0  0
    0.0131   -4.7376    0.1826 H   0  0  0  0  0  0
    1.0419   -2.5885    0.7221 H   0  0  0  0  0  0
   -0.0430   -2.3850    2.1217 H   0  0  0  0  0  0
    2.0257   -2.2650   -0.8318 H   0  0  0  0  0  0
    1.4640   -1.6502   -2.4049 H   0  0  0  0  0  0
    3.8007   -1.1401    0.3786 H   0  0  0  0  0  0
    6.1250    1.7605   -1.7589 H   0  0  0  0  0  0
    4.4450    1.7673   -3.5553 H   0  0  0  0  0  0
    2.4571    0.3269   -3.3922 H   0  0  0  0  0  0
  1  2  1  0  0  0
  1 10  2  0  0  0
  1 43  1  0  0  0
  2  3  2  0  0  0
  2 44  1  0  0  0
  3  4  1  0  0  0
  3 45  1  0  0  0
  4  5  2  0  0  0
  4 46  1  0  0  0
  5  6  1  0  0  0
  5 10  1  0  0  0
  6  7  2  0  0  0
  6 47  1  0  0  0
  7  8  1  0  0  0
  7 48  1  0  0  0
  8  9  2  0  0  0
  8 11  1  0  0  0
  9 10  1  0  0  0
  9 49  1  0  0  0
 11 12  2  0  0  0
 11 13  2  0  0  0
 11 14  1  0  0  0
 14 15  1  0  0  0
 14 50  1  0  0  0
 15 16  1  0  0  0
 15 29  1  0  0  0
 15 51  1  0  0  0
 16 17  2  0  0  0
 16 18  1  0  0  0
 18 19  1  0  0  0
 18 28  1  0  0  0
 19 20  1  0  0  0
 19 24  1  0  0  0
 19 52  1  0  0  0
 20 21  2  0  0  0
 20 22  1  0  0  0
 22 23  1  0  0  0
 23 53  1  0  0  0
 23 54  1  0  0  0
 23 55  1  0  0  0
 24 25  1  0  0  0
 24 26  1  0  0  0
 24 56  1  0  0  0
 25 57  1  0  0  0
 25 58  1  0  0  0
 25 59  1  0  0  0
 26 27  1  0  0  0
 26 60  1  0  0  0
 26 61  1  0  0  0
 27 28  1  0  0  0
 27 62  1  0  0  0
 27 63  1  0  0  0
 28 64  1  0  0  0
 28 65  1  0  0  0
 29 30  1  0  0  0
 29 66  1  0  0  0
 29 67  1  0  0  0
 30 31  1  0  0  0
 30 35  2  0  0  0
 31 32  2  0  0  0
 31 68  1  0  0  0
 32 33  1  0  0  0
 32 36  1  0  0  0
 33 34  2  0  0  0
 33 69  1  0  0  0
 34 35  1  0  0  0
 34 70  1  0  0  0
 35 71  1  0  0  0
 36 37  1  0  0  0
 36 40  1  0  0  0
 37 38  1  0  0  0
 37 39  1  0  0  0
 40 41  1  0  0  0
 40 42  1  0  0  0
M  CHG  1  36   1
M  END
>  <Activity>
6.284

>  <set>
1

>  <Min_dist>
999.9

>  <Avg_dist>
999.9

$$$$
86
  Cerius2 12110215013D 1   1.00000                          
Structure written by Cerius2 SD Exporter
 74 77  0  0  0  0  0  0  0  0999 V2000
   -2.2546    2.4450   -2.1715 C   0  0  0  0  0  0
   -3.4460    3.0769   -2.3566 C   0  0  0  0  0  0
   -3.9092    4.0178   -1.4393 C   0  0  0  0  0  0
   -3.1839    4.3323   -0.3311 C   0  0  0  0  0  0
   -1.9493    3.7005   -0.1059 C   0  0  0  0  0  0
   -1.1722    3.9994    1.0264 C   0  0  0  0  0  0
    0.0189    3.3676    1.2114 C   0  0  0  0  0  0
    0.4823    2.4265    0.2936 C   0  0  0  0  0  0
   -0.2427    2.1121   -0.8143 C   0  0  0  0  0  0
   -1.4780    2.7435   -1.0393 C   0  0  0  0  0  0
    2.0305    1.6325    0.5717 S   0  0  0  0  0  0
    2.4679    1.1821   -0.7031 O   0  0  0  0  0  0
    2.7586    2.4971    1.4329 O   0  0  0  0  0  0
    1.7332    0.2636    1.4549 N   0  0  0  0  0  0
    0.8554   -0.7788    0.9172 C   0  0  0  0  0  0
   -0.3173   -0.9748    1.8431 C   0  0  0  0  0  0
   -0.2599   -0.5763    2.9872 O   0  0  0  0  0  0
   -1.4299   -1.5930    1.3999 N   0  0  0  0  0  0
   -2.5393   -1.8856    2.3183 C   0  0  0  0  0  0
   -3.8224   -1.2671    1.7496 C   0  0  0  0  0  0
   -3.9481   -1.6602    0.3391 C   0  0  0  0  0  0
   -2.8387   -1.3676   -0.5793 C   0  0  0  0  0  0
   -1.5579   -1.9811   -0.0118 C   0  0  0  0  0  0
    1.6349   -2.0898    0.7969 C   0  0  0  0  0  0
    2.7264   -1.9328   -0.2303 C   0  0  0  0  0  0
    3.9763   -1.4929    0.1550 C   0  0  0  0  0  0
    4.9857   -1.3486   -0.7970 C   0  0  0  0  0  0
    4.7240   -1.6504   -2.1340 C   0  0  0  0  0  0
    3.4703   -2.0894   -2.5063 C   0  0  0  0  0  0
    2.4749   -2.2355   -1.5564 C   0  0  0  0  0  0
    6.3281   -0.8768   -0.3909 C   0  3  0  0  0  0
    7.2894   -0.7400   -1.3018 N   0  0  0  0  0  0
    8.1694   -0.4308   -1.0356 H   0  0  0  0  0  0
    7.1098   -0.9496   -2.2317 H   0  0  0  0  0  0
    6.5746   -0.5891    0.8856 N   0  0  0  0  0  0
    7.4546   -0.2799    1.1518 H   0  0  0  0  0  0
   -1.9102    1.7149   -2.8889 H   0  0  0  0  0  0
   -4.0410    2.8457   -3.2278 H   0  0  0  0  0  0
   -4.8576    4.5053   -1.6103 H   0  0  0  0  0  0
   -3.5553    5.0640    0.3711 H   0  0  0  0  0  0
   -1.5182    4.7269    1.7456 H   0  0  0  0  0  0
    0.6142    3.5991    2.0823 H   0  0  0  0  0  0
    0.1294    1.3814   -1.5172 H   0  0  0  0  0  0
    2.1403    0.1520    2.3283 H   0  0  0  0  0  0
    0.4953   -0.4786   -0.0668 H   0  0  0  0  0  0
   -2.6631   -2.9646    2.4104 H   0  0  0  0  0  0
   -2.3277   -1.4542    3.2967 H   0  0  0  0  0  0
   -4.6836   -1.6320    2.3092 H   0  0  0  0  0  0
   -3.7687   -0.1809    1.8232 H   0  0  0  0  0  0
   -3.0502   -1.7990   -1.5577 H   0  0  0  0  0  0
   -2.7149   -0.2886   -0.6715 H   0  0  0  0  0  0
   -0.6975   -1.6154   -0.5723 H   0  0  0  0  0  0
   -1.6096   -3.0675   -0.0838 H   0  0  0  0  0  0
    2.0769   -2.3396    1.7614 H   0  0  0  0  0  0
    0.9588   -2.8876    0.4896 H   0  0  0  0  0  0
    4.1726   -1.2605    1.1913 H   0  0  0  0  0  0
    5.5012   -1.5404   -2.8758 H   0  0  0  0  0  0
    3.2664   -2.3230   -3.5409 H   0  0  0  0  0  0
    1.4950   -2.5794   -1.8529 H   0  0  0  0  0  0
    5.9247   -0.6815    1.5013 H   0  0  0  0  0  0
   -4.0649   -2.6012    0.2818 H   0  0  0  0  0  0
   -5.1007   -1.0532   -0.1739 C   0  0  0  0  0  0
   -5.3228   -1.0771   -1.4039 O   0  0  0  0  0  0
   -5.9693   -0.4435    0.6615 O   0  0  0  0  0  0
   -7.1799    0.1943    0.1252 C   0  0  0  0  0  0
   -7.9169    0.7541    1.1757 C   0  0  0  0  0  0
   -6.9332    0.8771   -0.4876 H   0  0  0  0  0  0
   -7.9598   -0.7640   -0.5332 C   0  0  0  0  0  0
   -7.3877    1.4044    1.6224 H   0  0  0  0  0  0
   -8.6994    1.1664    0.8290 H   0  0  0  0  0  0
   -8.1636    0.0713    1.7884 H   0  0  0  0  0  0
   -7.4597   -1.1438   -1.2460 H   0  0  0  0  0  0
   -8.2065   -1.4468    0.0796 H   0  0  0  0  0  0
   -8.7423   -0.3517   -0.8798 H   0  0  0  0  0  0
  1  2  1  0  0  0
  1 10  2  0  0  0
  1 37  1  0  0  0
  2  3  2  0  0  0
  2 38  1  0  0  0
  3  4  1  0  0  0
  3 39  1  0  0  0
  4  5  2  0  0  0
  4 40  1  0  0  0
  5  6  1  0  0  0
  5 10  1  0  0  0
  6  7  2  0  0  0
  6 41  1  0  0  0
  7  8  1  0  0  0
  7 42  1  0  0  0
  8  9  2  0  0  0
  8 11  1  0  0  0
  9 10  1  0  0  0
  9 43  1  0  0  0
 11 12  2  0  0  0
 11 13  2  0  0  0
 11 14  1  0  0  0
 14 15  1  0  0  0
 14 44  1  0  0  0
 15 16  1  0  0  0
 15 24  1  0  0  0
 15 45  1  0  0  0
 16 17  2  0  0  0
 16 18  1  0  0  0
 18 19  1  0  0  0
 18 23  1  0  0  0
 19 20  1  0  0  0
 19 46  1  0  0  0
 19 47  1  0  0  0
 20 21  1  0  0  0
 20 48  1  0  0  0
 20 49  1  0  0  0
 21 22  1  0  0  0
 21 61  1  0  0  0
 21 62  1  0  0  0
 22 23  1  0  0  0
 22 50  1  0  0  0
 22 51  1  0  0  0
 23 52  1  0  0  0
 23 53  1  0  0  0
 24 25  1  0  0  0
 24 54  1  0  0  0
 24 55  1  0  0  0
 25 26  1  0  0  0
 25 30  2  0  0  0
 26 27  2  0  0  0
 26 56  1  0  0  0
 27 28  1  0  0  0
 27 31  1  0  0  0
 28 29  2  0  0  0
 28 57  1  0  0  0
 29 30  1  0  0  0
 29 58  1  0  0  0
 30 59  1  0  0  0
 31 32  1  0  0  0
 31 35  1  0  0  0
 32 33  1  0  0  0
 32 34  1  0  0  0
 35 36  1  0  0  0
 35 60  1  0  0  0
 63 62  2  0  0  0
 64 62  1  0  0  0
 64 65  1  0  0  0
 65 66  1  0  0  0
 65 67  1  0  0  0
 65 68  1  0  0  0
 66 69  1  0  0  0
 66 70  1  0  0  0
 66 71  1  0  0  0
 68 72  1  0  0  0
 68 73  1  0  0  0
 68 74  1  0  0  0
M  CHG  1  31   1
M  END
>  <Activity>
6.149

>  <set>
1

>  <Min_dist>
999.9

>  <Avg_dist>
999.9

$$$$
87
  Cerius2 12110215013D 1   1.00000                          
 
 73 74  0  0  0  0  0  0  0  0999 V2000
   -1.9654    2.5564    0.7696 C   0  0  0  0  0  0
   -2.3852    1.3289    0.0027 C   0  0  0  0  0  0
   -1.4285    0.5029   -0.5571 C   0  0  0  0  0  0
   -1.8136   -0.6230   -1.2606 C   0  0  0  0  0  0
   -3.1554   -0.9231   -1.4040 C   0  0  0  0  0  0
   -4.1120   -0.0976   -0.8435 C   0  0  0  0  0  0
   -3.7268    1.0260   -0.1363 C   0  0  0  0  0  0
   -5.5748   -0.4244   -1.0003 C   0  0  0  0  0  0
   -6.2047   -0.6189    0.3803 C   0  0  0  0  0  0
   -6.2792    0.7243   -1.7251 C   0  0  0  0  0  0
   -0.7707   -1.5231   -1.8716 C   0  0  0  0  0  0
   -1.2312   -2.9787   -1.7714 C   0  0  0  0  0  0
   -0.5740   -1.1504   -3.3425 C   0  0  0  0  0  0
    0.2817    0.8854   -0.3743 S   0  0  0  0  0  0
    0.9434    0.2133   -1.4372 O   0  0  0  0  0  0
    0.3400    2.2825   -0.1217 O   0  0  0  0  0  0
    0.8066    0.1546    1.0160 N   0  0  0  0  0  0
    0.8026   -1.3066    1.1220 C   0  0  0  0  0  0
   -0.2188   -1.7332    2.1447 C   0  0  0  0  0  0
   -0.7801   -2.8023    2.0317 O   0  0  0  0  0  0
   -0.5085   -0.9266    3.1848 N   0  0  0  0  0  0
   -1.5014   -1.3413    4.1790 C   0  0  0  0  0  0
    2.1886   -1.7905    1.5529 C   0  0  0  0  0  0
    3.2099   -1.3639    0.5302 C   0  0  0  0  0  0
    3.8477   -0.1471    0.6602 C   0  0  0  0  0  0
    4.7933    0.2461   -0.2871 C   0  0  0  0  0  0
    5.0879   -0.5949   -1.3609 C   0  0  0  0  0  0
    4.4434   -1.8088   -1.4796 C   0  0  0  0  0  0
    3.5103   -2.1954   -0.5337 C   0  0  0  0  0  0
    5.4805    1.5497   -0.1541 C   0  3  0  0  0  0
    6.3826    1.9223   -1.0598 N   0  0  0  0  0  0
    6.8331    2.7769   -0.9726 H   0  0  0  0  0  0
    6.5892    1.3391   -1.8069 H   0  0  0  0  0  0
    5.1969    2.3502    0.8714 N   0  0  0  0  0  0
    5.6475    3.2048    0.9586 H   0  0  0  0  0  0
    4.5398    2.0788    1.5313 H   0  0  0  0  0  0
   -2.1837    3.7984   -0.0967 C   0  0  0  0  0  0
   -2.8016    2.6712    2.0457 C   0  0  0  0  0  0
   -0.9105    2.4775    1.0323 H   0  0  0  0  0  0
   -3.4563   -1.8024   -1.9542 H   0  0  0  0  0  0
   -4.4742    1.6710    0.3016 H   0  0  0  0  0  0
   -5.6821   -1.3406   -1.5810 H   0  0  0  0  0  0
   -7.2627   -0.8553    0.2669 H   0  0  0  0  0  0
   -5.7029   -1.4372    0.8967 H   0  0  0  0  0  0
   -6.0974    0.2973    0.9610 H   0  0  0  0  0  0
   -6.1718    1.6404   -1.1444 H   0  0  0  0  0  0
   -5.8304    0.8628   -2.7087 H   0  0  0  0  0  0
   -7.3372    0.4879   -1.8385 H   0  0  0  0  0  0
    0.1715   -1.4025   -1.3371 H   0  0  0  0  0  0
   -0.5063   -3.6241   -2.2674 H   0  0  0  0  0  0
   -1.3126   -3.2626   -0.7222 H   0  0  0  0  0  0
   -2.2030   -3.0863   -2.2533 H   0  0  0  0  0  0
   -1.5162   -1.2710   -3.8770 H   0  0  0  0  0  0
   -0.2459   -0.1134   -3.4138 H   0  0  0  0  0  0
    0.1803   -1.8014   -3.7844 H   0  0  0  0  0  0
    1.1168    0.6940    1.7601 H   0  0  0  0  0  0
    0.5508   -1.7404    0.1542 H   0  0  0  0  0  0
   -0.0596   -0.0715    3.2752 H   0  0  0  0  0  0
   -1.6006   -0.5661    4.9388 H   0  0  0  0  0  0
   -2.4631   -1.4956    3.6896 H   0  0  0  0  0  0
   -1.1793   -2.2709    4.6483 H   0  0  0  0  0  0
    2.4403   -1.3567    2.5206 H   0  0  0  0  0  0
    2.1856   -2.8777    1.6317 H   0  0  0  0  0  0
    3.6151    0.4996    1.4933 H   0  0  0  0  0  0
    5.8188   -0.2959   -2.0977 H   0  0  0  0  0  0
    4.6703   -2.4604   -2.3104 H   0  0  0  0  0  0
    3.0084   -3.1467   -0.6310 H   0  0  0  0  0  0
   -1.5879    3.7166   -1.0058 H   0  0  0  0  0  0
   -3.2386    3.8773   -0.3595 H   0  0  0  0  0  0
   -1.8800    4.6863    0.4580 H   0  0  0  0  0  0
   -2.6461    1.7863    2.6629 H   0  0  0  0  0  0
   -2.4980    3.5590    2.6004 H   0  0  0  0  0  0
   -3.8565    2.7501    1.7829 H   0  0  0  0  0  0
  1  2  1  0  0  0
  1 37  1  0  0  0
  1 38  1  0  0  0
  1 39  1  0  0  0
  2  3  1  0  0  0
  2  7  2  0  0  0
  3  4  2  0  0  0
  3 14  1  0  0  0
  4  5  1  0  0  0
  4 11  1  0  0  0
  5  6  2  0  0  0
  5 40  1  0  0  0
  6  7  1  0  0  0
  6  8  1  0  0  0
  7 41  1  0  0  0
  8  9  1  0  0  0
  8 10  1  0  0  0
  8 42  1  0  0  0
  9 43  1  0  0  0
  9 44  1  0  0  0
  9 45  1  0  0  0
 10 46  1  0  0  0
 10 47  1  0  0  0
 10 48  1  0  0  0
 11 12  1  0  0  0
 11 13  1  0  0  0
 11 49  1  0  0  0
 12 50  1  0  0  0
 12 51  1  0  0  0
 12 52  1  0  0  0
 13 53  1  0  0  0
 13 54  1  0  0  0
 13 55  1  0  0  0
 14 15  2  0  0  0
 14 16  2  0  0  0
 14 17  1  0  0  0
 17 18  1  0  0  0
 17 56  1  0  0  0
 18 19  1  0  0  0
 18 23  1  0  0  0
 18 57  1  0  0  0
 19 20  2  0  0  0
 19 21  1  0  0  0
 21 22  1  0  0  0
 21 58  1  0  0  0
 22 59  1  0  0  0
 22 60  1  0  0  0
 22 61  1  0  0  0
 23 24  1  0  0  0
 23 62  1  0  0  0
 23 63  1  0  0  0
 24 25  1  0  0  0
 24 29  2  0  0  0
 25 26  2  0  0  0
 25 64  1  0  0  0
 26 27  1  0  0  0
 26 30  1  0  0  0
 27 28  2  0  0  0
 27 65  1  0  0  0
 28 29  1  0  0  0
 28 66  1  0  0  0
 29 67  1  0  0  0
 30 31  1  0  0  0
 30 34  1  0  0  0
 31 32  1  0  0  0
 31 33  1  0  0  0
 34 35  1  0  0  0
 34 36  1  0  0  0
 37 68  1  0  0  0
 37 69  1  0  0  0
 37 70  1  0  0  0
 38 71  1  0  0  0
 38 72  1  0  0  0
 38 73  1  0  0  0
M  CHG  1  30   1
M  END
>  <Activity>
5.42

>  <set>
1

>  <Min_dist>
999.9

>  <Avg_dist>
999.9

$$$$
88
  Cerius2 12110215013D 1   1.00000                          
 
 49 50  0  0  0  0  0  0  0  0999 V2000
    6.0957    1.8373    0.8860 C   0  0  0  0  0  0
    4.6589    1.6246    0.4842 C   0  0  0  0  0  0
    4.3220    1.5288   -0.8531 C   0  0  0  0  0  0
    3.0041    1.3338   -1.2216 C   0  0  0  0  0  0
    2.0230    1.2341   -0.2528 C   0  0  0  0  0  0
    2.3599    1.3291    1.0844 C   0  0  0  0  0  0
    3.6785    1.5197    1.4531 C   0  0  0  0  0  0
    0.3429    0.9867   -0.7226 S   0  0  0  0  0  0
   -0.4362    1.4501    0.3717 O   0  0  0  0  0  0
    0.2430    1.4556   -2.0603 O   0  0  0  0  0  0
    0.0854   -0.6474   -0.7982 N   0  0  0  0  0  0
    0.2790   -1.4754    0.3948 C   0  0  0  0  0  0
    1.3420   -2.5082    0.1223 C   0  0  0  0  0  0
    2.0381   -2.9154    1.0281 O   0  0  0  0  0  0
    1.5191   -2.9794   -1.1279 N   0  0  0  0  0  0
    2.5525   -3.9835   -1.3928 C   0  0  0  0  0  0
   -1.0345   -2.1762    0.7477 C   0  0  0  0  0  0
   -2.0975   -1.1433    1.0202 C   0  0  0  0  0  0
   -2.8888   -0.6810   -0.0115 C   0  0  0  0  0  0
   -3.8727    0.2748    0.2425 C   0  0  0  0  0  0
   -4.0500    0.7573    1.5397 C   0  0  0  0  0  0
   -3.2525    0.2871    2.5624 C   0  0  0  0  0  0
   -2.2818   -0.6649    2.3049 C   0  0  0  0  0  0
   -4.7243    0.7752   -0.8592 C   0  3  0  0  0  0
   -5.6625    1.6875   -0.6137 N   0  0  0  0  0  0
   -6.2208    2.0156   -1.3359 H   0  0  0  0  0  0
   -5.7878    2.0241    0.2874 H   0  0  0  0  0  0
   -4.5524    0.3133   -2.0961 N   0  0  0  0  0  0
   -5.1107    0.6413   -2.8183 H   0  0  0  0  0  0
   -3.8689   -0.3514   -2.2750 H   0  0  0  0  0  0
    6.3020    2.9059    0.9452 H   0  0  0  0  0  0
    6.2726    1.3786    1.8588 H   0  0  0  0  0  0
    6.7516    1.3811    0.1445 H   0  0  0  0  0  0
    5.0885    1.6067   -1.6099 H   0  0  0  0  0  0
    2.7408    1.2597   -2.2664 H   0  0  0  0  0  0
    1.5934    1.2515    1.8413 H   0  0  0  0  0  0
    3.9418    1.5939    2.4979 H   0  0  0  0  0  0
   -0.1935   -1.0563   -1.6324 H   0  0  0  0  0  0
    0.5898   -0.8451    1.2280 H   0  0  0  0  0  0
    0.9623   -2.6537   -1.8524 H   0  0  0  0  0  0
    2.5461   -4.2408   -2.4519 H   0  0  0  0  0  0
    3.5285   -3.5804   -1.1226 H   0  0  0  0  0  0
    2.3516   -4.8765   -0.8008 H   0  0  0  0  0  0
   -1.3454   -2.8064   -0.0854 H   0  0  0  0  0  0
   -0.8905   -2.7922    1.6354 H   0  0  0  0  0  0
   -2.7464   -1.0580   -1.0135 H   0  0  0  0  0  0
   -4.8098    1.4976    1.7426 H   0  0  0  0  0  0
   -3.3885    0.6600    3.5668 H   0  0  0  0  0  0
   -1.6600   -1.0298    3.1090 H   0  0  0  0  0  0
  1  2  1  0  0  0
  1 31  1  0  0  0
  1 32  1  0  0  0
  1 33  1  0  0  0
  2  3  1  0  0  0
  2  7  2  0  0  0
  3  4  2  0  0  0
  3 34  1  0  0  0
  4  5  1  0  0  0
  4 35  1  0  0  0
  5  6  2  0  0  0
  5  8  1  0  0  0
  6  7  1  0  0  0
  6 36  1  0  0  0
  7 37  1  0  0  0
  8  9  2  0  0  0
  8 10  2  0  0  0
  8 11  1  0  0  0
 11 12  1  0  0  0
 11 38  1  0  0  0
 12 13  1  0  0  0
 12 17  1  0  0  0
 12 39  1  0  0  0
 13 14  2  0  0  0
 13 15  1  0  0  0
 15 16  1  0  0  0
 15 40  1  0  0  0
 16 41  1  0  0  0
 16 42  1  0  0  0
 16 43  1  0  0  0
 17 18  1  0  0  0
 17 44  1  0  0  0
 17 45  1  0  0  0
 18 19  1  0  0  0
 18 23  2  0  0  0
 19 20  2  0  0  0
 19 46  1  0  0  0
 20 21  1  0  0  0
 20 24  1  0  0  0
 21 22  2  0  0  0
 21 47  1  0  0  0
 22 23  1  0  0  0
 22 48  1  0  0  0
 23 49  1  0  0  0
 24 25  1  0  0  0
 24 28  1  0  0  0
 25 26  1  0  0  0
 25 27  1  0  0  0
 28 29  1  0  0  0
 28 30  1  0  0  0
M  CHG  1  24   1
M  END
>  <Activity>
4.745

>  <set>
1

>  <Min_dist>
999.9

>  <Avg_dist>
999.9

$$$$
01
  Cerius2 12110215013D 1   1.00000                          
 
 75 78  0  0  0  0  0  0  0  0999 V2000
    0.1103    3.2232   -0.9248 C   0  0  0  0  0  0
    0.9489    3.9865   -1.6788 C   0  0  0  0  0  0
    2.2411    4.2727   -1.2494 C   0  0  0  0  0  0
    2.7071    3.7891   -0.0452 C   0  0  0  0  0  0
    1.8597    2.9952    0.7571 C   0  0  0  0  0  0
    0.5462    2.7108    0.3089 C   0  0  0  0  0  0
   -0.2977    1.9201    1.1081 C   0  0  0  0  0  0
    0.1569    1.4401    2.2977 C   0  0  0  0  0  0
    1.4491    1.7204    2.7376 C   0  0  0  0  0  0
    2.2937    2.4827    1.9896 C   0  0  0  0  0  0
   -1.9357    1.5529    0.5728 S   0  0  0  0  0  0
   -2.4765    0.6803    1.5553 O   0  0  0  0  0  0
   -2.4999    2.7954    0.1762 O   0  0  0  0  0  0
   -1.8140    0.6518   -0.8112 N   0  0  0  0  0  0
   -1.2207   -0.6868   -0.7639 C   0  0  0  0  0  0
    0.0651   -0.6944   -1.5500 C   0  0  0  0  0  0
    0.2624    0.1498   -2.3980 O   0  0  0  0  0  0
    0.9957   -1.6395   -1.3105 N   0  0  0  0  0  0
    2.2822   -1.6192   -2.0206 C   0  0  0  0  0  0
    3.4136   -1.6155   -0.9851 C   0  0  0  0  0  0
    3.1602   -2.6844   -0.0088 N   0  0  0  0  0  0
    4.3040   -3.8449    0.2862 S   0  0  0  0  0  0
    3.5261   -4.9488    0.7282 O   0  0  0  0  0  0
    5.0399   -3.8780   -0.9290 O   0  0  0  0  0  0
    5.2789   -3.1300    1.6386 C   0  0  0  0  0  0
    1.8736   -2.7046    0.7013 C   0  0  0  0  0  0
    0.7445   -2.7052   -0.3302 C   0  0  0  0  0  0
   -2.1952   -1.6983   -1.3705 C   0  0  0  0  0  0
   -3.4280   -1.7875   -0.5082 C   0  0  0  0  0  0
   -4.5008   -0.9546   -0.7525 C   0  0  0  0  0  0
   -5.6413   -1.0387    0.0464 C   0  0  0  0  0  0
   -5.6894   -1.9658    1.0882 C   0  0  0  0  0  0
   -4.6103   -2.7928    1.3220 C   0  0  0  0  0  0
   -3.4839   -2.7080    0.5228 C   0  0  0  0  0  0
   -6.7950   -0.1483   -0.2097 C   0  3  0  0  0  0
   -7.8822   -0.2310    0.5545 N   0  0  0  0  0  0
   -8.6385    0.3527    0.3866 H   0  0  0  0  0  0
   -7.9180   -0.8749    1.2790 H   0  0  0  0  0  0
   -6.7459    0.7356   -1.2043 N   0  0  0  0  0  0
   -7.5023    1.3193   -1.3721 H   0  0  0  0  0  0
   -5.9539    0.7958   -1.7610 H   0  0  0  0  0  0
    4.0028    4.0810    0.3755 N   0  0  0  0  0  0
    4.9101    3.5392   -0.6448 C   0  0  0  0  0  0
    4.1419    5.5427    0.3307 C   0  0  0  0  0  0
   -0.8908    3.0154   -1.2727 H   0  0  0  0  0  0
    0.6055    4.3758   -2.6258 H   0  0  0  0  0  0
    2.8864    4.8803   -1.8664 H   0  0  0  0  0  0
   -0.4936    0.8331    2.9100 H   0  0  0  0  0  0
    1.7855    1.3273    3.6856 H   0  0  0  0  0  0
    3.2928    2.6914    2.3426 H   0  0  0  0  0  0
   -2.1355    1.0104   -1.6532 H   0  0  0  0  0  0
   -1.0149   -0.9566    0.2719 H   0  0  0  0  0  0
    2.3662   -2.5045   -2.6509 H   0  0  0  0  0  0
    2.3464   -0.7217   -2.6358 H   0  0  0  0  0  0
    4.3664   -1.7937   -1.4836 H   0  0  0  0  0  0
    3.4393   -0.6526   -0.4749 H   0  0  0  0  0  0
    6.0739   -3.8212    1.9183 H   0  0  0  0  0  0
    5.7160   -2.1863    1.3121 H   0  0  0  0  0  0
    4.6325   -2.9528    2.4982 H   0  0  0  0  0  0
    1.8094   -3.6021    1.3165 H   0  0  0  0  0  0
    1.7897   -1.8193    1.3316 H   0  0  0  0  0  0
   -0.2076   -2.5269    0.1696 H   0  0  0  0  0  0
    0.7172   -3.6670   -0.8422 H   0  0  0  0  0  0
   -2.4758   -1.3762   -2.3733 H   0  0  0  0  0  0
   -1.7174   -2.6765   -1.4235 H   0  0  0  0  0  0
   -4.4573   -0.2389   -1.5601 H   0  0  0  0  0  0
   -6.5694   -2.0355    1.7103 H   0  0  0  0  0  0
   -4.6462   -3.5105    2.1283 H   0  0  0  0  0  0
   -2.6417   -3.3576    0.7099 H   0  0  0  0  0  0
    5.9419    3.7437   -0.3591 H   0  0  0  0  0  0
    4.7625    2.4623   -0.7273 H   0  0  0  0  0  0
    4.6991    4.0094   -1.6053 H   0  0  0  0  0  0
    5.1449    5.8223    0.6530 H   0  0  0  0  0  0
    3.9771    5.8923   -0.6885 H   0  0  0  0  0  0
    3.4069    5.9982    0.9944 H   0  0  0  0  0  0
  1  2  1  0  0  0
  1  6  2  0  0  0
  1 45  1  0  0  0
  2  3  2  0  0  0
  2 46  1  0  0  0
  3  4  1  0  0  0
  3 47  1  0  0  0
  4  5  2  0  0  0
  4 42  1  0  0  0
  5  6  1  0  0  0
  5 10  1  0  0  0
  6  7  1  0  0  0
  7  8  2  0  0  0
  7 11  1  0  0  0
  8  9  1  0  0  0
  8 48  1  0  0  0
  9 10  2  0  0  0
  9 49  1  0  0  0
 10 50  1  0  0  0
 11 12  2  0  0  0
 11 13  2  0  0  0
 11 14  1  0  0  0
 14 15  1  0  0  0
 14 51  1  0  0  0
 15 16  1  0  0  0
 15 28  1  0  0  0
 15 52  1  0  0  0
 16 17  2  0  0  0
 16 18  1  0  0  0
 18 19  1  0  0  0
 18 27  1  0  0  0
 19 20  1  0  0  0
 19 53  1  0  0  0
 19 54  1  0  0  0
 20 21  1  0  0  0
 20 55  1  0  0  0
 20 56  1  0  0  0
 21 22  1  0  0  0
 21 26  1  0  0  0
 22 23  2  0  0  0
 22 24  2  0  0  0
 22 25  1  0  0  0
 25 57  1  0  0  0
 25 58  1  0  0  0
 25 59  1  0  0  0
 26 27  1  0  0  0
 26 60  1  0  0  0
 26 61  1  0  0  0
 27 62  1  0  0  0
 27 63  1  0  0  0
 28 29  1  0  0  0
 28 64  1  0  0  0
 28 65  1  0  0  0
 29 30  1  0  0  0
 29 34  2  0  0  0
 30 31  2  0  0  0
 30 66  1  0  0  0
 31 32  1  0  0  0
 31 35  1  0  0  0
 32 33  2  0  0  0
 32 67  1  0  0  0
 33 34  1  0  0  0
 33 68  1  0  0  0
 34 69  1  0  0  0
 35 36  1  0  0  0
 35 39  1  0  0  0
 36 37  1  0  0  0
 36 38  1  0  0  0
 39 40  1  0  0  0
 39 41  1  0  0  0
 42 43  1  0  0  0
 42 44  1  0  0  0
 43 70  1  0  0  0
 43 71  1  0  0  0
 43 72  1  0  0  0
 44 73  1  0  0  0
 44 74  1  0  0  0
 44 75  1  0  0  0
M  CHG  1  35   1
M  END
>  <Activity>
8.377

>  <set>
2

>  <Min_dist>
0.067797

>  <Avg_dist>
0.263034

$$$$
05
  Cerius2 12110215013D 1   1.00000                          
 
 75 78  0  0  0  0  0  0  0  0999 V2000
   -2.1291    2.2644   -1.8115 C   0  0  0  0  0  0
   -3.5952    2.6635   -1.6068 C   0  0  0  0  0  0
   -3.6006    3.9765   -0.8125 C   0  0  0  0  0  0
   -3.1841    3.7129    0.5189 O   0  0  0  0  0  0
   -1.9355    3.1901    0.5334 C   0  0  0  0  0  0
   -1.1808    3.3841    1.6926 C   0  0  0  0  0  0
    0.0950    2.8741    1.7920 C   0  0  0  0  0  0
    0.6391    2.1619    0.7388 C   0  0  0  0  0  0
   -0.0995    1.9699   -0.4114 C   0  0  0  0  0  0
   -1.3814    2.4860   -0.5181 C   0  0  0  0  0  0
    2.2684    1.5029    0.8644 S   0  0  0  0  0  0
    2.7174    1.3259   -0.4722 O   0  0  0  0  0  0
    2.9243    2.2812    1.8560 O   0  0  0  0  0  0
    2.1387   -0.0203    1.5010 N   0  0  0  0  0  0
    1.3611   -1.0440    0.7985 C   0  0  0  0  0  0
    0.2396   -1.5197    1.6856 C   0  0  0  0  0  0
    0.2899   -1.3279    2.8821 O   0  0  0  0  0  0
   -0.8194   -2.1581    1.1494 N   0  0  0  0  0  0
   -1.8683   -2.7211    2.0112 C   0  0  0  0  0  0
   -3.2214   -2.1441    1.5769 C   0  0  0  0  0  0
   -3.3480   -2.2894    0.1200 N   0  0  0  0  0  0
   -4.6497   -3.0729   -0.5389 S   0  0  0  0  0  0
   -4.1386   -3.5459   -1.7776 O   0  0  0  0  0  0
   -5.0454   -3.9562    0.5014 O   0  0  0  0  0  0
   -5.8563   -1.7398   -0.7791 C   0  0  0  0  0  0
   -2.2991   -1.7263   -0.7418 C   0  0  0  0  0  0
   -0.9488   -2.2984   -0.3078 C   0  0  0  0  0  0
    2.2699   -2.2240    0.4483 C   0  0  0  0  0  0
    3.3266   -1.7722   -0.5264 C   0  0  0  0  0  0
    4.5293   -1.2820   -0.0598 C   0  0  0  0  0  0
    5.5066   -0.8646   -0.9634 C   0  0  0  0  0  0
    5.2610   -0.9458   -2.3347 C   0  0  0  0  0  0
    4.0547   -1.4377   -2.7884 C   0  0  0  0  0  0
    3.0913   -1.8550   -1.8870 C   0  0  0  0  0  0
    6.7982   -0.3375   -0.4700 C   0  3  0  0  0  0
    7.7291    0.0601   -1.3349 N   0  0  0  0  0  0
    8.5758    0.4056   -1.0114 H   0  0  0  0  0  0
    7.5606    0.0042   -2.2885 H   0  0  0  0  0  0
    7.0294   -0.2608    0.8390 N   0  0  0  0  0  0
    7.8761    0.0847    1.1625 H   0  0  0  0  0  0
    6.3512   -0.5505    1.4691 H   0  0  0  0  0  0
   -2.6377    4.9721   -1.4626 C   0  0  0  0  0  0
   -5.0142    4.5617   -0.8004 C   0  0  0  0  0  0
   -2.0721    1.2125   -2.0911 H   0  0  0  0  0  0
   -1.6894    2.8783   -2.5976 H   0  0  0  0  0  0
   -4.0780    2.8119   -2.5727 H   0  0  0  0  0  0
   -4.1162    1.8879   -1.0455 H   0  0  0  0  0  0
   -1.6011    3.9392    2.5182 H   0  0  0  0  0  0
    0.6704    3.0307    2.6924 H   0  0  0  0  0  0
    0.3245    1.4134   -1.2342 H   0  0  0  0  0  0
    2.5777   -0.2348    2.3390 H   0  0  0  0  0  0
    0.9462   -0.6210   -0.1164 H   0  0  0  0  0  0
   -1.8832   -3.8062    1.9080 H   0  0  0  0  0  0
   -1.6722   -2.4526    3.0492 H   0  0  0  0  0  0
   -4.0265   -2.6887    2.0702 H   0  0  0  0  0  0
   -3.2721   -1.0889    1.8452 H   0  0  0  0  0  0
   -6.7676   -2.1489   -1.2153 H   0  0  0  0  0  0
   -6.0876   -1.2816    0.1825 H   0  0  0  0  0  0
   -5.4386   -0.9880   -1.4487 H   0  0  0  0  0  0
   -2.4951   -1.9949   -1.7798 H   0  0  0  0  0  0
   -2.2842   -0.6413   -0.6386 H   0  0  0  0  0  0
   -0.1447   -1.7531   -0.8018 H   0  0  0  0  0  0
   -0.8960   -3.3540   -0.5745 H   0  0  0  0  0  0
    2.7471   -2.5965    1.3548 H   0  0  0  0  0  0
    1.6757   -3.0189   -0.0025 H   0  0  0  0  0  0
    4.7133   -1.2213    1.0027 H   0  0  0  0  0  0
    6.0136   -0.6239   -3.0392 H   0  0  0  0  0  0
    3.8632   -1.5007   -3.8494 H   0  0  0  0  0  0
    2.1485   -2.2394   -2.2472 H   0  0  0  0  0  0
   -2.6426    5.9041   -0.8975 H   0  0  0  0  0  0
   -1.6309    4.5545   -1.4660 H   0  0  0  0  0  0
   -2.9537    5.1669   -2.4874 H   0  0  0  0  0  0
   -5.0166    5.4942   -0.2360 H   0  0  0  0  0  0
   -5.3360    4.7556   -1.8236 H   0  0  0  0  0  0
   -5.6971    3.8524   -0.3330 H   0  0  0  0  0  0
  1  2  1  0  0  0
  1 10  1  0  0  0
  1 44  1  0  0  0
  1 45  1  0  0  0
  2  3  1  0  0  0
  2 46  1  0  0  0
  2 47  1  0  0  0
  3  4  1  0  0  0
  3 42  1  0  0  0
  3 43  1  0  0  0
  4  5  1  0  0  0
  5  6  1  0  0  0
  5 10  2  0  0  0
  6  7  2  0  0  0
  6 48  1  0  0  0
  7  8  1  0  0  0
  7 49  1  0  0  0
  8  9  2  0  0  0
  8 11  1  0  0  0
  9 10  1  0  0  0
  9 50  1  0  0  0
 11 12  2  0  0  0
 11 13  2  0  0  0
 11 14  1  0  0  0
 14 15  1  0  0  0
 14 51  1  0  0  0
 15 16  1  0  0  0
 15 28  1  0  0  0
 15 52  1  0  0  0
 16 17  2  0  0  0
 16 18  1  0  0  0
 18 19  1  0  0  0
 18 27  1  0  0  0
 19 20  1  0  0  0
 19 53  1  0  0  0
 19 54  1  0  0  0
 20 21  1  0  0  0
 20 55  1  0  0  0
 20 56  1  0  0  0
 21 22  1  0  0  0
 21 26  1  0  0  0
 22 23  2  0  0  0
 22 24  2  0  0  0
 22 25  1  0  0  0
 25 57  1  0  0  0
 25 58  1  0  0  0
 25 59  1  0  0  0
 26 27  1  0  0  0
 26 60  1  0  0  0
 26 61  1  0  0  0
 27 62  1  0  0  0
 27 63  1  0  0  0
 28 29  1  0  0  0
 28 64  1  0  0  0
 28 65  1  0  0  0
 29 30  1  0  0  0
 29 34  2  0  0  0
 30 31  2  0  0  0
 30 66  1  0  0  0
 31 32  1  0  0  0
 31 35  1  0  0  0
 32 33  2  0  0  0
 32 67  1  0  0  0
 33 34  1  0  0  0
 33 68  1  0  0  0
 34 69  1  0  0  0
 35 36  1  0  0  0
 35 39  1  0  0  0
 36 37  1  0  0  0
 36 38  1  0  0  0
 39 40  1  0  0  0
 39 41  1  0  0  0
 42 70  1  0  0  0
 42 71  1  0  0  0
 42 72  1  0  0  0
 43 73  1  0  0  0
 43 74  1  0  0  0
 43 75  1  0  0  0
M  CHG  1  35   1
M  END
>  <Activity>
8.131

>  <set>
2

>  <Min_dist>
0.110294

>  <Avg_dist>
0.316999

$$$$
07
  Cerius2 12110215013D 1   1.00000                          
Structure written by Cerius2 SD Exporter
 74 77  0  0  0  0  0  0  0  0999 V2000
    0.8554   -0.7788    0.9172 C   0  0  0  0  0  0
   -0.3173   -0.9748    1.8431 C   0  0  0  0  0  0
   -0.2599   -0.5763    2.9872 O   0  0  0  0  0  0
   -1.4299   -1.5930    1.3999 N   0  0  0  0  0  0
   -2.5393   -1.8856    2.3183 C   0  0  0  0  0  0
   -3.8224   -1.2671    1.7496 C   0  0  0  0  0  0
   -3.9481   -1.6602    0.3391 C   0  0  0  0  0  0
   -2.8387   -1.3676   -0.5793 C   0  0  0  0  0  0
   -1.5579   -1.9811   -0.0118 C   0  0  0  0  0  0
    1.6349   -2.0898    0.7969 C   0  0  0  0  0  0
    2.7264   -1.9328   -0.2303 C   0  0  0  0  0  0
    3.9763   -1.4929    0.1550 C   0  0  0  0  0  0
    4.9857   -1.3486   -0.7970 C   0  0  0  0  0  0
    4.7240   -1.6504   -2.1340 C   0  0  0  0  0  0
    3.4703   -2.0894   -2.5063 C   0  0  0  0  0  0
    2.4749   -2.2355   -1.5564 C   0  0  0  0  0  0
    6.3281   -0.8768   -0.3909 C   0  3  0  0  0  0
    7.2894   -0.7400   -1.3018 N   0  0  0  0  0  0
    8.1694   -0.4308   -1.0356 H   0  0  0  0  0  0
    7.1098   -0.9496   -2.2317 H   0  0  0  0  0  0
    6.5746   -0.5891    0.8856 N   0  0  0  0  0  0
    7.4546   -0.2799    1.1518 H   0  0  0  0  0  0
    0.4953   -0.4786   -0.0668 H   0  0  0  0  0  0
   -2.6631   -2.9646    2.4104 H   0  0  0  0  0  0
   -2.3277   -1.4542    3.2967 H   0  0  0  0  0  0
   -4.6836   -1.6320    2.3092 H   0  0  0  0  0  0
   -3.7687   -0.1809    1.8232 H   0  0  0  0  0  0
   -3.0502   -1.7990   -1.5577 H   0  0  0  0  0  0
   -2.7149   -0.2886   -0.6715 H   0  0  0  0  0  0
   -0.6975   -1.6154   -0.5723 H   0  0  0  0  0  0
   -1.6096   -3.0675   -0.0838 H   0  0  0  0  0  0
    2.0769   -2.3396    1.7614 H   0  0  0  0  0  0
    0.9588   -2.8876    0.4896 H   0  0  0  0  0  0
    4.1726   -1.2605    1.1913 H   0  0  0  0  0  0
    5.5012   -1.5404   -2.8758 H   0  0  0  0  0  0
    3.2664   -2.3230   -3.5409 H   0  0  0  0  0  0
    1.4950   -2.5794   -1.8529 H   0  0  0  0  0  0
    5.9247   -0.6815    1.5013 H   0  0  0  0  0  0
   -4.0649   -2.6012    0.2818 H   0  0  0  0  0  0
   -5.1580   -1.0230   -0.1995 C   0  0  0  0  0  0
   -5.2621   -1.2622   -1.1129 H   0  0  0  0  0  0
   -5.9160   -1.3157    0.2929 H   0  0  0  0  0  0
   -5.0781   -0.0792   -0.1264 H   0  0  0  0  0  0
    0.2509    3.9050   -0.1273 C   0  0  0  0  0  0
   -0.8151    3.9505   -1.2607 C   0  0  0  0  0  0
   -0.9271    5.4679   -1.5985 C   0  0  0  0  0  0
    0.0958    6.1132   -0.6158 C   0  0  0  0  0  0
    1.5080    5.8041   -1.1770 C   0  0  0  0  0  0
    1.5266    4.3497   -0.8200 C   0  0  0  0  0  0
    1.8630    1.7177    0.7096 S   0  0  0  0  0  0
    2.1807    1.2995   -0.6413 O   0  0  0  0  0  0
    2.8032    2.5588    1.4181 O   0  0  0  0  0  0
    0.2567    2.5663    0.6860 C   0  0  0  0  0  0
   -1.4240    5.3594    1.3507 C   0  0  0  0  0  0
   -0.0239    5.2214    0.6602 C   0  0  0  0  0  0
    1.5920    0.2876    1.6325 N   0  0  0  0  0  0
    2.5060    3.6539   -1.0597 O   0  0  0  0  0  0
    1.0488    5.5292    1.7558 C   0  0  0  0  0  0
   -0.5123    3.4377   -2.0009 H   0  0  0  0  0  0
   -1.6477    3.6187   -0.9461 H   0  0  0  0  0  0
   -0.6990    5.6070   -2.5102 H   0  0  0  0  0  0
   -1.8051    5.7850   -1.4221 H   0  0  0  0  0  0
   -0.0585    7.0365   -0.4538 H   0  0  0  0  0  0
    1.5279    5.9952   -2.1074 H   0  0  0  0  0  0
    2.1806    6.2851   -0.7092 H   0  0  0  0  0  0
    0.0213    2.7434    1.5892 H   0  0  0  0  0  0
   -0.3912    1.9806    0.3122 H   0  0  0  0  0  0
   -1.4759    6.1964    1.7970 H   0  0  0  0  0  0
   -2.1077    5.3082    0.6931 H   0  0  0  0  0  0
   -1.5371    4.6572    1.9805 H   0  0  0  0  0  0
    1.9755    0.1946    2.4414 H   0  0  0  0  0  0
    0.8262    6.3399    2.1980 H   0  0  0  0  0  0
    1.0695    4.8195    2.3870 H   0  0  0  0  0  0
    1.9025    5.6151    1.3478 H   0  0  0  0  0  0
  1  2  1  0  0  0
  1 10  1  0  0  0
  1 23  1  0  0  0
  2  3  2  0  0  0
  2  4  1  0  0  0
  4  5  1  0  0  0
  4  9  1  0  0  0
  5  6  1  0  0  0
  5 24  1  0  0  0
  5 25  1  0  0  0
  6  7  1  0  0  0
  6 26  1  0  0  0
  6 27  1  0  0  0
  7  8  1  0  0  0
  7 39  1  0  0  0
  7 40  1  0  0  0
  8  9  1  0  0  0
  8 28  1  0  0  0
  8 29  1  0  0  0
  9 30  1  0  0  0
  9 31  1  0  0  0
 10 11  1  0  0  0
 10 32  1  0  0  0
 10 33  1  0  0  0
 11 12  1  0  0  0
 11 16  2  0  0  0
 12 13  2  0  0  0
 12 34  1  0  0  0
 13 14  1  0  0  0
 13 17  1  0  0  0
 14 15  2  0  0  0
 14 35  1  0  0  0
 15 16  1  0  0  0
 15 36  1  0  0  0
 16 37  1  0  0  0
 17 18  1  0  0  0
 17 21  1  0  0  0
 18 19  1  0  0  0
 18 20  1  0  0  0
 21 22  1  0  0  0
 21 38  1  0  0  0
 40 41  1  0  0  0
 40 42  1  0  0  0
 40 43  1  0  0  0
 44 45  1  0  0  0
 44 49  1  0  0  0
 44 53  1  0  0  0
 44 55  1  0  0  0
 45 59  1  0  0  0
 45 60  1  0  0  0
 46 45  1  0  0  0
 46 61  1  0  0  0
 46 62  1  0  0  0
 47 46  1  0  0  0
 47 55  1  0  0  0
 47 63  1  0  0  0
 48 47  1  0  0  0
 48 64  1  0  0  0
 48 65  1  0  0  0
 49 48  1  0  0  0
 49 57  2  0  0  0
 50 51  2  0  0  0
 50 52  2  0  0  0
 50 53  1  0  0  0
 53 66  1  0  0  0
 53 67  1  0  0  0
 54 68  1  0  0  0
 54 69  1  0  0  0
 54 70  1  0  0  0
 55 54  1  0  0  0
 55 58  1  0  0  0
 56  1  1  0  0  0
 56 50  1  0  0  0
 56 71  1  0  0  0
 58 72  1  0  0  0
 58 73  1  0  0  0
 58 74  1  0  0  0
M  CHG  1  17   1
M  END
>  <Activity>
7.854

>  <set>
2

>  <Min_dist>
0.255474

>  <Avg_dist>
0.35582

$$$$
10
  Cerius2 12110215013D 1   1.00000                          
 
 68 72  0  0  0  0  0  0  0  0999 V2000
   -2.6212    1.3173    2.7996 C   0  0  0  0  0  0
   -3.7276    2.0805    3.0148 C   0  0  0  0  0  0
   -4.9761    1.6840    2.5399 C   0  0  0  0  0  0
   -5.1256    0.5222    1.8465 C   0  0  0  0  0  0
   -4.0063   -0.2918    1.6044 C   0  0  0  0  0  0
   -4.1214   -1.4985    0.8930 C   0  0  0  0  0  0
   -3.0152   -2.2614    0.6778 C   0  0  0  0  0  0
   -1.7663   -1.8649    1.1531 C   0  0  0  0  0  0
   -1.6168   -0.7034    1.8463 C   0  0  0  0  0  0
   -2.7363    0.1113    2.0878 C   0  0  0  0  0  0
   -0.3602   -2.8832    0.8525 S   0  0  0  0  0  0
    0.6126   -2.4911    1.8113 O   0  0  0  0  0  0
   -0.8661   -4.2006    0.6856 O   0  0  0  0  0  0
    0.2596   -2.4493   -0.6206 N   0  0  0  0  0  0
    0.8295   -1.1132   -0.8106 C   0  0  0  0  0  0
    2.3158   -1.1617   -0.5664 C   0  0  0  0  0  0
    2.8467   -2.2092   -0.2634 O   0  0  0  0  0  0
    3.0551   -0.0410   -0.6847 N   0  0  0  0  0  0
    2.4612    1.2199   -1.1421 C   0  0  0  0  0  0
    2.9432    2.3533   -0.2718 C   0  0  0  0  0  0
    2.3048    3.5801   -0.3938 C   0  0  0  0  0  0
    2.7072    4.6577    0.3679 C   0  0  0  0  0  0
    3.7552    4.5145    1.2584 C   0  0  0  0  0  0
    4.3873    3.2952    1.3834 C   0  0  0  0  0  0
    3.9800    2.2063    0.6219 C   0  0  0  0  0  0
    4.6981    0.8994    0.8325 C   0  0  0  0  0  0
    4.4898   -0.0317   -0.3542 C   0  0  0  0  0  0
    4.9390   -1.4245    0.0056 C   0  0  0  0  0  0
    5.6168   -2.0592   -0.7674 O   0  0  0  0  0  0
    4.5861   -1.9599    1.1848 O   0  5  0  0  0  0
    0.5630   -0.6439   -2.2423 C   0  0  0  0  0  0
   -0.9115   -0.3884   -2.4208 C   0  0  0  0  0  0
   -1.4585    0.8076   -2.0032 C   0  0  0  0  0  0
   -2.8235    1.0427   -2.1696 C   0  0  0  0  0  0
   -3.6271    0.0655   -2.7581 C   0  0  0  0  0  0
   -3.0681   -1.1260   -3.1714 C   0  0  0  0  0  0
   -1.7125   -1.3510   -3.0083 C   0  0  0  0  0  0
   -3.4167    2.3228   -1.7235 C   0  3  0  0  0  0
   -4.7203    2.3974   -1.4630 N   0  0  0  0  0  0
   -5.1333    3.2594   -1.2977 H   0  0  0  0  0  0
   -5.2570    1.5898   -1.4386 H   0  0  0  0  0  0
   -2.6469    3.4000   -1.5827 N   0  0  0  0  0  0
   -3.0358    4.2391   -1.2902 H   0  0  0  0  0  0
   -1.6972    3.3456   -1.7725 H   0  0  0  0  0  0
   -1.6592    1.6392    3.1701 H   0  0  0  0  0  0
   -3.6365    3.0070    3.5621 H   0  0  0  0  0  0
   -5.8382    2.3077    2.7249 H   0  0  0  0  0  0
   -6.0996    0.2274    1.4847 H   0  0  0  0  0  0
   -5.0827   -1.8187    0.5193 H   0  0  0  0  0  0
   -3.1064   -3.1881    0.1308 H   0  0  0  0  0  0
   -0.6430   -0.4093    2.2091 H   0  0  0  0  0  0
    0.2452   -3.0798   -1.3576 H   0  0  0  0  0  0
    0.3685   -0.4183   -0.1087 H   0  0  0  0  0  0
    2.7551    1.4055   -2.1752 H   0  0  0  0  0  0
    1.3750    1.1523   -1.0812 H   0  0  0  0  0  0
    1.4873    3.6919   -1.0906 H   0  0  0  0  0  0
    2.2060    5.6092    0.2688 H   0  0  0  0  0  0
    4.0781    5.3554    1.8542 H   0  0  0  0  0  0
    5.2061    3.1856    2.0791 H   0  0  0  0  0  0
    5.7639    1.0918    0.9561 H   0  0  0  0  0  0
    4.3143    0.4205    1.7334 H   0  0  0  0  0  0
    5.0583    0.3300   -1.2109 H   0  0  0  0  0  0
    1.1166    0.2756   -2.4323 H   0  0  0  0  0  0
    0.8858   -1.4139   -2.9430 H   0  0  0  0  0  0
   -0.8314    1.5599   -1.5480 H   0  0  0  0  0  0
   -4.6846    0.2414   -2.8894 H   0  0  0  0  0  0
   -3.6891   -1.8833   -3.6267 H   0  0  0  0  0  0
   -1.2796   -2.2855   -3.3335 H   0  0  0  0  0  0
  1  2  1  0  0  0
  1 10  2  0  0  0
  1 45  1  0  0  0
  2  3  2  0  0  0
  2 46  1  0  0  0
  3  4  1  0  0  0
  3 47  1  0  0  0
  4  5  2  0  0  0
  4 48  1  0  0  0
  5  6  1  0  0  0
  5 10  1  0  0  0
  6  7  2  0  0  0
  6 49  1  0  0  0
  7  8  1  0  0  0
  7 50  1  0  0  0
  8  9  2  0  0  0
  8 11  1  0  0  0
  9 10  1  0  0  0
  9 51  1  0  0  0
 11 12  2  0  0  0
 11 13  2  0  0  0
 11 14  1  0  0  0
 14 15  1  0  0  0
 14 52  1  0  0  0
 15 16  1  0  0  0
 15 31  1  0  0  0
 15 53  1  0  0  0
 16 17  2  0  0  0
 16 18  1  0  0  0
 18 19  1  0  0  0
 18 27  1  0  0  0
 19 20  1  0  0  0
 19 54  1  0  0  0
 19 55  1  0  0  0
 20 21  1  0  0  0
 20 25  2  0  0  0
 21 22  2  0  0  0
 21 56  1  0  0  0
 22 23  1  0  0  0
 22 57  1  0  0  0
 23 24  2  0  0  0
 23 58  1  0  0  0
 24 25  1  0  0  0
 24 59  1  0  0  0
 25 26  1  0  0  0
 26 27  1  0  0  0
 26 60  1  0  0  0
 26 61  1  0  0  0
 27 28  1  0  0  0
 27 62  1  0  0  0
 28 29  2  0  0  0
 28 30  1  0  0  0
 31 32  1  0  0  0
 31 63  1  0  0  0
 31 64  1  0  0  0
 32 33  1  0  0  0
 32 37  2  0  0  0
 33 34  2  0  0  0
 33 65  1  0  0  0
 34 35  1  0  0  0
 34 38  1  0  0  0
 35 36  2  0  0  0
 35 66  1  0  0  0
 36 37  1  0  0  0
 36 67  1  0  0  0
 37 68  1  0  0  0
 38 39  1  0  0  0
 38 42  1  0  0  0
 39 40  1  0  0  0
 39 41  1  0  0  0
 42 43  1  0  0  0
 42 44  1  0  0  0
M  CHG  2  30  -1  38   1
M  END
>  <Activity>
7.745

>  <set>
2

>  <Min_dist>
0.047244

>  <Avg_dist>
0.252328

$$$$
11
  Cerius2 12110215013D 1   1.00000                          
 
 67 70  0  0  0  0  0  0  0  0999 V2000
   -2.2546    2.4450   -2.1715 C   0  0  0  0  0  0
   -3.4460    3.0769   -2.3566 C   0  0  0  0  0  0
   -3.9092    4.0178   -1.4393 C   0  0  0  0  0  0
   -3.1839    4.3323   -0.3311 C   0  0  0  0  0  0
   -1.9493    3.7005   -0.1059 C   0  0  0  0  0  0
   -1.1722    3.9994    1.0264 C   0  0  0  0  0  0
    0.0189    3.3676    1.2114 C   0  0  0  0  0  0
    0.4823    2.4265    0.2936 C   0  0  0  0  0  0
   -0.2427    2.1121   -0.8143 C   0  0  0  0  0  0
   -1.4780    2.7435   -1.0393 C   0  0  0  0  0  0
    2.0305    1.6325    0.5717 S   0  0  0  0  0  0
    2.4679    1.1821   -0.7031 O   0  0  0  0  0  0
    2.7586    2.4971    1.4329 O   0  0  0  0  0  0
    1.7332    0.2636    1.4549 N   0  0  0  0  0  0
    0.8554   -0.7788    0.9172 C   0  0  0  0  0  0
   -0.3173   -0.9748    1.8431 C   0  0  0  0  0  0
   -0.2599   -0.5763    2.9872 O   0  0  0  0  0  0
   -1.4299   -1.5930    1.3999 N   0  0  0  0  0  0
   -2.5393   -1.8856    2.3183 C   0  0  0  0  0  0
   -3.8224   -1.2671    1.7496 C   0  0  0  0  0  0
   -3.9481   -1.6602    0.3391 N   0  0  0  0  0  0
   -5.0610   -2.2776   -0.1044 C   0  0  0  0  0  0
   -5.9720   -2.5139    0.6643 O   0  0  0  0  0  0
   -5.1635   -2.6325   -1.3991 O   0  0  0  0  0  0
   -6.3625   -3.2976   -1.8768 C   0  0  0  0  0  0
   -2.8387   -1.3676   -0.5793 C   0  0  0  0  0  0
   -1.5579   -1.9811   -0.0118 C   0  0  0  0  0  0
    1.6349   -2.0898    0.7969 C   0  0  0  0  0  0
    2.7264   -1.9328   -0.2303 C   0  0  0  0  0  0
    3.9763   -1.4929    0.1550 C   0  0  0  0  0  0
    4.9857   -1.3486   -0.7970 C   0  0  0  0  0  0
    4.7240   -1.6504   -2.1340 C   0  0  0  0  0  0
    3.4703   -2.0894   -2.5063 C   0  0  0  0  0  0
    2.4749   -2.2355   -1.5564 C   0  0  0  0  0  0
    6.3281   -0.8768   -0.3909 C   0  3  0  0  0  0
    7.2894   -0.7400   -1.3018 N   0  0  0  0  0  0
    8.1694   -0.4308   -1.0356 H   0  0  0  0  0  0
    7.1098   -0.9496   -2.2317 H   0  0  0  0  0  0
    6.5746   -0.5891    0.8856 N   0  0  0  0  0  0
    7.4546   -0.2799    1.1518 H   0  0  0  0  0  0
    5.8742   -0.6888    1.5492 H   0  0  0  0  0  0
   -1.9102    1.7149   -2.8889 H   0  0  0  0  0  0
   -4.0410    2.8457   -3.2278 H   0  0  0  0  0  0
   -4.8576    4.5053   -1.6103 H   0  0  0  0  0  0
   -3.5553    5.0640    0.3711 H   0  0  0  0  0  0
   -1.5182    4.7269    1.7456 H   0  0  0  0  0  0
    0.6142    3.5991    2.0823 H   0  0  0  0  0  0
    0.1294    1.3814   -1.5172 H   0  0  0  0  0  0
    2.1403    0.1520    2.3283 H   0  0  0  0  0  0
    0.4953   -0.4786   -0.0668 H   0  0  0  0  0  0
   -2.6631   -2.9646    2.4104 H   0  0  0  0  0  0
   -2.3277   -1.4542    3.2967 H   0  0  0  0  0  0
   -4.6836   -1.6320    2.3092 H   0  0  0  0  0  0
   -3.7687   -0.1809    1.8232 H   0  0  0  0  0  0
   -6.2629   -3.5051   -2.9423 H   0  0  0  0  0  0
   -6.4988   -4.2338   -1.3356 H   0  0  0  0  0  0
   -7.2259   -2.6532   -1.7113 H   0  0  0  0  0  0
   -3.0502   -1.7990   -1.5577 H   0  0  0  0  0  0
   -2.7149   -0.2886   -0.6715 H   0  0  0  0  0  0
   -0.6975   -1.6154   -0.5723 H   0  0  0  0  0  0
   -1.6096   -3.0675   -0.0838 H   0  0  0  0  0  0
    2.0769   -2.3396    1.7614 H   0  0  0  0  0  0
    0.9588   -2.8876    0.4896 H   0  0  0  0  0  0
    4.1726   -1.2605    1.1913 H   0  0  0  0  0  0
    5.5012   -1.5404   -2.8758 H   0  0  0  0  0  0
    3.2664   -2.3230   -3.5409 H   0  0  0  0  0  0
    1.4950   -2.5794   -1.8529 H   0  0  0  0  0  0
  1  2  1  0  0  0
  1 10  2  0  0  0
  1 42  1  0  0  0
  2  3  2  0  0  0
  2 43  1  0  0  0
  3  4  1  0  0  0
  3 44  1  0  0  0
  4  5  2  0  0  0
  4 45  1  0  0  0
  5  6  1  0  0  0
  5 10  1  0  0  0
  6  7  2  0  0  0
  6 46  1  0  0  0
  7  8  1  0  0  0
  7 47  1  0  0  0
  8  9  2  0  0  0
  8 11  1  0  0  0
  9 10  1  0  0  0
  9 48  1  0  0  0
 11 12  2  0  0  0
 11 13  2  0  0  0
 11 14  1  0  0  0
 14 15  1  0  0  0
 14 49  1  0  0  0
 15 16  1  0  0  0
 15 28  1  0  0  0
 15 50  1  0  0  0
 16 17  2  0  0  0
 16 18  1  0  0  0
 18 19  1  0  0  0
 18 27  1  0  0  0
 19 20  1  0  0  0
 19 51  1  0  0  0
 19 52  1  0  0  0
 20 21  1  0  0  0
 20 53  1  0  0  0
 20 54  1  0  0  0
 21 22  1  0  0  0
 21 26  1  0  0  0
 22 23  2  0  0  0
 22 24  1  0  0  0
 24 25  1  0  0  0
 25 55  1  0  0  0
 25 56  1  0  0  0
 25 57  1  0  0  0
 26 27  1  0  0  0
 26 58  1  0  0  0
 26 59  1  0  0  0
 27 60  1  0  0  0
 27 61  1  0  0  0
 28 29  1  0  0  0
 28 62  1  0  0  0
 28 63  1  0  0  0
 29 30  1  0  0  0
 29 34  2  0  0  0
 30 31  2  0  0  0
 30 64  1  0  0  0
 31 32  1  0  0  0
 31 35  1  0  0  0
 32 33  2  0  0  0
 32 65  1  0  0  0
 33 34  1  0  0  0
 33 66  1  0  0  0
 34 67  1  0  0  0
 35 36  1  0  0  0
 35 39  1  0  0  0
 36 37  1  0  0  0
 36 38  1  0  0  0
 39 40  1  0  0  0
 39 41  1  0  0  0
M  CHG  1  35   1
M  END
>  <Activity>
7.721

>  <set>
2

>  <Min_dist>
0.078261

>  <Avg_dist>
0.243919

$$$$
14
  Cerius2 12110215013D 1   1.00000                          
Structure written by Cerius2 SD Exporter
 71 75  0  0  0  0  0  0  0  0999 V2000
    1.8357   -3.4981   -0.3951 C   0  0  0  0  0  0
    1.1528   -3.8582    0.7515 C   0  0  0  0  0  0
   -0.0792   -3.2953    1.0277 C   0  0  0  0  0  0
   -0.6279   -2.3719    0.1576 C   0  0  0  0  0  0
    0.0555   -2.0111   -0.9885 C   0  0  0  0  0  0
    1.2894   -2.5707   -1.2626 C   0  0  0  0  0  0
   -2.1987   -1.6552    0.5092 S   0  0  0  0  0  0
   -2.7080   -1.2094   -0.7402 O   0  0  0  0  0  0
   -2.8503   -2.5642    1.3859 O   0  0  0  0  0  0
   -1.9297   -0.2854    1.4000 N   0  0  0  0  0  0
   -1.1239    0.8040    0.8432 C   0  0  0  0  0  0
    0.0751    1.0430    1.7243 C   0  0  0  0  0  0
    0.0826    0.6280    2.8638 O   0  0  0  0  0  0
    1.1391    1.7178    1.2458 N   0  0  0  0  0  0
    2.2706    2.0496    2.1231 C   0  0  0  0  0  0
    3.5563    1.4987    1.4941 C   0  0  0  0  0  0
    3.6061    1.9155    0.0857 C   0  0  0  0  0  0
    2.4747    1.5837   -0.7916 C   0  0  0  0  0  0
    1.1914    2.1297   -0.1640 C   0  0  0  0  0  0
   -1.9678    2.0784    0.7736 C   0  0  0  0  0  0
   -3.0918    1.8834   -0.2110 C   0  0  0  0  0  0
   -4.3032    1.3803    0.2177 C   0  0  0  0  0  0
   -5.3428    1.2008   -0.6949 C   0  0  0  0  0  0
   -5.1503    1.5318   -2.0368 C   0  0  0  0  0  0
   -3.9347    2.0339   -2.4528 C   0  0  0  0  0  0
   -2.9091    2.2145   -1.5416 C   0  0  0  0  0  0
   -6.6441    0.6613   -0.2421 C   0  3  0  0  0  0
   -7.6345    0.4912   -1.1155 N   0  0  0  0  0  0
   -8.4876    0.1375   -0.8186 H   0  0  0  0  0  0
   -6.8246    0.3461    1.0389 N   0  0  0  0  0  0
   -7.6776   -0.0076    1.3358 H   0  0  0  0  0  0
   -6.1030    0.4700    1.6752 H   0  0  0  0  0  0
    1.5815   -4.5797    1.4312 H   0  0  0  0  0  0
   -0.6131   -3.5772    1.9232 H   0  0  0  0  0  0
   -0.3734   -1.2899   -1.6685 H   0  0  0  0  0  0
   -2.3057   -0.2044    2.2905 H   0  0  0  0  0  0
   -0.7905    0.5338   -0.1588 H   0  0  0  0  0  0
    2.3484    3.1320    2.2262 H   0  0  0  0  0  0
    2.1192    1.5963    3.1027 H   0  0  0  0  0  0
    4.4221    1.8960    2.0240 H   0  0  0  0  0  0
    3.5555    0.4104    1.5538 H   0  0  0  0  0  0
    2.6261    2.0370   -1.7712 H   0  0  0  0  0  0
    2.3969    0.5014   -0.8947 H   0  0  0  0  0  0
    0.3266    1.7317   -0.6948 H   0  0  0  0  0  0
    1.1903    3.2182   -0.2219 H   0  0  0  0  0  0
   -2.3811    2.2947    1.7587 H   0  0  0  0  0  0
   -1.3426    2.9110    0.4511 H   0  0  0  0  0  0
   -4.4459    1.1257    1.2575 H   0  0  0  0  0  0
   -5.9513    1.3948   -2.7482 H   0  0  0  0  0  0
   -3.7843    2.2901   -3.4911 H   0  0  0  0  0  0
   -1.9591    2.6079   -1.8722 H   0  0  0  0  0  0
    3.6772    2.8616    0.0378 H   0  0  0  0  0  0
    4.8210    1.3422   -0.5105 C   0  0  0  0  0  0
    4.8765    1.5978   -1.4238 H   0  0  0  0  0  0
    5.5842    1.6633   -0.0448 H   0  0  0  0  0  0
    4.7875    0.3948   -0.4483 H   0  0  0  0  0  0
   -7.5125    0.7044   -1.9813 H   0  0  0  0  0  0
    2.0295   -2.1309   -2.5151 C   0  0  0  0  0  0
    3.3706   -2.7461   -2.8092 C   0  0  0  0  0  0
    3.9287   -3.7060   -1.9296 C   0  0  0  0  0  0
    3.1926   -4.1247   -0.6816 C   0  0  0  0  0  0
    1.5406   -1.2742   -3.2536 O   0  0  0  0  0  0
    4.0875   -2.3635   -3.9756 C   0  0  0  0  0  0
    5.1959   -4.2738   -2.2320 C   0  0  0  0  0  0
    3.6673   -4.9514    0.0947 O   0  0  0  0  0  0
    5.8941   -3.8871   -3.3994 C   0  0  0  0  0  0
    5.3456   -2.9400   -4.2629 C   0  0  0  0  0  0
    3.6623   -1.6120   -4.6728 H   0  0  0  0  0  0
    5.6463   -5.0289   -1.5529 H   0  0  0  0  0  0
    6.8792   -4.3416   -3.6252 H   0  0  0  0  0  0
    5.8950   -2.6396   -5.1771 H   0  0  0  0  0  0
  1  2  1  0  0  0
  1  6  2  0  0  0
  2  3  2  0  0  0
  2 33  1  0  0  0
  3  4  1  0  0  0
  3 34  1  0  0  0
  4  5  2  0  0  0
  4  7  1  0  0  0
  5  6  1  0  0  0
  5 35  1  0  0  0
  7  8  2  0  0  0
  7  9  2  0  0  0
  7 10  1  0  0  0
 10 11  1  0  0  0
 10 36  1  0  0  0
 11 12  1  0  0  0
 11 20  1  0  0  0
 11 37  1  0  0  0
 12 13  2  0  0  0
 12 14  1  0  0  0
 14 15  1  0  0  0
 14 19  1  0  0  0
 15 16  1  0  0  0
 15 38  1  0  0  0
 15 39  1  0  0  0
 16 17  1  0  0  0
 16 40  1  0  0  0
 16 41  1  0  0  0
 17 18  1  0  0  0
 17 52  1  0  0  0
 17 53  1  0  0  0
 18 19  1  0  0  0
 18 42  1  0  0  0
 18 43  1  0  0  0
 19 44  1  0  0  0
 19 45  1  0  0  0
 20 21  1  0  0  0
 20 46  1  0  0  0
 20 47  1  0  0  0
 21 22  1  0  0  0
 21 26  2  0  0  0
 22 23  2  0  0  0
 22 48  1  0  0  0
 23 24  1  0  0  0
 23 27  1  0  0  0
 24 25  2  0  0  0
 24 49  1  0  0  0
 25 26  1  0  0  0
 25 50  1  0  0  0
 26 51  1  0  0  0
 27 28  1  0  0  0
 27 30  1  0  0  0
 28 29  1  0  0  0
 28 57  1  0  0  0
 30 31  1  0  0  0
 30 32  1  0  0  0
 53 54  1  0  0  0
 53 55  1  0  0  0
 53 56  1  0  0  0
 58  6  1  0  0  0
 58 59  1  0  0  0
 58 62  2  0  0  0
 59 60  2  0  0  0
 59 63  1  0  0  0
 60 61  1  0  0  0
 60 64  1  0  0  0
 61  1  1  0  0  0
 61 65  2  0  0  0
 63 67  2  0  0  0
 63 68  1  0  0  0
 64 66  2  0  0  0
 64 69  1  0  0  0
 66 67  1  0  0  0
 66 70  1  0  0  0
 67 71  1  0  0  0
M  CHG  1  27   1
M  END
>  <Activity>
7.585

>  <set>
2

>  <Min_dist>
0.139344

>  <Avg_dist>
0.270124

$$$$
16
  Cerius2 12110215013D 1   1.00000                          
 
 74 76  0  0  0  0  0  0  0  0999 V2000
    0.9841   -1.4860    2.4444 C   0  0  0  0  0  0
    0.1854   -2.2353    1.4091 C   0  0  0  0  0  0
    0.6371   -2.3026    0.1038 C   0  0  0  0  0  0
   -0.0933   -2.9892   -0.8482 C   0  0  0  0  0  0
   -1.2768   -3.6099   -0.4975 C   0  0  0  0  0  0
   -1.7318   -3.5441    0.8112 C   0  0  0  0  0  0
   -0.9942   -2.8589    1.7661 C   0  0  0  0  0  0
   -2.8958   -4.1534    1.1586 O   0  0  0  0  0  0
   -3.0899   -3.9088    2.5531 C   0  0  0  0  0  0
   -2.0730   -4.3572   -1.5360 C   0  0  0  0  0  0
    0.4015   -3.0602   -2.2699 C   0  0  0  0  0  0
    2.1457   -1.5117   -0.3468 S   0  0  0  0  0  0
    2.6427   -0.9202    0.8458 O   0  0  0  0  0  0
    2.8462   -2.4478   -1.1544 O   0  0  0  0  0  0
    1.7631   -0.2502   -1.3491 N   0  0  0  0  0  0
    0.8903    0.8255   -0.8724 C   0  0  0  0  0  0
   -0.3378    0.8989   -1.7427 C   0  0  0  0  0  0
   -0.3255    0.4076   -2.8515 O   0  0  0  0  0  0
   -1.4497    1.5105   -1.2889 N   0  0  0  0  0  0
   -2.6120    1.6983   -2.1686 C   0  0  0  0  0  0
   -3.8427    1.0807   -1.4932 C   0  0  0  0  0  0
   -3.9148    1.5713   -0.1097 N   0  0  0  0  0  0
   -5.2815    2.3218    0.4482 S   0  0  0  0  0  0
   -4.7826    3.1537    1.4866 O   0  0  0  0  0  0
   -5.8542    2.8556   -0.7377 O   0  0  0  0  0  0
   -6.2673    0.9489    1.1070 C   0  0  0  0  0  0
   -2.7526    1.3835    0.7699 C   0  0  0  0  0  0
   -1.5240    1.9961    0.0962 C   0  0  0  0  0  0
    1.6408    2.1573   -0.9360 C   0  0  0  0  0  0
    2.7918    2.1322    0.0365 C   0  0  0  0  0  0
    4.0292    1.6789   -0.3728 C   0  0  0  0  0  0
    5.0937    1.6568    0.5286 C   0  0  0  0  0  0
    4.8995    2.0938    1.8395 C   0  0  0  0  0  0
    3.6575    2.5446    2.2362 C   0  0  0  0  0  0
    2.6070    2.5690    1.3359 C   0  0  0  0  0  0
    6.4231    1.1716    0.0965 C   0  3  0  0  0  0
    7.4372    1.1517    0.9591 N   0  0  0  0  0  0
    8.3087    0.8336    0.6758 H   0  0  0  0  0  0
    7.3045    1.4553    1.8707 H   0  0  0  0  0  0
    6.6053    0.7549   -1.1549 N   0  0  0  0  0  0
    7.4768    0.4368   -1.4382 H   0  0  0  0  0  0
    5.8665    0.7694   -1.7833 H   0  0  0  0  0  0
    0.7943   -0.4172    2.3462 H   0  0  0  0  0  0
    0.6897   -1.8173    3.4402 H   0  0  0  0  0  0
    2.0461   -1.6817    2.2956 H   0  0  0  0  0  0
   -1.3461   -2.8066    2.7858 H   0  0  0  0  0  0
   -4.0166   -4.3810    2.8792 H   0  0  0  0  0  0
   -2.2532   -4.3241    3.1148 H   0  0  0  0  0  0
   -3.1480   -2.8346    2.7289 H   0  0  0  0  0  0
   -1.7481   -5.3973   -1.5639 H   0  0  0  0  0  0
   -3.1322   -4.3142   -1.2822 H   0  0  0  0  0  0
   -1.9147   -3.9008   -2.5131 H   0  0  0  0  0  0
    1.1135   -3.8799   -2.3662 H   0  0  0  0  0  0
   -0.4412   -3.2303   -2.9399 H   0  0  0  0  0  0
    0.8903   -2.1217   -2.5318 H   0  0  0  0  0  0
    2.1170   -0.2235   -2.2519 H   0  0  0  0  0  0
    0.5945    0.6240    0.1572 H   0  0  0  0  0  0
   -2.7796    2.7630   -2.3310 H   0  0  0  0  0  0
   -2.4319    1.2040   -3.1232 H   0  0  0  0  0  0
   -4.7426    1.3750   -2.0331 H   0  0  0  0  0  0
   -3.7527   -0.0056   -1.4919 H   0  0  0  0  0  0
   -7.2051    1.3342    1.5072 H   0  0  0  0  0  0
   -6.4780    0.2371    0.3089 H   0  0  0  0  0  0
   -5.7110    0.4504    1.9009 H   0  0  0  0  0  0
   -2.9327    1.8778    1.7246 H   0  0  0  0  0  0
   -2.5850    0.3187    0.9324 H   0  0  0  0  0  0
   -0.6249    1.7010    0.6371 H   0  0  0  0  0  0
   -1.6121    3.0825    0.0931 H   0  0  0  0  0  0
    2.0215    2.3119   -1.9456 H   0  0  0  0  0  0
    0.9624    2.9695   -0.6751 H   0  0  0  0  0  0
    4.1732    1.3417   -1.3886 H   0  0  0  0  0  0
    5.7196    2.0788    2.5420 H   0  0  0  0  0  0
    3.5058    2.8827    3.2506 H   0  0  0  0  0  0
    1.6366    2.9228    1.6514 H   0  0  0  0  0  0
  1  2  1  0  0  0
  1 43  1  0  0  0
  1 44  1  0  0  0
  1 45  1  0  0  0
  2  3  1  0  0  0
  2  7  2  0  0  0
  3  4  2  0  0  0
  3 12  1  0  0  0
  4  5  1  0  0  0
  4 11  1  0  0  0
  5  6  2  0  0  0
  5 10  1  0  0  0
  6  7  1  0  0  0
  6  8  1  0  0  0
  7 46  1  0  0  0
  8  9  1  0  0  0
  9 47  1  0  0  0
  9 48  1  0  0  0
  9 49  1  0  0  0
 10 50  1  0  0  0
 10 51  1  0  0  0
 10 52  1  0  0  0
 11 53  1  0  0  0
 11 54  1  0  0  0
 11 55  1  0  0  0
 12 13  2  0  0  0
 12 14  2  0  0  0
 12 15  1  0  0  0
 15 16  1  0  0  0
 15 56  1  0  0  0
 16 17  1  0  0  0
 16 29  1  0  0  0
 16 57  1  0  0  0
 17 18  2  0  0  0
 17 19  1  0  0  0
 19 20  1  0  0  0
 19 28  1  0  0  0
 20 21  1  0  0  0
 20 58  1  0  0  0
 20 59  1  0  0  0
 21 22  1  0  0  0
 21 60  1  0  0  0
 21 61  1  0  0  0
 22 23  1  0  0  0
 22 27  1  0  0  0
 23 24  2  0  0  0
 23 25  2  0  0  0
 23 26  1  0  0  0
 26 62  1  0  0  0
 26 63  1  0  0  0
 26 64  1  0  0  0
 27 28  1  0  0  0
 27 65  1  0  0  0
 27 66  1  0  0  0
 28 67  1  0  0  0
 28 68  1  0  0  0
 29 30  1  0  0  0
 29 69  1  0  0  0
 29 70  1  0  0  0
 30 31  1  0  0  0
 30 35  2  0  0  0
 31 32  2  0  0  0
 31 71  1  0  0  0
 32 33  1  0  0  0
 32 36  1  0  0  0
 33 34  2  0  0  0
 33 72  1  0  0  0
 34 35  1  0  0  0
 34 73  1  0  0  0
 35 74  1  0  0  0
 36 37  1  0  0  0
 36 40  1  0  0  0
 37 38  1  0  0  0
 37 39  1  0  0  0
 40 41  1  0  0  0
 40 42  1  0  0  0
M  CHG  1  36   1
M  END
>  <Activity>
7.495

>  <set>
2

>  <Min_dist>
0.119403

>  <Avg_dist>
0.319172

$$$$
20
  Cerius2 12110215013D 1   1.00000                          
 
 61 64  0  0  0  0  0  0  0  0999 V2000
   -2.1184    3.3475   -2.1159 C   0  0  0  0  0  0
   -3.2136    4.1436   -2.2564 C   0  0  0  0  0  0
   -3.6677    4.9318   -1.2010 C   0  0  0  0  0  0
   -3.0296    4.9283    0.0015 C   0  0  0  0  0  0
   -1.8958    4.1189    0.1844 C   0  0  0  0  0  0
   -1.2104    4.0892    1.4111 C   0  0  0  0  0  0
   -0.1155    3.2932    1.5514 C   0  0  0  0  0  0
    0.3389    2.5050    0.4955 C   0  0  0  0  0  0
   -0.2989    2.5084   -0.7066 C   0  0  0  0  0  0
   -1.4336    3.3174   -0.8894 C   0  0  0  0  0  0
    1.7611    1.4893    0.7203 S   0  0  0  0  0  0
    2.2763    1.2526   -0.5826 O   0  0  0  0  0  0
    2.4836    2.0696    1.7976 O   0  0  0  0  0  0
    1.2367    0.0182    1.2710 N   0  0  0  0  0  0
    0.3151   -0.7814    0.4601 C   0  0  0  0  0  0
   -0.9591   -1.0142    1.2303 C   0  0  0  0  0  0
   -1.0845   -0.5590    2.3425 O   0  0  0  0  0  0
   -1.9547   -1.7274    0.6808 O   0  0  0  0  0  0
   -3.1824   -1.9517    1.4229 C   0  0  0  0  0  0
   -4.1304   -2.7742    0.5888 C   0  0  0  0  0  0
   -4.1024   -4.1540    0.6688 C   0  0  0  0  0  0
   -4.9719   -4.9085   -0.0964 C   0  0  0  0  0  0
   -5.8698   -4.2832   -0.9412 C   0  0  0  0  0  0
   -5.8984   -2.9034   -1.0206 C   0  0  0  0  0  0
   -5.0318   -2.1488   -0.2522 C   0  0  0  0  0  0
    0.9637   -2.1269    0.1284 C   0  0  0  0  0  0
    2.2379   -1.8940   -0.6418 C   0  0  0  0  0  0
    3.4326   -1.7454    0.0325 C   0  0  0  0  0  0
    4.6113   -1.5304   -0.6820 C   0  0  0  0  0  0
    4.5739   -1.4671   -2.0754 C   0  0  0  0  0  0
    3.3731   -1.6172   -2.7378 C   0  0  0  0  0  0
    2.2083   -1.8355   -2.0235 C   0  0  0  0  0  0
    5.8958   -1.3697    0.0348 C   0  3  0  0  0  0
    7.0191   -1.1646   -0.6499 N   0  0  0  0  0  0
    7.8611   -1.0592   -0.1800 H   0  0  0  0  0  0
    6.9955   -1.1205   -1.6186 H   0  0  0  0  0  0
    5.9282   -1.4302    1.3645 N   0  0  0  0  0  0
    6.7702   -1.3248    1.8344 H   0  0  0  0  0  0
    5.1098   -1.5796    1.8634 H   0  0  0  0  0  0
   -1.7803    2.7388   -2.9415 H   0  0  0  0  0  0
   -3.7382    4.1649   -3.2002 H   0  0  0  0  0  0
   -4.5388    5.5551   -1.3390 H   0  0  0  0  0  0
   -3.3928    5.5447    0.8105 H   0  0  0  0  0  0
   -1.5506    4.6951    2.2378 H   0  0  0  0  0  0
    0.4094    3.2722    2.4950 H   0  0  0  0  0  0
    0.0650    1.8930   -1.5160 H   0  0  0  0  0  0
    1.5398   -0.3141    2.1304 H   0  0  0  0  0  0
    0.0891   -0.2494   -0.4640 H   0  0  0  0  0  0
   -2.9563   -2.4837    2.3470 H   0  0  0  0  0  0
   -3.6444   -0.9932    1.6592 H   0  0  0  0  0  0
   -3.4009   -4.6425    1.3288 H   0  0  0  0  0  0
   -4.9496   -5.9865   -0.0344 H   0  0  0  0  0  0
   -6.5487   -4.8727   -1.5396 H   0  0  0  0  0  0
   -6.5997   -2.4149   -1.6809 H   0  0  0  0  0  0
   -5.0541   -1.0708   -0.3142 H   0  0  0  0  0  0
    1.1897   -2.6589    1.0525 H   0  0  0  0  0  0
    0.2780   -2.7218   -0.4749 H   0  0  0  0  0  0
    3.4551   -1.7951    1.1111 H   0  0  0  0  0  0
    5.4830   -1.3005   -2.6342 H   0  0  0  0  0  0
    3.3428   -1.5680   -3.8162 H   0  0  0  0  0  0
    1.2707   -1.9524   -2.5467 H   0  0  0  0  0  0
  1  2  1  0  0  0
  1 10  2  0  0  0
  1 40  1  0  0  0
  2  3  2  0  0  0
  2 41  1  0  0  0
  3  4  1  0  0  0
  3 42  1  0  0  0
  4  5  2  0  0  0
  4 43  1  0  0  0
  5  6  1  0  0  0
  5 10  1  0  0  0
  6  7  2  0  0  0
  6 44  1  0  0  0
  7  8  1  0  0  0
  7 45  1  0  0  0
  8  9  2  0  0  0
  8 11  1  0  0  0
  9 10  1  0  0  0
  9 46  1  0  0  0
 11 12  2  0  0  0
 11 13  2  0  0  0
 11 14  1  0  0  0
 14 15  1  0  0  0
 14 47  1  0  0  0
 15 16  1  0  0  0
 15 26  1  0  0  0
 15 48  1  0  0  0
 16 17  2  0  0  0
 16 18  1  0  0  0
 18 19  1  0  0  0
 19 20  1  0  0  0
 19 49  1  0  0  0
 19 50  1  0  0  0
 20 21  1  0  0  0
 20 25  2  0  0  0
 21 22  2  0  0  0
 21 51  1  0  0  0
 22 23  1  0  0  0
 22 52  1  0  0  0
 23 24  2  0  0  0
 23 53  1  0  0  0
 24 25  1  0  0  0
 24 54  1  0  0  0
 25 55  1  0  0  0
 26 27  1  0  0  0
 26 56  1  0  0  0
 26 57  1  0  0  0
 27 28  1  0  0  0
 27 32  2  0  0  0
 28 29  2  0  0  0
 28 58  1  0  0  0
 29 30  1  0  0  0
 29 33  1  0  0  0
 30 31  2  0  0  0
 30 59  1  0  0  0
 31 32  1  0  0  0
 31 60  1  0  0  0
 32 61  1  0  0  0
 33 34  1  0  0  0
 33 37  1  0  0  0
 34 35  1  0  0  0
 34 36  1  0  0  0
 37 38  1  0  0  0
 37 39  1  0  0  0
M  CHG  1  33   1
M  END
>  <Activity>
7.377

>  <set>
2

>  <Min_dist>
0.035714

>  <Avg_dist>
0.405461

$$$$
21
  Cerius2 12110215013D 1   1.00000                          
 
 60 63  0  0  0  0  0  0  0  0999 V2000
   -3.6973    1.4229   -2.1056 C   0  0  0  0  0  0
   -5.0390    1.6256   -2.2136 C   0  0  0  0  0  0
   -5.7642    2.1982   -1.1707 C   0  0  0  0  0  0
   -5.1522    2.5712   -0.0134 C   0  0  0  0  0  0
   -3.7685    2.3773    0.1350 C   0  0  0  0  0  0
   -3.1016    2.7501    1.3146 C   0  0  0  0  0  0
   -1.7602    2.5473    1.4224 C   0  0  0  0  0  0
   -1.0347    1.9748    0.3791 C   0  0  0  0  0  0
   -1.6465    1.6019   -0.7779 C   0  0  0  0  0  0
   -3.0307    1.7951   -0.9261 C   0  0  0  0  0  0
    0.7009    1.7308    0.5606 S   0  0  0  0  0  0
    1.2207    1.6580   -0.7599 O   0  0  0  0  0  0
    1.1179    2.6518    1.5591 O   0  0  0  0  0  0
    0.9234    0.2260    1.2153 N   0  0  0  0  0  0
    0.4385   -0.9605    0.5059 C   0  0  0  0  0  0
   -0.6715   -1.6011    1.2987 C   0  0  0  0  0  0
   -0.7010   -1.4833    2.5054 O   0  0  0  0  0  0
   -1.6316   -2.3049    0.6667 N   0  0  0  0  0  0
   -1.5607   -2.5659   -0.7813 C   0  0  0  0  0  0
   -1.8560   -4.0517   -1.0137 C   0  0  0  0  0  0
   -3.1184   -4.3844   -0.4377 O   0  0  0  0  0  0
   -2.9832   -4.3049    0.9806 C   0  0  0  0  0  0
   -2.7890   -2.8478    1.3985 C   0  0  0  0  0  0
    1.5861   -1.9582    0.3371 C   0  0  0  0  0  0
    2.6962   -1.3177   -0.4556 C   0  0  0  0  0  0
    3.6980   -0.6276    0.1959 C   0  0  0  0  0  0
    4.7250   -0.0356   -0.5394 C   0  0  0  0  0  0
    4.7322   -0.1455   -1.9305 C   0  0  0  0  0  0
    3.7249   -0.8381   -2.5699 C   0  0  0  0  0  0
    2.7118   -1.4275   -1.8345 C   0  0  0  0  0  0
    5.8021    0.7062    0.1528 C   0  3  0  0  0  0
    6.7811    1.2702   -0.5518 N   0  0  0  0  0  0
    7.4871    1.7565   -0.0980 H   0  0  0  0  0  0
    6.7882    1.1947   -1.5188 H   0  0  0  0  0  0
    5.7923    0.8098    1.4802 N   0  0  0  0  0  0
    6.4983    1.2960    1.9339 H   0  0  0  0  0  0
    5.0791    0.3989    1.9934 H   0  0  0  0  0  0
   -3.1488    0.9743   -2.9207 H   0  0  0  0  0  0
   -5.5490    1.3387   -3.1213 H   0  0  0  0  0  0
   -6.8279    2.3487   -1.2823 H   0  0  0  0  0  0
   -5.7271    3.0141    0.7864 H   0  0  0  0  0  0
   -3.6506    3.1954    2.1311 H   0  0  0  0  0  0
   -1.2501    2.8347    2.3299 H   0  0  0  0  0  0
   -1.0713    1.1601   -1.5782 H   0  0  0  0  0  0
    1.3748    0.1303    2.0685 H   0  0  0  0  0  0
    0.0631   -0.6692   -0.4750 H   0  0  0  0  0  0
   -2.3010   -1.9579   -1.3014 H   0  0  0  0  0  0
   -0.5631   -2.3270   -1.1498 H   0  0  0  0  0  0
   -1.8811   -4.2536   -2.0846 H   0  0  0  0  0  0
   -1.0751   -4.6539   -0.5494 H   0  0  0  0  0  0
   -3.8809   -4.7029    1.4537 H   0  0  0  0  0  0
   -2.1181   -4.8883    1.2960 H   0  0  0  0  0  0
   -2.6063   -2.7941    2.4717 H   0  0  0  0  0  0
   -3.6791   -2.2711    1.1469 H   0  0  0  0  0  0
    1.9615   -2.2495    1.3181 H   0  0  0  0  0  0
    1.2253   -2.8410   -0.1907 H   0  0  0  0  0  0
    3.6867   -0.5457    1.2727 H   0  0  0  0  0  0
    5.5244    0.3109   -2.5053 H   0  0  0  0  0  0
    3.7292   -0.9236   -3.6465 H   0  0  0  0  0  0
    1.9255   -1.9686   -2.3397 H   0  0  0  0  0  0
  1  2  1  0  0  0
  1 10  2  0  0  0
  1 38  1  0  0  0
  2  3  2  0  0  0
  2 39  1  0  0  0
  3  4  1  0  0  0
  3 40  1  0  0  0
  4  5  2  0  0  0
  4 41  1  0  0  0
  5  6  1  0  0  0
  5 10  1  0  0  0
  6  7  2  0  0  0
  6 42  1  0  0  0
  7  8  1  0  0  0
  7 43  1  0  0  0
  8  9  2  0  0  0
  8 11  1  0  0  0
  9 10  1  0  0  0
  9 44  1  0  0  0
 11 12  2  0  0  0
 11 13  2  0  0  0
 11 14  1  0  0  0
 14 15  1  0  0  0
 14 45  1  0  0  0
 15 16  1  0  0  0
 15 24  1  0  0  0
 15 46  1  0  0  0
 16 17  2  0  0  0
 16 18  1  0  0  0
 18 19  1  0  0  0
 18 23  1  0  0  0
 19 20  1  0  0  0
 19 47  1  0  0  0
 19 48  1  0  0  0
 20 21  1  0  0  0
 20 49  1  0  0  0
 20 50  1  0  0  0
 21 22  1  0  0  0
 22 23  1  0  0  0
 22 51  1  0  0  0
 22 52  1  0  0  0
 23 53  1  0  0  0
 23 54  1  0  0  0
 24 25  1  0  0  0
 24 55  1  0  0  0
 24 56  1  0  0  0
 25 26  1  0  0  0
 25 30  2  0  0  0
 26 27  2  0  0  0
 26 57  1  0  0  0
 27 28  1  0  0  0
 27 31  1  0  0  0
 28 29  2  0  0  0
 28 58  1  0  0  0
 29 30  1  0  0  0
 29 59  1  0  0  0
 30 60  1  0  0  0
 31 32  1  0  0  0
 31 35  1  0  0  0
 32 33  1  0  0  0
 32 34  1  0  0  0
 35 36  1  0  0  0
 35 37  1  0  0  0
M  CHG  1  31   1
M  END
>  <Activity>
7.377

>  <set>
2

>  <Min_dist>
0.0625

>  <Avg_dist>
0.228094

$$$$
29
  Cerius2 12110215013D 1   1.00000                          
 
 66 70  0  0  0  0  0  0  0  0999 V2000
   -2.7969   -0.4248   -3.1664 C   0  0  0  0  0  0
   -3.8575   -1.1668   -3.5880 C   0  0  0  0  0  0
   -5.0816   -1.1099   -2.9250 C   0  0  0  0  0  0
   -5.2526   -0.3109   -1.8362 C   0  0  0  0  0  0
   -4.1806    0.4693   -1.3713 C   0  0  0  0  0  0
   -4.3191    1.3065   -0.2509 C   0  0  0  0  0  0
   -3.2588    2.0482    0.1705 C   0  0  0  0  0  0
   -2.0343    1.9915   -0.4929 C   0  0  0  0  0  0
   -1.8633    1.1928   -1.5813 C   0  0  0  0  0  0
   -2.9353    0.4117   -2.0460 C   0  0  0  0  0  0
   -0.6876    2.9692    0.0863 S   0  0  0  0  0  0
    0.2306    3.0411   -0.9958 O   0  0  0  0  0  0
   -1.2744    4.0846    0.7426 O   0  0  0  0  0  0
    0.0797    2.1028    1.2707 N   0  0  0  0  0  0
    0.7442    0.8396    0.9403 C   0  0  0  0  0  0
    2.2073    1.0938    0.6835 C   0  0  0  0  0  0
    2.7523    2.0561    1.1818 O   0  0  0  0  0  0
    2.9101    0.2520   -0.0999 N   0  0  0  0  0  0
    2.2976   -0.9883   -0.5886 C   0  0  0  0  0  0
    3.2858   -2.1184   -0.4484 C   0  0  0  0  0  0
    2.8467   -3.4149   -0.2929 C   0  0  0  0  0  0
    3.7615   -4.4483   -0.1830 C   0  0  0  0  0  0
    5.1205   -4.1890   -0.2303 C   0  0  0  0  0  0
    5.5752   -2.8952   -0.3790 C   0  0  0  0  0  0
    4.6583   -1.8466   -0.4802 C   0  0  0  0  0  0
    5.1188   -0.4574   -0.6276 C   0  0  0  0  0  0
    4.2310    0.5576   -0.4592 C   0  0  0  0  0  0
    4.6522    1.9523   -0.6428 C   0  0  0  0  0  0
    3.8315    2.8476   -0.5870 O   0  0  0  0  0  0
    5.9495    2.2402   -0.8734 O   0  5  0  0  0  0
    0.5936   -0.1366    2.1087 C   0  0  0  0  0  0
   -0.8606   -0.4917    2.2824 C   0  0  0  0  0  0
   -1.4238   -1.4858    1.5085 C   0  0  0  0  0  0
   -2.7700   -1.8136    1.6709 C   0  0  0  0  0  0
   -3.5386   -1.1330    2.6159 C   0  0  0  0  0  0
   -2.9638   -0.1412    3.3834 C   0  0  0  0  0  0
   -1.6266    0.1756    3.2212 C   0  0  0  0  0  0
   -3.3804   -2.8781    0.8441 C   0  3  0  0  0  0
   -4.7053   -2.9926    0.7782 N   0  0  0  0  0  0
   -5.1045   -3.7543    0.3295 H   0  0  0  0  0  0
   -5.2712   -2.3143    1.1788 H   0  0  0  0  0  0
   -2.6047   -3.7216    0.1660 N   0  0  0  0  0  0
   -3.0049   -4.4194   -0.3760 H   0  0  0  0  0  0
   -1.6395   -3.6381    0.2140 H   0  0  0  0  0  0
   -1.8528   -0.4821   -3.6877 H   0  0  0  0  0  0
   -3.7484   -1.8090   -4.4494 H   0  0  0  0  0  0
   -5.9074   -1.7084   -3.2805 H   0  0  0  0  0  0
   -6.2074   -0.2767   -1.3326 H   0  0  0  0  0  0
   -5.2622    1.3612    0.2726 H   0  0  0  0  0  0
   -3.3679    2.6908    1.0317 H   0  0  0  0  0  0
   -0.9089    1.1596   -2.0857 H   0  0  0  0  0  0
    0.0893    2.4317    2.1832 H   0  0  0  0  0  0
    0.2877    0.4115    0.0479 H   0  0  0  0  0  0
    1.4058   -1.2096   -0.0022 H   0  0  0  0  0  0
    2.0249   -0.8712   -1.6374 H   0  0  0  0  0  0
    1.7880   -3.6253   -0.2563 H   0  0  0  0  0  0
    3.4127   -5.4629   -0.0594 H   0  0  0  0  0  0
    5.8269   -5.0021   -0.1508 H   0  0  0  0  0  0
    6.6356   -2.6939   -0.4170 H   0  0  0  0  0  0
    6.1498   -0.2462   -0.8703 H   0  0  0  0  0  0
    1.1663   -1.0409    1.9027 H   0  0  0  0  0  0
    0.9655    0.3289    3.0214 H   0  0  0  0  0  0
   -0.8238   -2.0087    0.7785 H   0  0  0  0  0  0
   -4.5815   -1.3820    2.7461 H   0  0  0  0  0  0
   -3.5577    0.3865    4.1149 H   0  0  0  0  0  0
   -1.1812    0.9529    3.8244 H   0  0  0  0  0  0
  1  2  1  0  0  0
  1 10  2  0  0  0
  1 45  1  0  0  0
  2  3  2  0  0  0
  2 46  1  0  0  0
  3  4  1  0  0  0
  3 47  1  0  0  0
  4  5  2  0  0  0
  4 48  1  0  0  0
  5  6  1  0  0  0
  5 10  1  0  0  0
  6  7  2  0  0  0
  6 49  1  0  0  0
  7  8  1  0  0  0
  7 50  1  0  0  0
  8  9  2  0  0  0
  8 11  1  0  0  0
  9 10  1  0  0  0
  9 51  1  0  0  0
 11 12  2  0  0  0
 11 13  2  0  0  0
 11 14  1  0  0  0
 14 15  1  0  0  0
 14 52  1  0  0  0
 15 16  1  0  0  0
 15 31  1  0  0  0
 15 53  1  0  0  0
 16 17  2  0  0  0
 16 18  1  0  0  0
 18 19  1  0  0  0
 18 27  1  0  0  0
 19 20  1  0  0  0
 19 54  1  0  0  0
 19 55  1  0  0  0
 20 21  1  0  0  0
 20 25  2  0  0  0
 21 22  2  0  0  0
 21 56  1  0  0  0
 22 23  1  0  0  0
 22 57  1  0  0  0
 23 24  2  0  0  0
 23 58  1  0  0  0
 24 25  1  0  0  0
 24 59  1  0  0  0
 25 26  1  0  0  0
 26 27  2  0  0  0
 26 60  1  0  0  0
 27 28  1  0  0  0
 28 29  2  0  0  0
 28 30  1  0  0  0
 31 32  1  0  0  0
 31 61  1  0  0  0
 31 62  1  0  0  0
 32 33  1  0  0  0
 32 37  2  0  0  0
 33 34  2  0  0  0
 33 63  1  0  0  0
 34 35  1  0  0  0
 34 38  1  0  0  0
 35 36  2  0  0  0
 35 64  1  0  0  0
 36 37  1  0  0  0
 36 65  1  0  0  0
 37 66  1  0  0  0
 38 39  1  0  0  0
 38 42  1  0  0  0
 39 40  1  0  0  0
 39 41  1  0  0  0
 42 43  1  0  0  0
 42 44  1  0  0  0
M  CHG  2  30  -1  38   1
M  END
>  <Activity>
6.921

>  <set>
2

>  <Min_dist>
0.177305

>  <Avg_dist>
0.331995

$$$$
30
  Cerius2 12110215013D 1   1.00000                          
 
 66 70  0  0  0  0  0  0  0  0999 V2000
   -2.8877    3.8412   -1.2902 C   0  0  0  0  0  0
   -4.1760    4.2722   -1.3779 C   0  0  0  0  0  0
   -5.1017    3.9738   -0.3803 C   0  0  0  0  0  0
   -4.7450    3.2423    0.7109 C   0  0  0  0  0  0
   -3.4242    2.7797    0.8362 C   0  0  0  0  0  0
   -3.0185    2.0223    1.9484 C   0  0  0  0  0  0
   -1.7305    1.5915    2.0360 C   0  0  0  0  0  0
   -0.8044    1.8902    1.0382 C   0  0  0  0  0  0
   -1.1610    2.6215   -0.0527 C   0  0  0  0  0  0
   -2.4823    3.0836   -0.1785 C   0  0  0  0  0  0
    0.8533    1.3129    1.1919 S   0  0  0  0  0  0
    1.6387    2.1731    0.3779 O   0  0  0  0  0  0
    1.0550    1.0831    2.5796 O   0  0  0  0  0  0
    0.9271   -0.1774    0.4736 N   0  0  0  0  0  0
    0.5972   -0.3233   -0.9463 C   0  0  0  0  0  0
   -0.7042   -1.0704   -1.0855 C   0  0  0  0  0  0
   -1.5085   -0.7354   -1.9292 O   0  0  0  0  0  0
   -0.9742   -2.1109   -0.2724 N   0  0  0  0  0  0
    0.0555   -2.6373    0.6339 C   0  0  0  0  0  0
    0.0219   -4.1685    0.5426 C   0  0  0  0  0  0
   -1.3369   -4.6632    1.0378 C   0  0  0  0  0  0
   -2.4517   -3.9335    0.3359 C   0  0  0  0  0  0
   -3.7130   -4.5052    0.3072 C   0  0  0  0  0  0
   -4.7567   -3.8591   -0.3261 C   0  0  0  0  0  0
   -4.5485   -2.6356   -0.9364 C   0  0  0  0  0  0
   -3.2943   -2.0596   -0.9131 C   0  0  0  0  0  0
   -2.2438   -2.7050   -0.2732 C   0  0  0  0  0  0
    1.7100   -1.1017   -1.6511 C   0  0  0  0  0  0
    3.0064   -0.3425   -1.5330 C   0  0  0  0  0  0
    3.8425   -0.5705   -0.4592 C   0  0  0  0  0  0
    5.0425    0.1328   -0.3516 C   0  0  0  0  0  0
    5.3893    1.0632   -1.3320 C   0  0  0  0  0  0
    4.5448    1.2820   -2.4006 C   0  0  0  0  0  0
    3.3585    0.5774   -2.5043 C   0  0  0  0  0  0
    5.9434   -0.1065    0.7975 C   0  3  0  0  0  0
    7.0881    0.5663    0.8974 N   0  0  0  0  0  0
    7.6787    0.4094    1.6507 H   0  0  0  0  0  0
    7.3313    1.2133    0.2169 H   0  0  0  0  0  0
    5.6095   -0.9946    1.7316 N   0  0  0  0  0  0
    6.2001   -1.1515    2.4849 H   0  0  0  0  0  0
    4.7756   -1.4848    1.6588 H   0  0  0  0  0  0
   -2.1820    4.0767   -2.0731 H   0  0  0  0  0  0
   -4.4850    4.8544   -2.2334 H   0  0  0  0  0  0
   -6.1175    4.3284   -0.4740 H   0  0  0  0  0  0
   -5.4733    3.0189    1.4765 H   0  0  0  0  0  0
   -3.7250    1.7837    2.7297 H   0  0  0  0  0  0
   -1.4213    1.0096    2.8917 H   0  0  0  0  0  0
   -0.4323    2.8459   -0.8177 H   0  0  0  0  0  0
    1.1887   -0.9537    0.9930 H   0  0  0  0  0  0
    0.5002    0.6630   -1.4000 H   0  0  0  0  0  0
    1.0363   -2.2709    0.3309 H   0  0  0  0  0  0
   -0.1570   -2.3237    1.6560 H   0  0  0  0  0  0
    0.1670   -4.4758   -0.4931 H   0  0  0  0  0  0
    0.8123   -4.5889    1.1643 H   0  0  0  0  0  0
   -1.4251   -5.7313    0.8393 H   0  0  0  0  0  0
   -1.4134   -4.4899    2.1112 H   0  0  0  0  0  0
   -3.8811   -5.4606    0.7818 H   0  0  0  0  0  0
   -5.7376   -4.3106   -0.3451 H   0  0  0  0  0  0
   -5.3659   -2.1317   -1.4306 H   0  0  0  0  0  0
   -3.1303   -1.1041   -1.3891 H   0  0  0  0  0  0
    1.8190   -2.0813   -1.1858 H   0  0  0  0  0  0
    1.4561   -1.2257   -2.7038 H   0  0  0  0  0  0
    3.5684   -1.2917    0.2966 H   0  0  0  0  0  0
    6.3168    1.6110   -1.2542 H   0  0  0  0  0  0
    4.8120    2.0021   -3.1599 H   0  0  0  0  0  0
    2.7007    0.7523   -3.3428 H   0  0  0  0  0  0
  1  2  1  0  0  0
  1 10  2  0  0  0
  1 42  1  0  0  0
  2  3  2  0  0  0
  2 43  1  0  0  0
  3  4  1  0  0  0
  3 44  1  0  0  0
  4  5  2  0  0  0
  4 45  1  0  0  0
  5  6  1  0  0  0
  5 10  1  0  0  0
  6  7  2  0  0  0
  6 46  1  0  0  0
  7  8  1  0  0  0
  7 47  1  0  0  0
  8  9  2  0  0  0
  8 11  1  0  0  0
  9 10  1  0  0  0
  9 48  1  0  0  0
 11 12  2  0  0  0
 11 13  2  0  0  0
 11 14  1  0  0  0
 14 15  1  0  0  0
 14 49  1  0  0  0
 15 16  1  0  0  0
 15 28  1  0  0  0
 15 50  1  0  0  0
 16 17  2  0  0  0
 16 18  1  0  0  0
 18 19  1  0  0  0
 18 27  1  0  0  0
 19 20  1  0  0  0
 19 51  1  0  0  0
 19 52  1  0  0  0
 20 21  1  0  0  0
 20 53  1  0  0  0
 20 54  1  0  0  0
 21 22  1  0  0  0
 21 55  1  0  0  0
 21 56  1  0  0  0
 22 23  1  0  0  0
 22 27  2  0  0  0
 23 24  2  0  0  0
 23 57  1  0  0  0
 24 25  1  0  0  0
 24 58  1  0  0  0
 25 26  2  0  0  0
 25 59  1  0  0  0
 26 27  1  0  0  0
 26 60  1  0  0  0
 28 29  1  0  0  0
 28 61  1  0  0  0
 28 62  1  0  0  0
 29 30  1  0  0  0
 29 34  2  0  0  0
 30 31  2  0  0  0
 30 63  1  0  0  0
 31 32  1  0  0  0
 31 35  1  0  0  0
 32 33  2  0  0  0
 32 64  1  0  0  0
 33 34  1  0  0  0
 33 65  1  0  0  0
 34 66  1  0  0  0
 35 36  1  0  0  0
 35 39  1  0  0  0
 36 37  1  0  0  0
 36 38  1  0  0  0
 39 40  1  0  0  0
 39 41  1  0  0  0
M  CHG  1  35   1
M  END
>  <Activity>
6.921

>  <set>
2

>  <Min_dist>
0.077586

>  <Avg_dist>
0.240594

$$$$
31
  Cerius2 12110215013D 1   1.00000                          
 
 61 63  0  0  0  0  0  0  0  0999 V2000
   -3.0226    3.5875   -1.2092 C   0  0  0  0  0  0
   -4.2918    4.0674   -1.3191 C   0  0  0  0  0  0
   -5.2745    3.7150   -0.3964 C   0  0  0  0  0  0
   -4.9941    2.8802    0.6417 C   0  0  0  0  0  0
   -3.6954    2.3644    0.7878 C   0  0  0  0  0  0
   -3.3679    1.5004    1.8468 C   0  0  0  0  0  0
   -2.0991    1.0207    1.9566 C   0  0  0  0  0  0
   -1.1160    1.3734    1.0337 C   0  0  0  0  0  0
   -1.3962    2.2080   -0.0041 C   0  0  0  0  0  0
   -2.6955    2.7233   -0.1508 C   0  0  0  0  0  0
    0.5142    0.7297    1.2138 S   0  0  0  0  0  0
    1.3641    1.6303    0.5168 O   0  0  0  0  0  0
    0.6397    0.3739    2.5838 O   0  0  0  0  0  0
    0.5800   -0.6944    0.3713 N   0  0  0  0  0  0
    0.3172   -0.7057   -1.0699 C   0  0  0  0  0  0
   -0.8632   -1.5971   -1.3582 C   0  0  0  0  0  0
   -1.5827   -1.3630   -2.3061 O   0  0  0  0  0  0
   -1.1193   -2.6546   -0.5628 N   0  0  0  0  0  0
   -2.2668   -3.5211   -0.8431 C   0  0  0  0  0  0
   -2.3305   -4.6370    0.2017 C   0  0  0  0  0  0
   -3.5289   -5.5420   -0.0911 C   0  0  0  0  0  0
   -3.5925   -6.6579    0.9537 C   0  0  0  0  0  0
    1.5482   -1.2346   -1.8087 C   0  0  0  0  0  0
    2.7286   -0.3432   -1.5203 C   0  0  0  0  0  0
    3.5463   -0.6110   -0.4415 C   0  0  0  0  0  0
    4.6388    0.2149   -0.1762 C   0  0  0  0  0  0
    4.8974    1.3074   -1.0048 C   0  0  0  0  0  0
    4.0725    1.5644   -2.0801 C   0  0  0  0  0  0
    2.9934    0.7383   -2.3410 C   0  0  0  0  0  0
    5.5193   -0.0662    0.9792 C   0  3  0  0  0  0
    6.5614    0.7238    1.2299 N   0  0  0  0  0  0
    7.1386    0.5396    1.9873 H   0  0  0  0  0  0
    6.7432    1.4837    0.6550 H   0  0  0  0  0  0
    5.2697   -1.1093    1.7683 N   0  0  0  0  0  0
    5.8470   -1.2935    2.5258 H   0  0  0  0  0  0
    4.5106   -1.6848    1.5857 H   0  0  0  0  0  0
   -2.2722    3.8661   -1.9342 H   0  0  0  0  0  0
   -4.5406    4.7315   -2.1336 H   0  0  0  0  0  0
   -6.2735    4.1103   -0.5062 H   0  0  0  0  0  0
   -5.7659    2.6160    1.3495 H   0  0  0  0  0  0
   -4.1192    1.2189    2.5698 H   0  0  0  0  0  0
   -1.8502    0.3569    2.7714 H   0  0  0  0  0  0
   -0.6241    2.4731   -0.7111 H   0  0  0  0  0  0
    0.7926   -1.5211    0.8320 H   0  0  0  0  0  0
    0.0984    0.3074   -1.4073 H   0  0  0  0  0  0
   -0.5439   -2.8419    0.1953 H   0  0  0  0  0  0
   -3.1840   -2.9336   -0.8036 H   0  0  0  0  0  0
   -2.1580   -3.9584   -1.8356 H   0  0  0  0  0  0
   -1.4132   -5.2246    0.1621 H   0  0  0  0  0  0
   -2.4393   -4.1997    1.1942 H   0  0  0  0  0  0
   -4.4461   -4.9545   -0.0515 H   0  0  0  0  0  0
   -3.4200   -5.9793   -1.0836 H   0  0  0  0  0  0
   -4.4463   -7.3027    0.7452 H   0  0  0  0  0  0
   -2.6753   -7.2455    0.9142 H   0  0  0  0  0  0
   -3.7014   -6.2206    1.9462 H   0  0  0  0  0  0
    1.7670   -2.2477   -1.4713 H   0  0  0  0  0  0
    1.3526   -1.2430   -2.8810 H   0  0  0  0  0  0
    3.3406   -1.4579    0.1964 H   0  0  0  0  0  0
    5.7415    1.9507   -0.8044 H   0  0  0  0  0  0
    4.2714    2.4099   -2.7220 H   0  0  0  0  0  0
    2.3505    0.9437   -3.1841 H   0  0  0  0  0  0
  1  2  1  0  0  0
  1 10  2  0  0  0
  1 37  1  0  0  0
  2  3  2  0  0  0
  2 38  1  0  0  0
  3  4  1  0  0  0
  3 39  1  0  0  0
  4  5  2  0  0  0
  4 40  1  0  0  0
  5  6  1  0  0  0
  5 10  1  0  0  0
  6  7  2  0  0  0
  6 41  1  0  0  0
  7  8  1  0  0  0
  7 42  1  0  0  0
  8  9  2  0  0  0
  8 11  1  0  0  0
  9 10  1  0  0  0
  9 43  1  0  0  0
 11 12  2  0  0  0
 11 13  2  0  0  0
 11 14  1  0  0  0
 14 15  1  0  0  0
 14 44  1  0  0  0
 15 16  1  0  0  0
 15 23  1  0  0  0
 15 45  1  0  0  0
 16 17  2  0  0  0
 16 18  1  0  0  0
 18 19  1  0  0  0
 18 46  1  0  0  0
 19 20  1  0  0  0
 19 47  1  0  0  0
 19 48  1  0  0  0
 20 21  1  0  0  0
 20 49  1  0  0  0
 20 50  1  0  0  0
 21 22  1  0  0  0
 21 51  1  0  0  0
 21 52  1  0  0  0
 22 53  1  0  0  0
 22 54  1  0  0  0
 22 55  1  0  0  0
 23 24  1  0  0  0
 23 56  1  0  0  0
 23 57  1  0  0  0
 24 25  1  0  0  0
 24 29  2  0  0  0
 25 26  2  0  0  0
 25 58  1  0  0  0
 26 27  1  0  0  0
 26 30  1  0  0  0
 27 28  2  0  0  0
 27 59  1  0  0  0
 28 29  1  0  0  0
 28 60  1  0  0  0
 29 61  1  0  0  0
 30 31  1  0  0  0
 30 34  1  0  0  0
 31 32  1  0  0  0
 31 33  1  0  0  0
 34 35  1  0  0  0
 34 36  1  0  0  0
M  CHG  1  30   1
M  END
>  <Activity>
6.921

>  <set>
2

>  <Min_dist>
0.022472

>  <Avg_dist>
0.328727

$$$$
35
  Cerius2 12110215013D 1   1.00000                          
Structure written by Cerius2 SD Exporter
 71 73  0  0  0  0  0  0  0  0999 V2000
   -1.9493    3.7005   -0.1059 C   0  0  0  0  0  0
   -1.1722    3.9994    1.0264 C   0  0  0  0  0  0
    0.0189    3.3676    1.2114 C   0  0  0  0  0  0
    0.4823    2.4265    0.2936 C   0  0  0  0  0  0
   -0.2427    2.1121   -0.8143 C   0  0  0  0  0  0
   -1.4780    2.7435   -1.0393 C   0  0  0  0  0  0
    2.0305    1.6325    0.5717 S   0  0  0  0  0  0
    2.4679    1.1821   -0.7031 O   0  0  0  0  0  0
    2.7586    2.4971    1.4329 O   0  0  0  0  0  0
    1.7332    0.2636    1.4549 N   0  0  0  0  0  0
    0.8554   -0.7788    0.9172 C   0  0  0  0  0  0
   -0.3173   -0.9748    1.8431 C   0  0  0  0  0  0
   -0.2599   -0.5763    2.9872 O   0  0  0  0  0  0
   -1.4299   -1.5930    1.3999 N   0  0  0  0  0  0
   -2.5393   -1.8856    2.3183 C   0  0  0  0  0  0
   -3.8224   -1.2671    1.7496 C   0  0  0  0  0  0
   -3.9481   -1.6602    0.3391 C   0  0  0  0  0  0
   -2.8387   -1.3676   -0.5793 C   0  0  0  0  0  0
   -1.5579   -1.9811   -0.0118 C   0  0  0  0  0  0
    1.6349   -2.0898    0.7969 C   0  0  0  0  0  0
    2.7264   -1.9328   -0.2303 C   0  0  0  0  0  0
    3.9763   -1.4929    0.1550 C   0  0  0  0  0  0
    4.9857   -1.3486   -0.7970 C   0  0  0  0  0  0
    4.7240   -1.6504   -2.1340 C   0  0  0  0  0  0
    3.4703   -2.0894   -2.5063 C   0  0  0  0  0  0
    2.4749   -2.2355   -1.5564 C   0  0  0  0  0  0
    6.3281   -0.8768   -0.3909 C   0  3  0  0  0  0
    7.2894   -0.7400   -1.3018 N   0  0  0  0  0  0
    8.1694   -0.4308   -1.0356 H   0  0  0  0  0  0
    7.1098   -0.9496   -2.2317 H   0  0  0  0  0  0
    6.5746   -0.5891    0.8856 N   0  0  0  0  0  0
    7.4546   -0.2799    1.1518 H   0  0  0  0  0  0
   -1.5182    4.7269    1.7456 H   0  0  0  0  0  0
    0.8290    3.6826    2.3965 C   0  0  0  0  0  0
    0.2637    1.1178   -1.7708 C   0  0  0  0  0  0
    2.1403    0.1520    2.3283 H   0  0  0  0  0  0
    0.4953   -0.4786   -0.0668 H   0  0  0  0  0  0
   -2.6631   -2.9646    2.4104 H   0  0  0  0  0  0
   -2.3277   -1.4542    3.2967 H   0  0  0  0  0  0
   -4.6836   -1.6320    2.3092 H   0  0  0  0  0  0
   -3.7687   -0.1809    1.8232 H   0  0  0  0  0  0
   -3.0502   -1.7990   -1.5577 H   0  0  0  0  0  0
   -2.7149   -0.2886   -0.6715 H   0  0  0  0  0  0
   -0.6975   -1.6154   -0.5723 H   0  0  0  0  0  0
   -1.6096   -3.0675   -0.0838 H   0  0  0  0  0  0
    2.0769   -2.3396    1.7614 H   0  0  0  0  0  0
    0.9588   -2.8876    0.4896 H   0  0  0  0  0  0
    4.1726   -1.2605    1.1913 H   0  0  0  0  0  0
    5.5012   -1.5404   -2.8758 H   0  0  0  0  0  0
    3.2664   -2.3230   -3.5409 H   0  0  0  0  0  0
    1.4950   -2.5794   -1.8529 H   0  0  0  0  0  0
    5.9247   -0.6815    1.5013 H   0  0  0  0  0  0
   -4.0649   -2.6012    0.2818 H   0  0  0  0  0  0
   -5.1007   -1.0532   -0.1739 C   0  0  0  0  0  0
   -5.3228   -1.0771   -1.4039 O   0  0  0  0  0  0
   -5.9693   -0.4435    0.6615 O   0  0  0  0  0  0
   -7.1799    0.1943    0.1252 C   0  0  0  0  0  0
   -7.6800    0.5742    0.8380 H   0  0  0  0  0  0
   -6.9332    0.8771   -0.4876 H   0  0  0  0  0  0
   -7.7091   -0.4560   -0.3216 H   0  0  0  0  0  0
   -3.2370    4.3779   -0.3131 C   0  0  0  0  0  0
   -1.9959    2.5345   -1.8078 H   0  0  0  0  0  0
    1.6249    3.1641    2.3830 H   0  0  0  0  0  0
    1.0525    4.6059    2.3910 H   0  0  0  0  0  0
    0.3332    3.4815    3.1816 H   0  0  0  0  0  0
   -0.3586    1.0165   -2.4815 H   0  0  0  0  0  0
    1.0977    1.4098   -2.1194 H   0  0  0  0  0  0
    0.3791    0.2843   -1.3298 H   0  0  0  0  0  0
   -3.6332    4.0656   -1.1180 H   0  0  0  0  0  0
   -3.8145    4.1906    0.4176 H   0  0  0  0  0  0
   -3.0957    5.3154   -0.3727 H   0  0  0  0  0  0
  1  2  1  0  0  0
  1  6  2  0  0  0
  1 61  1  0  0  0
  2  3  2  0  0  0
  2 33  1  0  0  0
  3  4  1  0  0  0
  3 34  1  0  0  0
  4  5  2  0  0  0
  4  7  1  0  0  0
  5  6  1  0  0  0
  5 35  1  0  0  0
  6 62  1  0  0  0
  7  8  2  0  0  0
  7  9  2  0  0  0
  7 10  1  0  0  0
 10 11  1  0  0  0
 10 36  1  0  0  0
 11 12  1  0  0  0
 11 20  1  0  0  0
 11 37  1  0  0  0
 12 13  2  0  0  0
 12 14  1  0  0  0
 14 15  1  0  0  0
 14 19  1  0  0  0
 15 16  1  0  0  0
 15 38  1  0  0  0
 15 39  1  0  0  0
 16 17  1  0  0  0
 16 40  1  0  0  0
 16 41  1  0  0  0
 17 18  1  0  0  0
 17 53  1  0  0  0
 17 54  1  0  0  0
 18 19  1  0  0  0
 18 42  1  0  0  0
 18 43  1  0  0  0
 19 44  1  0  0  0
 19 45  1  0  0  0
 20 21  1  0  0  0
 20 46  1  0  0  0
 20 47  1  0  0  0
 21 22  1  0  0  0
 21 26  2  0  0  0
 22 23  2  0  0  0
 22 48  1  0  0  0
 23 24  1  0  0  0
 23 27  1  0  0  0
 24 25  2  0  0  0
 24 49  1  0  0  0
 25 26  1  0  0  0
 25 50  1  0  0  0
 26 51  1  0  0  0
 27 28  1  0  0  0
 27 31  1  0  0  0
 28 29  1  0  0  0
 28 30  1  0  0  0
 31 32  1  0  0  0
 31 52  1  0  0  0
 34 63  1  0  0  0
 34 64  1  0  0  0
 34 65  1  0  0  0
 35 66  1  0  0  0
 35 67  1  0  0  0
 35 68  1  0  0  0
 55 54  2  0  0  0
 56 54  1  0  0  0
 56 57  1  0  0  0
 57 58  1  0  0  0
 57 59  1  0  0  0
 57 60  1  0  0  0
 61 69  1  0  0  0
 61 70  1  0  0  0
 61 71  1  0  0  0
M  CHG  1  27   1
M  END
>  <Activity>
6.745

>  <set>
2

>  <Min_dist>
0.039683

>  <Avg_dist>
0.246563

$$$$
39
  Cerius2 12110215013D 1   1.00000                          
 
 90 92  0  0  0  0  0  0  0  0999 V2000
   -0.5365    3.8957    1.1281 C   0  0  0  0  0  0
   -1.1483    2.9898    0.0907 C   0  0  0  0  0  0
   -0.3916    1.9845   -0.4817 C   0  0  0  0  0  0
   -0.9527    1.1535   -1.4332 C   0  0  0  0  0  0
   -2.2707    1.3275   -1.8121 C   0  0  0  0  0  0
   -3.0277    2.3322   -1.2390 C   0  0  0  0  0  0
   -2.4678    3.1605   -0.2843 C   0  0  0  0  0  0
   -4.4644    2.5223   -1.6524 C   0  0  0  0  0  0
   -5.3727    2.3526   -0.4329 C   0  0  0  0  0  0
   -4.6466    3.9262   -2.2327 C   0  0  0  0  0  0
   -0.1275    0.0582   -2.0580 C   0  0  0  0  0  0
   -1.0434   -1.0916   -2.4824 C   0  0  0  0  0  0
    0.6038    0.6071   -3.2847 C   0  0  0  0  0  0
    1.2884    1.7626    0.0012 S   0  0  0  0  0  0
    1.8811    0.9681   -1.0170 O   0  0  0  0  0  0
    1.7437    3.0437    0.4144 O   0  0  0  0  0  0
    1.2917    0.8226    1.3645 N   0  0  0  0  0  0
    0.7233   -0.5271    1.3250 C   0  0  0  0  0  0
   -0.4052   -0.6262    2.3188 C   0  0  0  0  0  0
   -0.5383    0.2253    3.1722 O   0  0  0  0  0  0
   -1.2667   -1.6610    2.2592 N   0  0  0  0  0  0
   -1.0596   -2.7530    1.2984 C   0  0  0  0  0  0
   -2.3380   -2.9334    0.4739 C   0  0  0  0  0  0
   -3.5239   -3.1435    1.4182 C   0  0  0  0  0  0
   -3.6935   -1.9107    2.3089 C   0  0  0  0  0  0
   -2.4273   -1.7215    3.1581 C   0  0  0  0  0  0
   -2.1917   -4.1343   -0.4248 C   0  0  0  0  0  0
   -1.1669   -4.7827   -0.4085 O   0  0  0  0  0  0
   -3.1997   -4.4877   -1.2466 N   0  0  0  0  0  0
   -3.0575   -5.6551   -2.1202 C   0  0  0  0  0  0
    1.8068   -1.5473    1.6803 C   0  0  0  0  0  0
    2.8639   -1.5520    0.6063 C   0  0  0  0  0  0
    3.9506   -0.7074    0.7060 C   0  0  0  0  0  0
    4.9284   -0.7134   -0.2888 C   0  0  0  0  0  0
    4.8007   -1.5746   -1.3793 C   0  0  0  0  0  0
    3.7096   -2.4141   -1.4674 C   0  0  0  0  0  0
    2.7457   -2.4071   -0.4746 C   0  0  0  0  0  0
    6.0960    0.1901   -0.1884 C   0  3  0  0  0  0
    7.0277    0.1821   -1.1395 N   0  0  0  0  0  0
    7.7931    0.7743   -1.0737 H   0  0  0  0  0  0
    6.9411   -0.4160   -1.8983 H   0  0  0  0  0  0
    6.2149    1.0110    0.8532 N   0  0  0  0  0  0
    6.9803    1.6032    0.9190 H   0  0  0  0  0  0
    5.5361    1.0168    1.5461 H   0  0  0  0  0  0
   -0.1680    5.2334    0.4834 C   0  0  0  0  0  0
   -1.5433    4.1331    2.2554 C   0  0  0  0  0  0
    0.3607    3.4288    1.5345 H   0  0  0  0  0  0
   -2.7089    0.6787   -2.5560 H   0  0  0  0  0  0
   -3.0592    3.9454    0.1634 H   0  0  0  0  0  0
   -4.7266    1.7805   -2.4068 H   0  0  0  0  0  0
   -6.4118    2.4901   -0.7319 H   0  0  0  0  0  0
   -5.2428    1.3525   -0.0195 H   0  0  0  0  0  0
   -5.1105    3.0945    0.3214 H   0  0  0  0  0  0
   -4.3844    4.6680   -1.4784 H   0  0  0  0  0  0
   -3.9995    4.0471   -3.1015 H   0  0  0  0  0  0
   -5.6857    4.0637   -2.5317 H   0  0  0  0  0  0
    0.6010   -0.3061   -1.3336 H   0  0  0  0  0  0
   -1.5214   -1.5195   -1.6012 H   0  0  0  0  0  0
   -1.8069   -0.7155   -3.1633 H   0  0  0  0  0  0
   -0.4544   -1.8588   -2.9849 H   0  0  0  0  0  0
    1.2563    1.4262   -2.9824 H   0  0  0  0  0  0
    1.2007   -0.1851   -3.7366 H   0  0  0  0  0  0
   -0.1247    0.9713   -4.0091 H   0  0  0  0  0  0
    1.6699    1.1657    2.1893 H   0  0  0  0  0  0
    0.3449   -0.7328    0.3238 H   0  0  0  0  0  0
   -0.2298   -2.5049    0.6365 H   0  0  0  0  0  0
   -0.8380   -3.6753    1.8355 H   0  0  0  0  0  0
   -2.5087   -2.0436   -0.1321 H   0  0  0  0  0  0
   -4.4310   -3.2967    0.8335 H   0  0  0  0  0  0
   -3.3414   -4.0192    2.0410 H   0  0  0  0  0  0
   -3.8514   -1.0305    1.6857 H   0  0  0  0  0  0
   -4.5525   -2.0513    2.9650 H   0  0  0  0  0  0
   -2.3201   -2.5601    3.8461 H   0  0  0  0  0  0
   -2.5007   -0.7912    3.7213 H   0  0  0  0  0  0
   -4.0194   -3.9692   -1.2597 H   0  0  0  0  0  0
   -3.9674   -5.7831   -2.7067 H   0  0  0  0  0  0
   -2.2111   -5.5063   -2.7906 H   0  0  0  0  0  0
   -2.8883   -6.5446   -1.5134 H   0  0  0  0  0  0
    2.2597   -1.2788    2.6347 H   0  0  0  0  0  0
    1.3611   -2.5391    1.7559 H   0  0  0  0  0  0
    4.0436   -0.0429    1.5523 H   0  0  0  0  0  0
    5.5543   -1.5836   -2.1529 H   0  0  0  0  0  0
    3.6094   -3.0808   -2.3111 H   0  0  0  0  0  0
    1.8933   -3.0662   -0.5481 H   0  0  0  0  0  0
    0.2745    5.8887    1.2337 H   0  0  0  0  0  0
    0.5493    5.0643   -0.3198 H   0  0  0  0  0  0
   -1.0651    5.7003    0.0769 H   0  0  0  0  0  0
   -2.4405    4.6000    1.8489 H   0  0  0  0  0  0
   -1.8059    3.1801    2.7147 H   0  0  0  0  0  0
   -1.1009    4.7884    3.0057 H   0  0  0  0  0  0
  1  2  1  0  0  0
  1 45  1  0  0  0
  1 46  1  0  0  0
  1 47  1  0  0  0
  2  3  1  0  0  0
  2  7  2  0  0  0
  3  4  2  0  0  0
  3 14  1  0  0  0
  4  5  1  0  0  0
  4 11  1  0  0  0
  5  6  2  0  0  0
  5 48  1  0  0  0
  6  7  1  0  0  0
  6  8  1  0  0  0
  7 49  1  0  0  0
  8  9  1  0  0  0
  8 10  1  0  0  0
  8 50  1  0  0  0
  9 51  1  0  0  0
  9 52  1  0  0  0
  9 53  1  0  0  0
 10 54  1  0  0  0
 10 55  1  0  0  0
 10 56  1  0  0  0
 11 12  1  0  0  0
 11 13  1  0  0  0
 11 57  1  0  0  0
 12 58  1  0  0  0
 12 59  1  0  0  0
 12 60  1  0  0  0
 13 61  1  0  0  0
 13 62  1  0  0  0
 13 63  1  0  0  0
 14 15  2  0  0  0
 14 16  2  0  0  0
 14 17  1  0  0  0
 17 18  1  0  0  0
 17 64  1  0  0  0
 18 19  1  0  0  0
 18 31  1  0  0  0
 18 65  1  0  0  0
 19 20  2  0  0  0
 19 21  1  0  0  0
 21 22  1  0  0  0
 21 26  1  0  0  0
 22 23  1  0  0  0
 22 66  1  0  0  0
 22 67  1  0  0  0
 23 24  1  0  0  0
 23 27  1  0  0  0
 23 68  1  0  0  0
 24 25  1  0  0  0
 24 69  1  0  0  0
 24 70  1  0  0  0
 25 26  1  0  0  0
 25 71  1  0  0  0
 25 72  1  0  0  0
 26 73  1  0  0  0
 26 74  1  0  0  0
 27 28  2  0  0  0
 27 29  1  0  0  0
 29 30  1  0  0  0
 29 75  1  0  0  0
 30 76  1  0  0  0
 30 77  1  0  0  0
 30 78  1  0  0  0
 31 32  1  0  0  0
 31 79  1  0  0  0
 31 80  1  0  0  0
 32 33  1  0  0  0
 32 37  2  0  0  0
 33 34  2  0  0  0
 33 81  1  0  0  0
 34 35  1  0  0  0
 34 38  1  0  0  0
 35 36  2  0  0  0
 35 82  1  0  0  0
 36 37  1  0  0  0
 36 83  1  0  0  0
 37 84  1  0  0  0
 38 39  1  0  0  0
 38 42  1  0  0  0
 39 40  1  0  0  0
 39 41  1  0  0  0
 42 43  1  0  0  0
 42 44  1  0  0  0
 45 85  1  0  0  0
 45 86  1  0  0  0
 45 87  1  0  0  0
 46 88  1  0  0  0
 46 89  1  0  0  0
 46 90  1  0  0  0
M  CHG  1  38   1
M  END
>  <Activity>
6.638

>  <set>
2

>  <Min_dist>
0.037313

>  <Avg_dist>
0.305367

$$$$
44
  Cerius2 12110215013D 1   1.00000                          
Structure written by Cerius2 SD Exporter
 64 67  0  0  0  0  0  0  0  0999 V2000
    2.0259    2.4312   -1.2328 N   0  0  0  0  0  0
    3.0467    2.7973   -2.0556 C   0  0  0  0  0  0
    4.3508    2.9039   -1.5770 C   0  0  0  0  0  0
    4.6421    2.6451   -0.2727 C   0  0  0  0  0  0
    3.6146    2.2646    0.6068 C   0  0  0  0  0  0
    2.2879    2.1561    0.1198 C   0  0  0  0  0  0
    1.2600    1.7758    0.9998 C   0  0  0  0  0  0
    1.5512    1.5175    2.3038 C   0  0  0  0  0  0
    2.8557    1.6247    2.7827 C   0  0  0  0  0  0
    3.8765    1.9897    1.9600 C   0  0  0  0  0  0
   -0.3971    1.6347    0.4176 S   0  0  0  0  0  0
   -1.1577    1.1738    1.5259 O   0  0  0  0  0  0
   -0.6511    2.8247   -0.3163 O   0  0  0  0  0  0
   -0.4291    0.4061   -0.6922 N   0  0  0  0  0  0
   -0.1539   -0.9696   -0.2702 C   0  0  0  0  0  0
    1.1243   -1.4455   -0.9111 C   0  0  0  0  0  0
    1.5043   -0.9469   -1.9494 O   0  0  0  0  0  0
    1.8451   -2.4252   -0.3306 N   0  0  0  0  0  0
    1.3428   -3.1162    0.8648 C   0  0  0  0  0  0
    1.3552   -4.6257    0.6034 C   0  0  0  0  0  0
    2.7605   -5.0534    0.1741 C   0  0  0  0  0  0
    3.1401   -4.3355   -1.1231 C   0  0  0  0  0  0
    3.1453   -2.8266   -0.8846 C   0  0  0  0  0  0
   -1.3088   -1.8759   -0.7012 C   0  0  0  0  0  0
   -2.5870   -1.4000   -0.0603 C   0  0  0  0  0  0
   -3.3777   -0.4722   -0.7072 C   0  0  0  0  0  0
   -4.5608   -0.0331   -0.1127 C   0  0  0  0  0  0
   -4.9369   -0.5357    1.1335 C   0  0  0  0  0  0
   -4.1378   -1.4627    1.7698 C   0  0  0  0  0  0
   -2.9681   -1.8982    1.1725 C   0  0  0  0  0  0
   -5.4131    0.9619   -0.8006 C   0  3  0  0  0  0
   -6.5418    1.3791   -0.2307 N   0  0  0  0  0  0
   -7.1005    2.0313   -0.6816 H   0  0  0  0  0  0
   -6.8053    1.0309    0.6354 H   0  0  0  0  0  0
   -5.0513    1.4399   -1.9895 N   0  0  0  0  0  0
   -5.6100    2.0921   -2.4404 H   0  0  0  0  0  0
   -4.2290    1.1359   -2.4047 H   0  0  0  0  0  0
    2.8426    3.0079   -3.0950 H   0  0  0  0  0  0
    5.1426    3.1960   -2.2510 H   0  0  0  0  0  0
    5.6578    2.7316    0.0842 H   0  0  0  0  0  0
    0.7594    1.2255    2.9778 H   0  0  0  0  0  0
    3.0596    1.4144    3.8222 H   0  0  0  0  0  0
    4.8824    2.0686    2.3452 H   0  0  0  0  0  0
   -0.6300    0.5973   -1.6217 H   0  0  0  0  0  0
   -0.0510   -1.0032    0.8144 H   0  0  0  0  0  0
    1.9843   -2.8875    1.7158 H   0  0  0  0  0  0
    0.3241   -2.7901    1.0744 H   0  0  0  0  0  0
    1.0763   -5.1549    1.5146 H   0  0  0  0  0  0
    0.6447   -4.8637   -0.1882 H   0  0  0  0  0  0
    3.4741   -4.7927    0.9556 H   0  0  0  0  0  0
    2.7849   -6.5364   -0.0501 C   0  0  0  0  0  0
    4.1315   -4.6583   -1.4408 H   0  0  0  0  0  0
    2.4128   -4.5763   -1.8984 H   0  0  0  0  0  0
    3.3178   -2.3082   -1.8278 H   0  0  0  0  0  0
    3.9330   -2.5715   -0.1757 H   0  0  0  0  0  0
   -1.4118   -1.8423   -1.7858 H   0  0  0  0  0  0
   -1.1041   -2.8994   -0.3873 H   0  0  0  0  0  0
   -3.0810   -0.0867   -1.6714 H   0  0  0  0  0  0
   -5.8516   -0.1993    1.5990 H   0  0  0  0  0  0
   -4.4276   -1.8522    2.7346 H   0  0  0  0  0  0
   -2.3458   -2.6241    1.6748 H   0  0  0  0  0  0
    3.6571   -6.8021   -0.3166 H   0  0  0  0  0  0
    2.5502   -6.9823    0.7553 H   0  0  0  0  0  0
    2.1626   -6.7640   -0.7309 H   0  0  0  0  0  0
  1  2  1  0  0  0
  1  6  2  0  0  0
  2  3  2  0  0  0
  2 38  1  0  0  0
  3  4  1  0  0  0
  3 39  1  0  0  0
  4  5  2  0  0  0
  4 40  1  0  0  0
  5  6  1  0  0  0
  5 10  1  0  0  0
  6  7  1  0  0  0
  7  8  2  0  0  0
  7 11  1  0  0  0
  8  9  1  0  0  0
  8 41  1  0  0  0
  9 10  2  0  0  0
  9 42  1  0  0  0
 10 43  1  0  0  0
 11 12  2  0  0  0
 11 13  2  0  0  0
 11 14  1  0  0  0
 14 15  1  0  0  0
 14 44  1  0  0  0
 15 16  1  0  0  0
 15 24  1  0  0  0
 15 45  1  0  0  0
 16 17  2  0  0  0
 16 18  1  0  0  0
 18 19  1  0  0  0
 18 23  1  0  0  0
 19 20  1  0  0  0
 19 46  1  0  0  0
 19 47  1  0  0  0
 20 21  1  0  0  0
 20 48  1  0  0  0
 20 49  1  0  0  0
 21 22  1  0  0  0
 21 50  1  0  0  0
 21 51  1  0  0  0
 22 23  1  0  0  0
 22 52  1  0  0  0
 22 53  1  0  0  0
 23 54  1  0  0  0
 23 55  1  0  0  0
 24 25  1  0  0  0
 24 56  1  0  0  0
 24 57  1  0  0  0
 25 26  1  0  0  0
 25 30  2  0  0  0
 26 27  2  0  0  0
 26 58  1  0  0  0
 27 28  1  0  0  0
 27 31  1  0  0  0
 28 29  2  0  0  0
 28 59  1  0  0  0
 29 30  1  0  0  0
 29 60  1  0  0  0
 30 61  1  0  0  0
 31 32  1  0  0  0
 31 35  1  0  0  0
 32 33  1  0  0  0
 32 34  1  0  0  0
 35 36  1  0  0  0
 35 37  1  0  0  0
 51 62  1  0  0  0
 51 63  1  0  0  0
 51 64  1  0  0  0
M  CHG  1  31   1
M  END
>  <Activity>
6.469

>  <set>
2

>  <Min_dist>
0.086207

>  <Avg_dist>
0.236068

$$$$
46
  Cerius2 12110215013D 1   1.00000                          
 
 56 58  0  0  0  0  0  0  0  0999 V2000
    5.5720    2.5952    1.0350 C   0  0  0  0  0  0
    4.1156    2.3684    0.7212 C   0  0  0  0  0  0
    3.5729    2.8743   -0.4452 C   0  0  0  0  0  0
    2.2370    2.6664   -0.7330 C   0  0  0  0  0  0
    1.4438    1.9521    0.1453 C   0  0  0  0  0  0
    1.9866    1.4454    1.3113 C   0  0  0  0  0  0
    3.3236    1.6497    1.5970 C   0  0  0  0  0  0
   -0.2594    1.6880   -0.2210 S   0  0  0  0  0  0
   -0.8875    1.4312    1.0275 O   0  0  0  0  0  0
   -0.6236    2.7193   -1.1282 O   0  0  0  0  0  0
   -0.3682    0.2754   -1.0783 N   0  0  0  0  0  0
    0.0984   -0.9798   -0.4842 C   0  0  0  0  0  0
    1.2927   -1.4855   -1.2517 C   0  0  0  0  0  0
    1.4296   -1.1944   -2.4210 O   0  0  0  0  0  0
    2.2086   -2.2611   -0.6386 N   0  0  0  0  0  0
    2.1155   -2.7730    0.7365 C   0  0  0  0  0  0
    3.3979   -3.5867    1.0104 C   0  0  0  0  0  0
    4.3993   -3.0172   -0.0290 C   0  0  0  0  0  0
    3.4668   -2.7421   -1.2378 C   0  0  0  0  0  0
   -1.0227   -2.0194   -0.5424 C   0  0  0  0  0  0
   -2.2170   -1.5137    0.2251 C   0  0  0  0  0  0
   -3.1853   -0.7710   -0.4192 C   0  0  0  0  0  0
   -4.2905   -0.3041    0.2926 C   0  0  0  0  0  0
   -4.4091   -0.5917    1.6529 C   0  0  0  0  0  0
   -3.4343   -1.3351    2.2853 C   0  0  0  0  0  0
   -2.3431   -1.7998    1.5725 C   0  0  0  0  0  0
   -5.3322    0.4932   -0.3918 C   0  3  0  0  0  0
   -6.3859    0.9375    0.2902 N   0  0  0  0  0  0
   -7.0689    1.4601   -0.1585 H   0  0  0  0  0  0
   -6.4706    0.7385    1.2358 H   0  0  0  0  0  0
   -5.2160    0.7663   -1.6898 N   0  0  0  0  0  0
   -5.8989    1.2890   -2.1385 H   0  0  0  0  0  0
   -4.4484    0.4426   -2.1867 H   0  0  0  0  0  0
    5.6820    3.5205    1.6004 H   0  0  0  0  0  0
    5.9505    1.7611    1.6259 H   0  0  0  0  0  0
    6.1369    2.6679    0.1056 H   0  0  0  0  0  0
    4.1927    3.4324   -1.1315 H   0  0  0  0  0  0
    1.8129    3.0622   -1.6440 H   0  0  0  0  0  0
    1.3668    0.8877    1.9977 H   0  0  0  0  0  0
    3.7477    1.2539    2.5080 H   0  0  0  0  0  0
   -0.7408    0.2790   -1.9739 H   0  0  0  0  0  0
    0.3804   -0.8074    0.5545 H   0  0  0  0  0  0
    2.0473   -1.9414    1.4378 H   0  0  0  0  0  0
    1.2407   -3.4159    0.8343 H   0  0  0  0  0  0
    3.7553   -3.4132    2.0254 H   0  0  0  0  0  0
    3.2250   -4.6489    0.8375 H   0  0  0  0  0  0
    4.8570   -2.0967    0.3331 H   0  0  0  0  0  0
    5.1595   -3.7555   -0.2844 H   0  0  0  0  0  0
    3.2979   -3.6587   -1.8030 H   0  0  0  0  0  0
    3.8954   -1.9728   -1.8802 H   0  0  0  0  0  0
   -1.3047   -2.1918   -1.5811 H   0  0  0  0  0  0
   -0.6756   -2.9533   -0.1004 H   0  0  0  0  0  0
   -3.0876   -0.5515   -1.4721 H   0  0  0  0  0  0
   -5.2622   -0.2327    2.2095 H   0  0  0  0  0  0
   -3.5248   -1.5581    3.3382 H   0  0  0  0  0  0
   -1.5825   -2.3814    2.0722 H   0  0  0  0  0  0
  1  2  1  0  0  0
  1 34  1  0  0  0
  1 35  1  0  0  0
  1 36  1  0  0  0
  2  3  1  0  0  0
  2  7  2  0  0  0
  3  4  2  0  0  0
  3 37  1  0  0  0
  4  5  1  0  0  0
  4 38  1  0  0  0
  5  6  2  0  0  0
  5  8  1  0  0  0
  6  7  1  0  0  0
  6 39  1  0  0  0
  7 40  1  0  0  0
  8  9  2  0  0  0
  8 10  2  0  0  0
  8 11  1  0  0  0
 11 12  1  0  0  0
 11 41  1  0  0  0
 12 13  1  0  0  0
 12 20  1  0  0  0
 12 42  1  0  0  0
 13 14  2  0  0  0
 13 15  1  0  0  0
 15 16  1  0  0  0
 15 19  1  0  0  0
 16 17  1  0  0  0
 16 43  1  0  0  0
 16 44  1  0  0  0
 17 18  1  0  0  0
 17 45  1  0  0  0
 17 46  1  0  0  0
 18 19  1  0  0  0
 18 47  1  0  0  0
 18 48  1  0  0  0
 19 49  1  0  0  0
 19 50  1  0  0  0
 20 21  1  0  0  0
 20 51  1  0  0  0
 20 52  1  0  0  0
 21 22  1  0  0  0
 21 26  2  0  0  0
 22 23  2  0  0  0
 22 53  1  0  0  0
 23 24  1  0  0  0
 23 27  1  0  0  0
 24 25  2  0  0  0
 24 54  1  0  0  0
 25 26  1  0  0  0
 25 55  1  0  0  0
 26 56  1  0  0  0
 27 28  1  0  0  0
 27 31  1  0  0  0
 28 29  1  0  0  0
 28 30  1  0  0  0
 31 32  1  0  0  0
 31 33  1  0  0  0
M  CHG  1  27   1
M  END
>  <Activity>
6.456

>  <set>
2

>  <Min_dist>
0.019608

>  <Avg_dist>
0.200898

$$$$
49
  Cerius2 12110215013D 1   1.00000                          
 
 74 77  0  0  0  0  0  0  0  0999 V2000
   -2.6523    1.6635   -2.0624 C   0  0  0  0  0  0
   -3.8820    2.2188   -2.2425 C   0  0  0  0  0  0
   -4.1889    3.4700   -1.7119 C   0  0  0  0  0  0
   -3.2680    4.1733   -0.9975 C   0  0  0  0  0  0
   -1.9880    3.6324   -0.7903 C   0  0  0  0  0  0
   -1.0108    4.3289   -0.0586 C   0  0  0  0  0  0
    0.2185    3.7736    0.1215 C   0  0  0  0  0  0
    0.5256    2.5221   -0.4096 C   0  0  0  0  0  0
   -0.3950    1.8189   -1.1238 C   0  0  0  0  0  0
   -1.6757    2.3596   -1.3305 C   0  0  0  0  0  0
    2.1300    1.8404   -0.1529 S   0  0  0  0  0  0
    2.3186    0.8938   -1.1958 O   0  0  0  0  0  0
    2.9804    2.9462    0.1179 O   0  0  0  0  0  0
    2.0756    0.9607    1.2490 N   0  0  0  0  0  0
    1.1518   -0.1700    1.3689 C   0  0  0  0  0  0
    0.2002    0.0778    2.5109 C   0  0  0  0  0  0
    0.4701    0.9040    3.3567 O   0  0  0  0  0  0
   -0.9507   -0.6188    2.5923 N   0  0  0  0  0  0
   -1.3347   -1.5570    1.5288 C   0  0  0  0  0  0
   -2.7446   -1.2036    1.0448 C   0  0  0  0  0  0
   -3.6998   -1.1834    2.2403 C   0  0  0  0  0  0
   -3.2492   -0.1136    3.2376 C   0  0  0  0  0  0
   -1.8423   -0.4589    3.7491 C   0  0  0  0  0  0
   -3.2076   -2.2349    0.0483 C   0  0  0  0  0  0
   -2.4854   -3.1580   -0.2455 O   0  0  0  0  0  0
   -4.4222   -2.1280   -0.5129 O   0  0  0  0  0  0
   -4.8683   -3.1217   -1.4730 C   0  0  0  0  0  0
   -6.3909   -3.2537   -1.4003 C   0  0  0  0  0  0
   -4.4607   -2.6880   -2.8825 C   0  0  0  0  0  0
    1.9451   -1.4509    1.6348 C   0  0  0  0  0  0
    2.7991   -1.7711    0.4351 C   0  0  0  0  0  0
    4.0815   -1.2688    0.3490 C   0  0  0  0  0  0
    4.8708   -1.5665   -0.7620 C   0  0  0  0  0  0
    4.3573   -2.3712   -1.7798 C   0  0  0  0  0  0
    3.0738   -2.8672   -1.6818 C   0  0  0  0  0  0
    2.2978   -2.5725   -0.5747 C   0  0  0  0  0  0
    6.2465   -1.0309   -0.8610 C   0  3  0  0  0  0
    6.9975   -1.3168   -1.9227 N   0  0  0  0  0  0
    7.8994   -0.9656   -1.9876 H   0  0  0  0  0  0
    6.6427   -1.8762   -2.6312 H   0  0  0  0  0  0
    6.7335   -0.2629    0.1116 N   0  0  0  0  0  0
    7.6354    0.0883    0.0467 H   0  0  0  0  0  0
    6.1864   -0.0546    0.8850 H   0  0  0  0  0  0
   -2.4300    0.6909   -2.4761 H   0  0  0  0  0  0
   -4.6309    1.6816   -2.8056 H   0  0  0  0  0  0
   -5.1720    3.8882   -1.8700 H   0  0  0  0  0  0
   -3.5199    5.1423   -0.5924 H   0  0  0  0  0  0
   -1.2343    5.2998    0.3582 H   0  0  0  0  0  0
    0.9676    4.3110    0.6841 H   0  0  0  0  0  0
   -0.1426    0.8505   -1.5300 H   0  0  0  0  0  0
    2.6555    1.1939    1.9907 H   0  0  0  0  0  0
    0.5874   -0.2779    0.4426 H   0  0  0  0  0  0
   -0.6325   -1.4760    0.6990 H   0  0  0  0  0  0
   -1.3267   -2.5747    1.9189 H   0  0  0  0  0  0
   -2.7316   -0.2211    0.5729 H   0  0  0  0  0  0
   -4.7085   -0.9563    1.8953 H   0  0  0  0  0  0
   -3.6936   -2.1589    2.7266 H   0  0  0  0  0  0
   -3.2314    0.8586    2.7450 H   0  0  0  0  0  0
   -3.9432   -0.0838    4.0775 H   0  0  0  0  0  0
   -1.8786   -1.3866    4.3202 H   0  0  0  0  0  0
   -1.4755    0.3486    4.3827 H   0  0  0  0  0  0
   -4.4089   -4.0827   -1.2414 H   0  0  0  0  0  0
   -6.7258   -3.9996   -2.1211 H   0  0  0  0  0  0
   -6.6813   -3.5626   -0.3961 H   0  0  0  0  0  0
   -6.8503   -2.2927   -1.6319 H   0  0  0  0  0  0
   -4.9202   -1.7271   -3.1141 H   0  0  0  0  0  0
   -3.3760   -2.5941   -2.9343 H   0  0  0  0  0  0
   -4.7956   -3.4340   -3.6033 H   0  0  0  0  0  0
    2.5829   -1.3087    2.5072 H   0  0  0  0  0  0
    1.2549   -2.2740    1.8196 H   0  0  0  0  0  0
    4.4731   -0.6462    1.1398 H   0  0  0  0  0  0
    4.9634   -2.6050   -2.6427 H   0  0  0  0  0  0
    2.6751   -3.4899   -2.4691 H   0  0  0  0  0  0
    1.2935   -2.9632   -0.5027 H   0  0  0  0  0  0
  1  2  1  0  0  0
  1 10  2  0  0  0
  1 44  1  0  0  0
  2  3  2  0  0  0
  2 45  1  0  0  0
  3  4  1  0  0  0
  3 46  1  0  0  0
  4  5  2  0  0  0
  4 47  1  0  0  0
  5  6  1  0  0  0
  5 10  1  0  0  0
  6  7  2  0  0  0
  6 48  1  0  0  0
  7  8  1  0  0  0
  7 49  1  0  0  0
  8  9  2  0  0  0
  8 11  1  0  0  0
  9 10  1  0  0  0
  9 50  1  0  0  0
 11 12  2  0  0  0
 11 13  2  0  0  0
 11 14  1  0  0  0
 14 15  1  0  0  0
 14 51  1  0  0  0
 15 16  1  0  0  0
 15 30  1  0  0  0
 15 52  1  0  0  0
 16 17  2  0  0  0
 16 18  1  0  0  0
 18 19  1  0  0  0
 18 23  1  0  0  0
 19 20  1  0  0  0
 19 53  1  0  0  0
 19 54  1  0  0  0
 20 21  1  0  0  0
 20 24  1  0  0  0
 20 55  1  0  0  0
 21 22  1  0  0  0
 21 56  1  0  0  0
 21 57  1  0  0  0
 22 23  1  0  0  0
 22 58  1  0  0  0
 22 59  1  0  0  0
 23 60  1  0  0  0
 23 61  1  0  0  0
 24 25  2  0  0  0
 24 26  1  0  0  0
 26 27  1  0  0  0
 27 28  1  0  0  0
 27 29  1  0  0  0
 27 62  1  0  0  0
 28 63  1  0  0  0
 28 64  1  0  0  0
 28 65  1  0  0  0
 29 66  1  0  0  0
 29 67  1  0  0  0
 29 68  1  0  0  0
 30 31  1  0  0  0
 30 69  1  0  0  0
 30 70  1  0  0  0
 31 32  1  0  0  0
 31 36  2  0  0  0
 32 33  2  0  0  0
 32 71  1  0  0  0
 33 34  1  0  0  0
 33 37  1  0  0  0
 34 35  2  0  0  0
 34 72  1  0  0  0
 35 36  1  0  0  0
 35 73  1  0  0  0
 36 74  1  0  0  0
 37 38  1  0  0  0
 37 41  1  0  0  0
 38 39  1  0  0  0
 38 40  1  0  0  0
 41 42  1  0  0  0
 41 43  1  0  0  0
M  CHG  1  37   1
M  END
>  <Activity>
6.292

>  <set>
2

>  <Min_dist>
0.025641

>  <Avg_dist>
0.225179

$$$$
51
  Cerius2 12110215013D 1   1.00000                          
 
 75 79  0  0  0  0  0  0  0  0999 V2000
    2.0267   -4.6268    1.6021 C   0  0  0  0  0  0
    1.5605   -5.8979    1.7436 C   0  0  0  0  0  0
    1.0384   -6.5956    0.6564 C   0  0  0  0  0  0
    0.9790   -6.0264   -0.5787 C   0  0  0  0  0  0
    1.4503   -4.7157   -0.7634 C   0  0  0  0  0  0
    1.4059   -4.0949   -2.0236 C   0  0  0  0  0  0
    1.8719   -2.8241   -2.1648 C   0  0  0  0  0  0
    2.3945   -2.1262   -1.0774 C   0  0  0  0  0  0
    2.4539   -2.6953    0.1574 C   0  0  0  0  0  0
    1.9818   -4.0060    0.3425 C   0  0  0  0  0  0
    2.9875   -0.4827   -1.3049 S   0  0  0  0  0  0
    3.8993   -0.2504   -0.2401 O   0  0  0  0  0  0
    3.2926   -0.3704   -2.6882 O   0  0  0  0  0  0
    1.7154    0.5438   -1.0399 N   0  0  0  0  0  0
    1.0402    0.5532    0.2602 C   0  0  0  0  0  0
   -0.4126    0.1984    0.0744 C   0  0  0  0  0  0
   -0.8418   -0.0390   -1.0348 O   0  0  0  0  0  0
   -1.2349    0.1448    1.1409 N   0  0  0  0  0  0
   -0.8477    0.4094    2.5386 C   0  0  0  0  0  0
   -1.8923   -0.3538    3.3907 C   0  0  0  0  0  0
   -3.1844   -0.1490    2.5564 C   0  0  0  0  0  0
   -2.6681   -0.1809    1.1023 C   0  0  0  0  0  0
   -3.4096    0.8355    0.2728 C   0  0  0  0  0  0
   -2.8078    1.7431   -0.2506 O   0  0  0  0  0  0
   -4.7386    0.7324    0.1153 O   0  0  0  0  0  0
   -5.4531    1.7117   -0.6840 C   0  0  0  0  0  0
   -6.9210    1.3713   -0.7014 C   0  0  0  0  0  0
   -7.7621    1.8889    0.2659 C   0  0  0  0  0  0
   -9.1086    1.5766    0.2500 C   0  0  0  0  0  0
   -9.6142    0.7472   -0.7335 C   0  0  0  0  0  0
   -8.7733    0.2303   -1.7014 C   0  0  0  0  0  0
   -7.4275    0.5461   -1.6880 C   0  0  0  0  0  0
    1.1494    1.9471    0.8815 C   0  0  0  0  0  0
    2.6022    2.3019    1.0673 C   0  0  0  0  0  0
    3.2872    2.9494    0.0594 C   0  0  0  0  0  0
    4.6318    3.2775    0.2332 C   0  0  0  0  0  0
    5.2757    2.9483    1.4265 C   0  0  0  0  0  0
    4.5798    2.3010    2.4265 C   0  0  0  0  0  0
    3.2448    1.9829    2.2500 C   0  0  0  0  0  0
    5.3724    3.9714   -0.8436 C   0  3  0  0  0  0
    6.6558    4.2833   -0.6749 N   0  0  0  0  0  0
    7.1412    4.7382   -1.3808 H   0  0  0  0  0  0
    7.1053    4.0556    0.1540 H   0  0  0  0  0  0
    4.7554    4.2839   -1.9814 N   0  0  0  0  0  0
    5.2409    4.7388   -2.6873 H   0  0  0  0  0  0
    3.8204    4.0567   -2.1044 H   0  0  0  0  0  0
    2.4249   -4.0966    2.4547 H   0  0  0  0  0  0
    1.5962   -6.3728    2.7129 H   0  0  0  0  0  0
    0.6758   -7.6034    0.7956 H   0  0  0  0  0  0
    0.5720   -6.5795   -1.4123 H   0  0  0  0  0  0
    1.0044   -4.6237   -2.8754 H   0  0  0  0  0  0
    1.8367   -2.3494   -3.1343 H   0  0  0  0  0  0
    2.8621   -2.1426    0.9907 H   0  0  0  0  0  0
    1.4172    1.1389   -1.7455 H   0  0  0  0  0  0
    1.5110   -0.1763    0.9193 H   0  0  0  0  0  0
    0.1539    0.0262    2.7338 H   0  0  0  0  0  0
   -0.8938    1.4778    2.7493 H   0  0  0  0  0  0
   -1.6386   -1.4112    3.4649 H   0  0  0  0  0  0
   -1.9911    0.0931    4.3800 H   0  0  0  0  0  0
   -3.8912   -0.9593    2.7350 H   0  0  0  0  0  0
   -3.6385    0.8165    2.7794 H   0  0  0  0  0  0
   -2.8056   -1.1771    0.6819 H   0  0  0  0  0  0
   -5.3151    2.7032   -0.2527 H   0  0  0  0  0  0
   -5.0656    1.7015   -1.7028 H   0  0  0  0  0  0
   -7.3671    2.5369    1.0343 H   0  0  0  0  0  0
   -9.7655    1.9804    1.0062 H   0  0  0  0  0  0
  -10.6660    0.5026   -0.7455 H   0  0  0  0  0  0
   -9.1682   -0.4180   -2.4696 H   0  0  0  0  0  0
   -6.7706    0.1423   -2.4441 H   0  0  0  0  0  0
    0.6786    2.6765    0.2224 H   0  0  0  0  0  0
    0.6471    1.9541    1.8489 H   0  0  0  0  0  0
    2.7834    3.2013   -0.8621 H   0  0  0  0  0  0
    6.3167    3.1993    1.5669 H   0  0  0  0  0  0
    5.0771    2.0453    3.3504 H   0  0  0  0  0  0
    2.7043    1.4761    3.0358 H   0  0  0  0  0  0
  1  2  1  0  0  0
  1 10  2  0  0  0
  1 47  1  0  0  0
  2  3  2  0  0  0
  2 48  1  0  0  0
  3  4  1  0  0  0
  3 49  1  0  0  0
  4  5  2  0  0  0
  4 50  1  0  0  0
  5  6  1  0  0  0
  5 10  1  0  0  0
  6  7  2  0  0  0
  6 51  1  0  0  0
  7  8  1  0  0  0
  7 52  1  0  0  0
  8  9  2  0  0  0
  8 11  1  0  0  0
  9 10  1  0  0  0
  9 53  1  0  0  0
 11 12  2  0  0  0
 11 13  2  0  0  0
 11 14  1  0  0  0
 14 15  1  0  0  0
 14 54  1  0  0  0
 15 16  1  0  0  0
 15 33  1  0  0  0
 15 55  1  0  0  0
 16 17  2  0  0  0
 16 18  1  0  0  0
 18 19  1  0  0  0
 18 22  1  0  0  0
 19 20  1  0  0  0
 19 56  1  0  0  0
 19 57  1  0  0  0
 20 21  1  0  0  0
 20 58  1  0  0  0
 20 59  1  0  0  0
 21 22  1  0  0  0
 21 60  1  0  0  0
 21 61  1  0  0  0
 22 23  1  0  0  0
 22 62  1  0  0  0
 23 24  2  0  0  0
 23 25  1  0  0  0
 25 26  1  0  0  0
 26 27  1  0  0  0
 26 63  1  0  0  0
 26 64  1  0  0  0
 27 28  1  0  0  0
 27 32  2  0  0  0
 28 29  2  0  0  0
 28 65  1  0  0  0
 29 30  1  0  0  0
 29 66  1  0  0  0
 30 31  2  0  0  0
 30 67  1  0  0  0
 31 32  1  0  0  0
 31 68  1  0  0  0
 32 69  1  0  0  0
 33 34  1  0  0  0
 33 70  1  0  0  0
 33 71  1  0  0  0
 34 35  1  0  0  0
 34 39  2  0  0  0
 35 36  2  0  0  0
 35 72  1  0  0  0
 36 37  1  0  0  0
 36 40  1  0  0  0
 37 38  2  0  0  0
 37 73  1  0  0  0
 38 39  1  0  0  0
 38 74  1  0  0  0
 39 75  1  0  0  0
 40 41  1  0  0  0
 40 44  1  0  0  0
 41 42  1  0  0  0
 41 43  1  0  0  0
 44 45  1  0  0  0
 44 46  1  0  0  0
M  CHG  1  40   1
M  END
>  <Activity>
6.201

>  <set>
2

>  <Min_dist>
0.040984

>  <Avg_dist>
0.25691

$$$$
54
  Cerius2 12110215013D 1   1.00000                          
 
 99102  0  0  0  0  0  0  0  0999 V2000
    3.2264   -3.5740   -0.3859 C   0  0  0  0  0  0
    1.9504   -3.1772    0.3109 C   0  0  0  0  0  0
    1.7671   -1.8716    0.7265 C   0  0  0  0  0  0
    0.5968   -1.5076    1.3657 C   0  0  0  0  0  0
   -0.3906   -2.4491    1.5888 C   0  0  0  0  0  0
   -0.2077   -3.7544    1.1724 C   0  0  0  0  0  0
    0.9609   -4.1174    0.5293 C   0  0  0  0  0  0
   -1.2838   -4.7809    1.4161 C   0  0  0  0  0  0
   -1.7567   -5.3516    0.0776 C   0  0  0  0  0  0
   -0.7241   -5.9106    2.2830 C   0  0  0  0  0  0
    0.3974   -0.0845    1.8197 C   0  0  0  0  0  0
   -1.0971    0.2435    1.8282 C   0  0  0  0  0  0
    0.9647    0.0849    3.2306 C   0  0  0  0  0  0
    3.0256   -0.6716    0.4421 S   0  0  0  0  0  0
    2.7309    0.4110    1.3141 O   0  0  0  0  0  0
    4.2487   -1.3944    0.4126 O   0  0  0  0  0  0
    2.8126   -0.0848   -1.0917 N   0  0  0  0  0  0
    1.5587    0.5808   -1.4538 C   0  0  0  0  0  0
    0.9041   -0.1642   -2.5885 C   0  0  0  0  0  0
    1.5387   -0.9777   -3.2259 O   0  0  0  0  0  0
   -0.3866    0.0737   -2.8951 N   0  0  0  0  0  0
   -1.1378    1.1303   -2.2036 C   0  0  0  0  0  0
   -2.4220    0.5258   -1.6273 C   0  0  0  0  0  0
   -3.2689    1.6199   -1.0299 C   0  0  0  0  0  0
   -2.8860    2.7654   -1.0611 O   0  0  0  0  0  0
   -4.4485    1.3217   -0.4630 O   0  0  0  0  0  0
   -5.2645    2.3758    0.1126 C   0  0  0  0  0  0
   -6.5276    1.7805    0.6793 C   0  0  0  0  0  0
   -6.5614    1.3538    1.9938 C   0  0  0  0  0  0
   -7.7200    0.8077    2.5136 C   0  0  0  0  0  0
   -8.8450    0.6887    1.7191 C   0  0  0  0  0  0
   -8.8115    1.1161    0.4049 C   0  0  0  0  0  0
   -7.6541    1.6662   -0.1136 C   0  0  0  0  0  0
   -3.2007   -0.1694   -2.7464 C   0  0  0  0  0  0
   -2.3541   -1.3020   -3.3318 C   0  0  0  0  0  0
   -1.0675   -0.7145   -3.9313 C   0  0  0  0  0  0
    1.8514    2.0181   -1.8889 C   0  0  0  0  0  0
    2.3692    2.8037   -0.7117 C   0  0  0  0  0  0
    3.7247    2.8492   -0.4568 C   0  0  0  0  0  0
    4.2024    3.5772    0.6330 C   0  0  0  0  0  0
    3.3051    4.2553    1.4589 C   0  0  0  0  0  0
    1.9524    4.2020    1.1934 C   0  0  0  0  0  0
    1.4853    3.4824    0.1077 C   0  0  0  0  0  0
    5.6545    3.6298    0.9123 C   0  3  0  0  0  0
    6.1075    4.3255    1.9532 N   0  0  0  0  0  0
    7.0594    4.3599    2.1363 H   0  0  0  0  0  0
    5.4855    4.7979    2.5285 H   0  0  0  0  0  0
    6.5082    2.9813    0.1227 N   0  0  0  0  0  0
    7.4602    3.0157    0.3058 H   0  0  0  0  0  0
    6.1782    2.4744   -0.6357 H   0  0  0  0  0  0
    4.1448   -4.2944    0.6032 C   0  0  0  0  0  0
    2.9008   -4.5083   -1.5530 C   0  0  0  0  0  0
    3.7269   -2.6822   -0.7631 H   0  0  0  0  0  0
   -1.3047   -2.1648    2.0889 H   0  0  0  0  0  0
    1.1038   -5.1373    0.2039 H   0  0  0  0  0  0
   -2.1239   -4.3120    1.9283 H   0  0  0  0  0  0
   -2.5350   -6.0941    0.2539 H   0  0  0  0  0  0
   -2.1555   -4.5468   -0.5400 H   0  0  0  0  0  0
   -0.9166   -5.8206   -0.4346 H   0  0  0  0  0  0
    0.1161   -6.3795    1.7708 H   0  0  0  0  0  0
   -0.3871   -5.5040    3.2365 H   0  0  0  0  0  0
   -1.5024   -6.6530    2.4593 H   0  0  0  0  0  0
    0.9136    0.5904    1.1371 H   0  0  0  0  0  0
   -1.4891    0.1783    0.8132 H   0  0  0  0  0  0
   -1.6215   -0.4675    2.4666 H   0  0  0  0  0  0
   -1.2452    1.2533    2.2107 H   0  0  0  0  0  0
    2.0293   -0.1487    3.2245 H   0  0  0  0  0  0
    0.8204    1.1142    3.5589 H   0  0  0  0  0  0
    0.4484   -0.5900    3.9132 H   0  0  0  0  0  0
    3.5180   -0.1817   -1.7504 H   0  0  0  0  0  0
    0.8908    0.5907   -0.5925 H   0  0  0  0  0  0
   -0.5321    1.5401   -1.3953 H   0  0  0  0  0  0
   -1.3910    1.9208   -2.9101 H   0  0  0  0  0  0
   -2.1677   -0.2002   -0.8551 H   0  0  0  0  0  0
   -4.7084    2.8725    0.9076 H   0  0  0  0  0  0
   -5.5195    3.1009   -0.6602 H   0  0  0  0  0  0
   -5.6825    1.4469    2.6145 H   0  0  0  0  0  0
   -7.7462    0.4738    3.5403 H   0  0  0  0  0  0
   -9.7500    0.2614    2.1251 H   0  0  0  0  0  0
   -9.6903    1.0228   -0.2159 H   0  0  0  0  0  0
   -7.6279    2.0002   -1.1404 H   0  0  0  0  0  0
   -4.1270   -0.5793   -2.3438 H   0  0  0  0  0  0
   -3.4332    0.5522   -3.5295 H   0  0  0  0  0  0
   -2.1004   -2.0112   -2.5439 H   0  0  0  0  0  0
   -2.9183   -1.8117   -4.1128 H   0  0  0  0  0  0
   -1.3176   -0.0758   -4.7785 H   0  0  0  0  0  0
   -0.4154   -1.5234   -4.2609 H   0  0  0  0  0  0
    2.6010    2.0127   -2.6802 H   0  0  0  0  0  0
    0.9357    2.4793   -2.2590 H   0  0  0  0  0  0
    4.4141    2.3219   -1.0995 H   0  0  0  0  0  0
    3.6688    4.8204    2.3043 H   0  0  0  0  0  0
    1.2569    4.7262    1.8321 H   0  0  0  0  0  0
    0.4254    3.4437   -0.0959 H   0  0  0  0  0  0
    5.0677   -4.5815    0.0992 H   0  0  0  0  0  0
    4.3767   -3.6288    1.4346 H   0  0  0  0  0  0
    3.6443   -5.1862    0.9804 H   0  0  0  0  0  0
    2.4003   -5.4001   -1.1758 H   0  0  0  0  0  0
    2.2465   -3.9951   -2.2576 H   0  0  0  0  0  0
    3.8237   -4.7953   -2.0570 H   0  0  0  0  0  0
  1  2  1  0  0  0
  1 51  1  0  0  0
  1 52  1  0  0  0
  1 53  1  0  0  0
  2  3  1  0  0  0
  2  7  2  0  0  0
  3  4  2  0  0  0
  3 14  1  0  0  0
  4  5  1  0  0  0
  4 11  1  0  0  0
  5  6  2  0  0  0
  5 54  1  0  0  0
  6  7  1  0  0  0
  6  8  1  0  0  0
  7 55  1  0  0  0
  8  9  1  0  0  0
  8 10  1  0  0  0
  8 56  1  0  0  0
  9 57  1  0  0  0
  9 58  1  0  0  0
  9 59  1  0  0  0
 10 60  1  0  0  0
 10 61  1  0  0  0
 10 62  1  0  0  0
 11 12  1  0  0  0
 11 13  1  0  0  0
 11 63  1  0  0  0
 12 64  1  0  0  0
 12 65  1  0  0  0
 12 66  1  0  0  0
 13 67  1  0  0  0
 13 68  1  0  0  0
 13 69  1  0  0  0
 14 15  2  0  0  0
 14 16  2  0  0  0
 14 17  1  0  0  0
 17 18  1  0  0  0
 17 70  1  0  0  0
 18 19  1  0  0  0
 18 37  1  0  0  0
 18 71  1  0  0  0
 19 20  2  0  0  0
 19 21  1  0  0  0
 21 22  1  0  0  0
 21 36  1  0  0  0
 22 23  1  0  0  0
 22 72  1  0  0  0
 22 73  1  0  0  0
 23 24  1  0  0  0
 23 34  1  0  0  0
 23 74  1  0  0  0
 24 25  2  0  0  0
 24 26  1  0  0  0
 26 27  1  0  0  0
 27 28  1  0  0  0
 27 75  1  0  0  0
 27 76  1  0  0  0
 28 29  1  0  0  0
 28 33  2  0  0  0
 29 30  2  0  0  0
 29 77  1  0  0  0
 30 31  1  0  0  0
 30 78  1  0  0  0
 31 32  2  0  0  0
 31 79  1  0  0  0
 32 33  1  0  0  0
 32 80  1  0  0  0
 33 81  1  0  0  0
 34 35  1  0  0  0
 34 82  1  0  0  0
 34 83  1  0  0  0
 35 36  1  0  0  0
 35 84  1  0  0  0
 35 85  1  0  0  0
 36 86  1  0  0  0
 36 87  1  0  0  0
 37 38  1  0  0  0
 37 88  1  0  0  0
 37 89  1  0  0  0
 38 39  1  0  0  0
 38 43  2  0  0  0
 39 40  2  0  0  0
 39 90  1  0  0  0
 40 41  1  0  0  0
 40 44  1  0  0  0
 41 42  2  0  0  0
 41 91  1  0  0  0
 42 43  1  0  0  0
 42 92  1  0  0  0
 43 93  1  0  0  0
 44 45  1  0  0  0
 44 48  1  0  0  0
 45 46  1  0  0  0
 45 47  1  0  0  0
 48 49  1  0  0  0
 48 50  1  0  0  0
 51 94  1  0  0  0
 51 95  1  0  0  0
 51 96  1  0  0  0
 52 97  1  0  0  0
 52 98  1  0  0  0
 52 99  1  0  0  0
M  CHG  1  44   1
M  END
>  <Activity>
6.046

>  <set>
2

>  <Min_dist>
0.102941

>  <Avg_dist>
0.302317

$$$$
56
  Cerius2 12110215013D 1   1.00000                          
Structure written by Cerius2 SD Exporter
 61 62  0  0  0  0  0  0  0  0999 V2000
    5.4663  -10.0397   12.3638 C   0  0  0  0  0  0
    4.8503  -10.7114   13.1762 O   0  0  0  0  0  0
    6.6747   -9.4750   12.5947 O   0  0  0  0  0  0
    7.2932   -9.7090   13.8831 C   0  0  0  0  0  0
    6.4310   -9.0606   15.0058 C   0  0  0  0  0  0
    7.5972  -11.2245   14.0877 C   0  0  0  0  0  0
    8.6717   -8.9773   13.8932 C   0  0  0  0  0  0
    9.5535   -4.1358   11.4879 C   0  0  0  0  0  0
    5.4810   -7.5571   10.4451 C   0  0  0  0  0  0
    5.7144   -9.0248   10.1462 C   0  0  0  0  0  0
    5.3138   -9.3702    8.6817 C   0  0  0  0  0  0
    4.0436   -8.6437    8.2077 C   0  0  0  0  0  0
    2.8018   -9.2861    8.2105 C   0  0  0  0  0  0
    4.1323   -7.3288    7.7388 C   0  0  0  0  0  0
    1.6295   -8.6456    7.7729 C   0  0  0  0  0  0
    2.9867   -6.6758    7.2845 C   0  0  0  0  0  0
    1.7457   -7.3160    7.3367 C   0  0  0  0  0  0
    0.2909   -9.3719    7.7649 C   0  3  0  0  0  0
    4.4544   -7.3243   11.0649 O   0  0  0  0  0  0
    4.9628   -9.8074   11.1259 N   0  0  0  0  0  0
   -0.7982   -8.7658    7.3511 N   0  0  0  0  0  0
    0.1909  -10.6186    8.1665 N   0  0  0  0  0  0
    6.3129   -6.5467   10.0584 N   0  0  0  0  0  0
    7.5852   -6.7927    9.3738 C   0  0  0  0  0  0
    8.7098   -6.2176   10.2695 C   0  0  0  0  0  0
    8.4326   -4.7233   10.5897 C   0  0  0  0  0  0
    7.0437   -4.5783   11.2705 C   0  0  0  0  0  0
    5.9421   -5.1591   10.3512 C   0  0  0  0  0  0
    6.2917   -8.1420   14.8075 H   0  0  0  0  0  0
    5.5925   -9.5042   15.0572 H   0  0  0  0  0  0
    6.8828   -9.1400   15.8377 H   0  0  0  0  0  0
    8.1246  -11.5422   13.3642 H   0  0  0  0  0  0
    8.0713  -11.3453   14.9021 H   0  0  0  0  0  0
    6.7810  -11.7095   14.1215 H   0  0  0  0  0  0
    9.2305   -9.3453   13.2188 H   0  0  0  0  0  0
    8.5401   -8.0516   13.7250 H   0  0  0  0  0  0
    9.0836   -9.0896   14.7419 H   0  0  0  0  0  0
    9.3659   -3.2229   11.6720 H   0  0  0  0  0  0
    9.5932   -4.6217   12.3033 H   0  0  0  0  0  0
   10.3876   -4.2032   11.0382 H   0  0  0  0  0  0
    6.6392   -9.2114   10.2574 H   0  0  0  0  0  0
    6.0188   -9.1245    8.0942 H   0  0  0  0  0  0
    5.1730  -10.3074    8.6158 H   0  0  0  0  0  0
    2.7319  -10.1834    8.5147 H   0  0  0  0  0  0
    4.9712   -6.8831    7.7304 H   0  0  0  0  0  0
    3.0487   -5.7933    6.9383 H   0  0  0  0  0  0
    0.9716   -6.8342    7.0699 H   0  0  0  0  0  0
    4.1565  -10.1366   10.8990 H   0  0  0  0  0  0
    7.7028   -7.7273    9.2503 H   0  0  0  0  0  0
    7.5879   -6.3535    8.5314 H   0  0  0  0  0  0
    8.7484   -6.7071   11.0828 H   0  0  0  0  0  0
    9.5418   -6.2932    9.8172 H   0  0  0  0  0  0
    8.4182   -4.2390    9.7725 H   0  0  0  0  0  0
    7.0443   -5.0503   12.0950 H   0  0  0  0  0  0
    6.8666   -3.6593   11.4333 H   0  0  0  0  0  0
    5.8891   -4.6676    9.5400 H   0  0  0  0  0  0
    5.1039   -5.1363   10.7977 H   0  0  0  0  0  0
   -0.7583   -7.9123    7.0682 H   0  0  0  0  0  0
   -1.5843   -9.2039    7.3503 H   0  0  0  0  0  0
    0.9216  -11.0590    8.4532 H   0  0  0  0  0  0
   -0.6083  -11.0323    8.1550 H   0  0  0  0  0  0
  1  2  2  0  0  0
  1  3  1  0  0  0
  3  4  1  0  0  0
  4  5  1  0  0  0
  4  6  1  0  0  0
  4  7  1  0  0  0
  5 29  1  0  0  0
  5 30  1  0  0  0
  5 31  1  0  0  0
  6 32  1  0  0  0
  6 33  1  0  0  0
  6 34  1  0  0  0
  7 35  1  0  0  0
  7 36  1  0  0  0
  7 37  1  0  0  0
  8 38  1  0  0  0
  8 39  1  0  0  0
  8 40  1  0  0  0
  9 19  2  0  0  0
  9 23  1  0  0  0
 10  9  1  0  0  0
 10 20  1  0  0  0
 10 41  1  0  0  0
 11 10  1  0  0  0
 11 42  1  0  0  0
 11 43  1  0  0  0
 12 11  1  0  0  0
 12 14  1  0  0  0
 13 12  2  0  0  0
 13 44  1  0  0  0
 14 45  1  0  0  0
 15 13  1  0  0  0
 15 17  2  0  0  0
 16 14  2  0  0  0
 16 46  1  0  0  0
 17 16  1  0  0  0
 17 47  1  0  0  0
 18 15  1  0  0  0
 18 21  1  0  0  0
 18 22  1  0  0  0
 20  1  1  0  0  0
 20 48  1  0  0  0
 21 58  1  0  0  0
 21 59  1  0  0  0
 22 60  1  0  0  0
 22 61  1  0  0  0
 23 28  1  0  0  0
 24 23  1  0  0  0
 24 49  1  0  0  0
 24 50  1  0  0  0
 25 24  1  0  0  0
 25 51  1  0  0  0
 25 52  1  0  0  0
 26  8  1  0  0  0
 26 25  1  0  0  0
 26 27  1  0  0  0
 26 53  1  0  0  0
 27 28  1  0  0  0
 27 54  1  0  0  0
 27 55  1  0  0  0
 28 56  1  0  0  0
 28 57  1  0  0  0
M  CHG  1  18   1
M  END
>  <Activity>
5.921

>  <set>
2

>  <Min_dist>
0.277778

>  <Avg_dist>
0.445033

$$$$
58
  Cerius2 12110215013D 1   1.00000                          
Structure written by Cerius2 SD Exporter
 81 85  0  0  0  0  0  0  0  0999 V2000
    3.8481   -6.3786   15.2935 C   0  0  0  0  0  0
    4.0152   -5.1606   15.9653 C   0  0  0  0  0  0
    5.2834   -4.5862   16.0437 C   0  0  0  0  0  0
    6.3666   -5.2448   15.4603 C   0  0  0  0  0  0
    9.4787   -4.2956   11.6158 C   0  0  0  0  0  0
    5.6519  -10.4436   12.6144 S   0  0  0  0  0  0
    6.9461  -11.0295   12.3202 O   0  0  0  0  0  0
    4.6577  -11.2143   13.3340 O   0  0  0  0  0  0
    7.2942   -7.0846   14.1597 C   0  0  0  0  0  0
    7.1491   -8.3108   13.5111 C   0  0  0  0  0  0
    5.8836   -8.8961   13.4543 C   0  0  0  0  0  0
    4.7834   -8.2519   14.0286 C   0  0  0  0  0  0
    4.9347   -7.0287   14.6960 C   0  0  0  0  0  0
    6.2074   -6.4513   14.7697 C   0  0  0  0  0  0
    5.4829   -7.5608   10.4771 C   0  0  0  0  0  0
    5.7303   -9.0277   10.1873 C   0  0  0  0  0  0
    5.3714   -9.3996    8.7171 C   0  0  0  0  0  0
    4.1016   -8.6782    8.2276 C   0  0  0  0  0  0
    2.8629   -9.3356    8.1991 C   0  0  0  0  0  0
    4.1877   -7.3563    7.7890 C   0  0  0  0  0  0
    1.6718   -8.6761    7.8408 C   0  0  0  0  0  0
    3.0240   -6.6776    7.4217 C   0  0  0  0  0  0
    1.7825   -7.3183    7.5079 C   0  0  0  0  0  0
    0.3207   -9.3983    7.8109 C   0  3  0  0  0  0
    4.4702   -7.3398   11.1232 O   0  0  0  0  0  0
    4.9373   -9.8199   11.1214 N   0  0  0  0  0  0
   -0.7828   -8.7707    7.4743 N   0  0  0  0  0  0
    0.2085  -10.6682    8.1183 N   0  0  0  0  0  0
    6.2886   -6.5391   10.0606 N   0  0  0  0  0  0
    7.5522   -6.7673    9.3544 C   0  0  0  0  0  0
    8.6695   -6.2399   10.2832 C   0  0  0  0  0  0
    8.4054   -4.7560   10.6582 C   0  0  0  0  0  0
    7.0029   -4.5769   11.2980 C   0  0  0  0  0  0
    5.9101   -5.1577   10.3690 C   0  0  0  0  0  0
   10.2216   -3.3737   11.3015 O   0  0  0  0  0  0
    9.5646   -4.9750   12.7742 O   0  0  0  0  0  0
   10.5554   -4.4994   13.7167 C   0  0  0  0  0  0
   11.1483   -5.7258   14.4636 C   0  0  0  0  0  0
   12.2436   -5.2729   15.4591 C   0  0  0  0  0  0
   11.6312   -4.2844   16.4853 C   0  0  0  0  0  0
   11.0180   -3.0502   15.7617 C   0  0  0  0  0  0
    9.9509   -3.4949   14.7347 C   0  0  0  0  0  0
    2.9871   -6.7763   15.2380 H   0  0  0  0  0  0
    3.2672   -4.7314   16.3638 H   0  0  0  0  0  0
    5.4021   -3.7562   16.4903 H   0  0  0  0  0  0
    7.2391   -4.8750   15.5267 H   0  0  0  0  0  0
    8.1447   -6.6627   14.1933 H   0  0  0  0  0  0
    7.9042   -8.7325   13.1179 H   0  0  0  0  0  0
    3.9197   -8.6430   13.9692 H   0  0  0  0  0  0
    6.6500   -9.2159   10.3330 H   0  0  0  0  0  0
    6.0889   -9.1551    8.1444 H   0  0  0  0  0  0
    5.2357  -10.3381    8.6596 H   0  0  0  0  0  0
    2.8085  -10.2564    8.4263 H   0  0  0  0  0  0
    5.0331   -6.9255    7.7422 H   0  0  0  0  0  0
    3.0746   -5.7805    7.1131 H   0  0  0  0  0  0
    1.0012   -6.8068    7.3334 H   0  0  0  0  0  0
    4.0745   -9.9900   10.9302 H   0  0  0  0  0  0
   -0.7553   -7.8983    7.2550 H   0  0  0  0  0  0
   -1.5665   -9.2131    7.4630 H   0  0  0  0  0  0
    0.9374  -11.1401    8.3550 H   0  0  0  0  0  0
   -0.5975  -11.0679    8.0925 H   0  0  0  0  0  0
    7.6581   -7.6964    9.1871 H   0  0  0  0  0  0
    7.5575   -6.2870    8.5348 H   0  0  0  0  0  0
    8.6930   -6.7605   11.0775 H   0  0  0  0  0  0
    9.5061   -6.3075    9.8382 H   0  0  0  0  0  0
    8.4518   -4.2281    9.8697 H   0  0  0  0  0  0
    6.9747   -5.0316   12.1317 H   0  0  0  0  0  0
    6.8372   -3.6521   11.4385 H   0  0  0  0  0  0
    5.8566   -4.6567    9.5636 H   0  0  0  0  0  0
    5.0701   -5.1452   10.8126 H   0  0  0  0  0  0
   11.2520   -4.0671   13.2367 H   0  0  0  0  0  0
   10.4581   -6.1685   14.9432 H   0  0  0  0  0  0
   11.5266   -6.3259   13.8317 H   0  0  0  0  0  0
   12.5891   -6.0307   15.9161 H   0  0  0  0  0  0
   12.9449   -4.8425   14.9843 H   0  0  0  0  0  0
   10.9473   -4.7227   16.9779 H   0  0  0  0  0  0
   12.3097   -3.9924   17.0827 H   0  0  0  0  0  0
   10.6097   -2.4787   16.4013 H   0  0  0  0  0  0
   11.7074   -2.5758   15.3121 H   0  0  0  0  0  0
    9.6315   -2.7290   14.2723 H   0  0  0  0  0  0
    9.2286   -3.9088   15.1923 H   0  0  0  0  0  0
  1  2  2  0  0  0
  1 43  1  0  0  0
  2  3  1  0  0  0
  2 44  1  0  0  0
  3  4  2  0  0  0
  3 45  1  0  0  0
  4 46  1  0  0  0
  5 35  2  0  0  0
  5 36  1  0  0  0
  6  7  2  0  0  0
  6  8  2  0  0  0
  6 11  1  0  0  0
  9 10  1  0  0  0
  9 14  2  0  0  0
  9 47  1  0  0  0
 10 48  1  0  0  0
 11 10  2  0  0  0
 12 11  1  0  0  0
 12 49  1  0  0  0
 13  1  1  0  0  0
 13 12  2  0  0  0
 14  4  1  0  0  0
 14 13  1  0  0  0
 15 25  2  0  0  0
 15 29  1  0  0  0
 16 15  1  0  0  0
 16 26  1  0  0  0
 16 50  1  0  0  0
 17 16  1  0  0  0
 17 51  1  0  0  0
 17 52  1  0  0  0
 18 17  1  0  0  0
 18 20  1  0  0  0
 19 18  2  0  0  0
 19 53  1  0  0  0
 20 54  1  0  0  0
 21 19  1  0  0  0
 21 23  2  0  0  0
 22 20  2  0  0  0
 22 55  1  0  0  0
 23 22  1  0  0  0
 23 56  1  0  0  0
 24 21  1  0  0  0
 24 27  1  0  0  0
 24 28  1  0  0  0
 26  6  1  0  0  0
 26 57  1  0  0  0
 27 58  1  0  0  0
 27 59  1  0  0  0
 28 60  1  0  0  0
 28 61  1  0  0  0
 29 34  1  0  0  0
 30 29  1  0  0  0
 30 62  1  0  0  0
 30 63  1  0  0  0
 31 30  1  0  0  0
 31 64  1  0  0  0
 31 65  1  0  0  0
 32  5  1  0  0  0
 32 31  1  0  0  0
 32 33  1  0  0  0
 32 66  1  0  0  0
 33 34  1  0  0  0
 33 67  1  0  0  0
 33 68  1  0  0  0
 34 69  1  0  0  0
 34 70  1  0  0  0
 36 37  1  0  0  0
 37 38  1  0  0  0
 37 42  1  0  0  0
 37 71  1  0  0  0
 38 72  1  0  0  0
 38 73  1  0  0  0
 39 38  1  0  0  0
 39 74  1  0  0  0
 39 75  1  0  0  0
 40 39  1  0  0  0
 40 76  1  0  0  0
 40 77  1  0  0  0
 41 40  1  0  0  0
 41 78  1  0  0  0
 41 79  1  0  0  0
 42 41  1  0  0  0
 42 80  1  0  0  0
 42 81  1  0  0  0
M  CHG  1  24   1
M  END
>  <Activity>
5.678

>  <set>
2

>  <Min_dist>
0.073171

>  <Avg_dist>
0.248521

$$$$
61
  Cerius2 12110215013D 1   1.00000                          
Structure written by Cerius2 SD Exporter
 79 83  0  0  0  0  0  0  0  0999 V2000
   -1.8961    2.7611   -2.1732 C   0  0  0  0  0  0
   -3.0538    3.4545   -2.3520 C   0  0  0  0  0  0
   -3.5222    4.3323   -1.3767 C   0  0  0  0  0  0
   -2.8359    4.5218   -0.2164 C   0  0  0  0  0  0
   -1.6370    3.8232    0.0041 C   0  0  0  0  0  0
   -0.9006    3.9930    1.1891 C   0  0  0  0  0  0
    0.2568    3.2996    1.3678 C   0  0  0  0  0  0
    0.7254    2.4217    0.3920 C   0  0  0  0  0  0
    0.0394    2.2323   -0.7680 C   0  0  0  0  0  0
   -1.1603    2.9304   -0.9883 C   0  0  0  0  0  0
    2.2291    1.5444    0.6640 S   0  0  0  0  0  0
    2.7059    1.1863   -0.6258 O   0  0  0  0  0  0
    2.9496    2.3023    1.6261 O   0  0  0  0  0  0
    1.8420    0.1188    1.4125 N   0  0  0  0  0  0
    0.9510   -0.8375    0.7508 C   0  0  0  0  0  0
   -0.2684   -1.0634    1.6070 C   0  0  0  0  0  0
   -0.2585   -0.7360    2.7748 O   0  0  0  0  0  0
   -1.3700   -1.6291    1.0751 N   0  0  0  0  0  0
   -2.5419   -1.9177    1.9137 C   0  0  0  0  0  0
   -3.7684   -1.2382    1.2925 C   0  0  0  0  0  0
   -3.9362   -1.7127   -0.2022 C   0  0  0  0  0  0
   -5.1317   -1.4806   -0.7796 C   0  0  0  0  0  0
   -5.2836   -1.6892   -1.9678 O   0  0  0  0  0  0
   -6.1587   -1.0174   -0.0401 N   0  0  0  0  0  0
   -2.6476   -1.2883   -0.9753 C   0  0  0  0  0  0
   -1.4231   -1.9627   -0.3552 C   0  0  0  0  0  0
    1.6858   -2.1644    0.5498 C   0  0  0  0  0  0
    2.8644   -1.9523   -0.3651 C   0  0  0  0  0  0
    4.0941   -1.6159    0.1630 C   0  0  0  0  0  0
    5.1842   -1.4203   -0.6852 C   0  0  0  0  0  0
    5.0233   -1.5665   -2.0636 C   0  0  0  0  0  0
    3.7887   -1.9030   -2.5790 C   0  0  0  0  0  0
    2.7126   -2.1008   -1.7320 C   0  0  0  0  0  0
    6.5055   -1.0590   -0.1257 C   0  3  0  0  0  0
    7.5441   -0.8730   -0.9379 N   0  0  0  0  0  0
    8.4103   -0.6361   -0.5711 H   0  0  0  0  0  0
    7.4346   -0.9744   -1.8963 H   0  0  0  0  0  0
    6.6559   -0.9198    1.1899 N   0  0  0  0  0  0
    7.5221   -0.6830    1.5567 H   0  0  0  0  0  0
   -1.5474    2.0809   -2.9362 H   0  0  0  0  0  0
   -3.6175    3.3225   -3.2637 H   0  0  0  0  0  0
   -4.4433    4.8708   -1.5438 H   0  0  0  0  0  0
   -3.2109    5.2057    0.5306 H   0  0  0  0  0  0
   -1.2511    4.6704    1.9537 H   0  0  0  0  0  0
    0.8207    3.4320    2.2793 H   0  0  0  0  0  0
    0.4151    1.5492   -1.5155 H   0  0  0  0  0  0
    2.2052   -0.0831    2.2889 H   0  0  0  0  0  0
    0.6465   -0.4405   -0.2176 H   0  0  0  0  0  0
   -2.7036   -2.9947    1.9581 H   0  0  0  0  0  0
   -2.3776   -1.5283    2.9184 H   0  0  0  0  0  0
   -4.6729   -1.5945    1.7854 H   0  0  0  0  0  0
   -3.6865   -0.1576    1.4096 H   0  0  0  0  0  0
   -2.8119   -1.6777   -1.9800 H   0  0  0  0  0  0
   -2.4859   -0.2113   -1.0197 H   0  0  0  0  0  0
   -0.5194   -1.6055   -0.8490 H   0  0  0  0  0  0
   -1.5032   -3.0436   -0.4705 H   0  0  0  0  0  0
    2.0358   -2.5355    1.5131 H   0  0  0  0  0  0
    1.0069   -2.8919    0.1050 H   0  0  0  0  0  0
    4.2123   -1.5039    1.2306 H   0  0  0  0  0  0
    5.8633   -1.4161   -2.7255 H   0  0  0  0  0  0
    3.6628   -2.0161   -3.6457 H   0  0  0  0  0  0
    1.7481   -2.3641   -2.1404 H   0  0  0  0  0  0
    5.9539   -1.0454    1.7389 H   0  0  0  0  0  0
   -4.0955   -2.6481   -0.2482 H   0  0  0  0  0  0
   -8.3931   -0.8094   -0.0273 C   0  0  0  0  0  0
   -7.2434   -0.8625   -0.8248 C   0  0  0  0  0  0
   -9.6462   -0.6255   -0.6138 C   0  0  0  0  0  0
  -10.7942   -0.5651    0.1878 C   0  0  0  0  0  0
  -10.6813   -0.6872    1.5783 C   0  0  0  0  0  0
   -9.4256   -0.8703    2.1659 C   0  0  0  0  0  0
   -8.2782   -0.9314    1.3648 C   0  0  0  0  0  0
   -7.3076   -1.5965   -1.4245 H   0  0  0  0  0  0
   -7.1636   -0.0554   -1.3196 H   0  0  0  0  0  0
   -9.7215   -0.5413   -1.5571 H   0  0  0  0  0  0
  -11.6470   -0.4415   -0.2123 H   0  0  0  0  0  0
  -11.4583   -0.6457    2.1234 H   0  0  0  0  0  0
   -9.3502   -0.9533    3.1093 H   0  0  0  0  0  0
   -7.4240   -1.0551    1.7619 H   0  0  0  0  0  0
   -6.0463   -0.8630    0.8394 H   0  0  0  0  0  0
  1  2  1  0  0  0
  1 10  2  0  0  0
  1 40  1  0  0  0
  2  3  2  0  0  0
  2 41  1  0  0  0
  3  4  1  0  0  0
  3 42  1  0  0  0
  4  5  2  0  0  0
  4 43  1  0  0  0
  5  6  1  0  0  0
  5 10  1  0  0  0
  6  7  2  0  0  0
  6 44  1  0  0  0
  7  8  1  0  0  0
  7 45  1  0  0  0
  8  9  2  0  0  0
  8 11  1  0  0  0
  9 10  1  0  0  0
  9 46  1  0  0  0
 11 12  2  0  0  0
 11 13  2  0  0  0
 11 14  1  0  0  0
 14 15  1  0  0  0
 14 47  1  0  0  0
 15 16  1  0  0  0
 15 27  1  0  0  0
 15 48  1  0  0  0
 16 17  2  0  0  0
 16 18  1  0  0  0
 18 19  1  0  0  0
 18 26  1  0  0  0
 19 20  1  0  0  0
 19 49  1  0  0  0
 19 50  1  0  0  0
 20 21  1  0  0  0
 20 51  1  0  0  0
 20 52  1  0  0  0
 21 22  1  0  0  0
 21 25  1  0  0  0
 21 64  1  0  0  0
 22 23  2  0  0  0
 22 24  1  0  0  0
 24 66  1  0  0  0
 24 79  1  0  0  0
 25 26  1  0  0  0
 25 53  1  0  0  0
 25 54  1  0  0  0
 26 55  1  0  0  0
 26 56  1  0  0  0
 27 28  1  0  0  0
 27 57  1  0  0  0
 27 58  1  0  0  0
 28 29  1  0  0  0
 28 33  2  0  0  0
 29 30  2  0  0  0
 29 59  1  0  0  0
 30 31  1  0  0  0
 30 34  1  0  0  0
 31 32  2  0  0  0
 31 60  1  0  0  0
 32 33  1  0  0  0
 32 61  1  0  0  0
 33 62  1  0  0  0
 34 35  1  0  0  0
 34 38  1  0  0  0
 35 36  1  0  0  0
 35 37  1  0  0  0
 38 39  1  0  0  0
 38 63  1  0  0  0
 65 66  1  0  0  0
 65 67  1  0  0  0
 65 71  2  0  0  0
 66 72  1  0  0  0
 66 73  1  0  0  0
 67 68  2  0  0  0
 67 74  1  0  0  0
 68 69  1  0  0  0
 68 75  1  0  0  0
 69 70  2  0  0  0
 69 76  1  0  0  0
 70 71  1  0  0  0
 70 77  1  0  0  0
 71 78  1  0  0  0
M  CHG  1  34   1
M  END
>  <Activity>
5.509

>  <set>
2

>  <Min_dist>
0.041322

>  <Avg_dist>
0.241447

$$$$
65
  Cerius2 12110215013D 1   1.00000                          
 
 85 87  0  0  0  0  0  0  0  0999 V2000
   -0.8771    1.1903   -1.8589 C   0  0  0  0  0  0
    0.3486    1.7733   -1.2042 C   0  0  0  0  0  0
    0.3254    2.1008    0.1386 C   0  0  0  0  0  0
    1.4498    2.6357    0.7391 C   0  0  0  0  0  0
    2.5975    2.8427   -0.0031 C   0  0  0  0  0  0
    2.6210    2.5144   -1.3457 C   0  0  0  0  0  0
    1.4980    1.9755   -1.9452 C   0  0  0  0  0  0
    3.8719    2.7406   -2.1550 C   0  0  0  0  0  0
    4.2983    1.4267   -2.8129 C   0  0  0  0  0  0
    3.5973    3.7871   -3.2368 C   0  0  0  0  0  0
    1.4242    2.9936    2.2027 C   0  0  0  0  0  0
    2.6075    2.3306    2.9106 C   0  0  0  0  0  0
    1.5229    4.5125    2.3581 C   0  0  0  0  0  0
   -1.1374    1.8369    1.0846 S   0  0  0  0  0  0
   -1.1723    2.8861    2.0424 O   0  0  0  0  0  0
   -2.1607    1.5500    0.1413 O   0  0  0  0  0  0
   -0.9213    0.4429    1.9520 N   0  0  0  0  0  0
   -0.7563   -0.8352    1.2553 C   0  0  0  0  0  0
    0.5815   -1.4316    1.6100 C   0  0  0  0  0  0
    1.1729   -1.0498    2.5977 O   0  0  0  0  0  0
    1.1206   -2.3891    0.8298 N   0  0  0  0  0  0
    2.3925   -3.0262    1.1974 C   0  0  0  0  0  0
    3.3600   -2.9143    0.0150 C   0  0  0  0  0  0
    4.6223   -3.6773    0.3239 C   0  0  0  0  0  0
    4.7376   -4.2519    1.3805 O   0  0  0  0  0  0
    5.6185   -3.7186   -0.5747 O   0  5  0  0  0  0
    2.7012   -3.5014   -1.2354 C   0  0  0  0  0  0
    1.4368   -2.7065   -1.5689 C   0  0  0  0  0  0
    0.4447   -2.8200   -0.4015 C   0  0  0  0  0  0
   -1.8706   -1.7944    1.6785 C   0  0  0  0  0  0
   -3.1989   -1.2598    1.2085 C   0  0  0  0  0  0
   -3.6982   -1.6399   -0.0205 C   0  0  0  0  0  0
   -4.9282   -1.1444   -0.4538 C   0  0  0  0  0  0
   -5.6459   -0.2668    0.3596 C   0  0  0  0  0  0
   -5.1359    0.1054    1.5862 C   0  0  0  0  0  0
   -3.9178   -0.3936    2.0125 C   0  0  0  0  0  0
   -5.4692   -1.5475   -1.7708 C   0  3  0  0  0  0
   -6.7005   -1.1845   -2.1240 N   0  0  0  0  0  0
   -7.0257   -1.3778   -3.0172 H   0  0  0  0  0  0
   -7.2725   -0.7269   -1.4881 H   0  0  0  0  0  0
   -4.7246   -2.2731   -2.6025 N   0  0  0  0  0  0
   -5.0792   -2.5374   -3.4659 H   0  0  0  0  0  0
   -3.8275   -2.5376   -2.3452 H   0  0  0  0  0  0
   -1.7660    2.3226   -2.3771 C   0  0  0  0  0  0
   -0.4553    0.2974   -3.0275 C   0  0  0  0  0  0
   -1.4310    0.5979   -1.1306 H   0  0  0  0  0  0
    3.4757    3.2613    0.4658 H   0  0  0  0  0  0
    1.5163    1.7190   -2.9941 H   0  0  0  0  0  0
    4.6687    3.0948   -1.5009 H   0  0  0  0  0  0
    5.2520    1.5678   -3.3215 H   0  0  0  0  0  0
    4.4042    0.6558   -2.0496 H   0  0  0  0  0  0
    3.5425    1.1205   -3.5361 H   0  0  0  0  0  0
    2.8005    3.4329   -3.8909 H   0  0  0  0  0  0
    3.2935    4.7231   -2.7682 H   0  0  0  0  0  0
    4.5021    3.9507   -3.8222 H   0  0  0  0  0  0
    0.4924    2.6428    2.6463 H   0  0  0  0  0  0
    2.5363    2.5105    3.9833 H   0  0  0  0  0  0
    2.5899    1.2575    2.7203 H   0  0  0  0  0  0
    3.5392    2.7514    2.5327 H   0  0  0  0  0  0
    2.4547    4.8634    1.9145 H   0  0  0  0  0  0
    0.6799    4.9849    1.8538 H   0  0  0  0  0  0
    1.5044    4.7714    3.4168 H   0  0  0  0  0  0
   -0.9041    0.4726    2.9214 H   0  0  0  0  0  0
   -0.8071   -0.6714    0.1789 H   0  0  0  0  0  0
    2.8165   -2.5215    2.0655 H   0  0  0  0  0  0
    2.2208   -4.0770    1.4308 H   0  0  0  0  0  0
    3.6021   -1.8658   -0.1590 H   0  0  0  0  0  0
    3.3969   -3.4454   -2.0727 H   0  0  0  0  0  0
    2.4375   -4.5430   -1.0518 H   0  0  0  0  0  0
    1.6965   -1.6599   -1.7284 H   0  0  0  0  0  0
    0.9809   -3.1105   -2.4729 H   0  0  0  0  0  0
    0.1153   -3.8542   -0.3012 H   0  0  0  0  0  0
   -0.4153   -2.1771   -0.5890 H   0  0  0  0  0  0
   -1.6953   -2.7739    1.2337 H   0  0  0  0  0  0
   -1.8791   -1.8848    2.7647 H   0  0  0  0  0  0
   -3.1378   -2.3191   -0.6457 H   0  0  0  0  0  0
   -6.5986    0.1204    0.0296 H   0  0  0  0  0  0
   -5.6904    0.7849    2.2165 H   0  0  0  0  0  0
   -3.5227   -0.0991    2.9736 H   0  0  0  0  0  0
   -2.0666    2.9587   -1.5445 H   0  0  0  0  0  0
   -1.2121    2.9150   -3.1054 H   0  0  0  0  0  0
   -2.6526    1.9008   -2.8506 H   0  0  0  0  0  0
    0.1595   -0.5221   -2.6552 H   0  0  0  0  0  0
   -1.3426   -0.1064   -3.5150 H   0  0  0  0  0  0
    0.1179    0.8847   -3.7450 H   0  0  0  0  0  0
  1  2  1  0  0  0
  1 44  1  0  0  0
  1 45  1  0  0  0
  1 46  1  0  0  0
  2  3  1  0  0  0
  2  7  2  0  0  0
  3  4  2  0  0  0
  3 14  1  0  0  0
  4  5  1  0  0  0
  4 11  1  0  0  0
  5  6  2  0  0  0
  5 47  1  0  0  0
  6  7  1  0  0  0
  6  8  1  0  0  0
  7 48  1  0  0  0
  8  9  1  0  0  0
  8 10  1  0  0  0
  8 49  1  0  0  0
  9 50  1  0  0  0
  9 51  1  0  0  0
  9 52  1  0  0  0
 10 53  1  0  0  0
 10 54  1  0  0  0
 10 55  1  0  0  0
 11 12  1  0  0  0
 11 13  1  0  0  0
 11 56  1  0  0  0
 12 57  1  0  0  0
 12 58  1  0  0  0
 12 59  1  0  0  0
 13 60  1  0  0  0
 13 61  1  0  0  0
 13 62  1  0  0  0
 14 15  2  0  0  0
 14 16  2  0  0  0
 14 17  1  0  0  0
 17 18  1  0  0  0
 17 63  1  0  0  0
 18 19  1  0  0  0
 18 30  1  0  0  0
 18 64  1  0  0  0
 19 20  2  0  0  0
 19 21  1  0  0  0
 21 22  1  0  0  0
 21 29  1  0  0  0
 22 23  1  0  0  0
 22 65  1  0  0  0
 22 66  1  0  0  0
 23 24  1  0  0  0
 23 27  1  0  0  0
 23 67  1  0  0  0
 24 25  2  0  0  0
 24 26  1  0  0  0
 27 28  1  0  0  0
 27 68  1  0  0  0
 27 69  1  0  0  0
 28 29  1  0  0  0
 28 70  1  0  0  0
 28 71  1  0  0  0
 29 72  1  0  0  0
 29 73  1  0  0  0
 30 31  1  0  0  0
 30 74  1  0  0  0
 30 75  1  0  0  0
 31 32  1  0  0  0
 31 36  2  0  0  0
 32 33  2  0  0  0
 32 76  1  0  0  0
 33 34  1  0  0  0
 33 37  1  0  0  0
 34 35  2  0  0  0
 34 77  1  0  0  0
 35 36  1  0  0  0
 35 78  1  0  0  0
 36 79  1  0  0  0
 37 38  1  0  0  0
 37 41  1  0  0  0
 38 39  1  0  0  0
 38 40  1  0  0  0
 41 42  1  0  0  0
 41 43  1  0  0  0
 44 80  1  0  0  0
 44 81  1  0  0  0
 44 82  1  0  0  0
 45 83  1  0  0  0
 45 84  1  0  0  0
 45 85  1  0  0  0
M  CHG  2  26  -1  37   1
M  END
>  <Activity>
5.137

>  <set>
2

>  <Min_dist>
0.08

>  <Avg_dist>
0.274241

$$$$
67
  Cerius2 12110215013D 1   1.00000                          
Structure written by Cerius2 SD Exporter
 78 82  0  0  0  0  0  0  0  0999 V2000
   -3.7317    1.4066   -2.1124 C   0  0  0  0  0  0
   -5.0751    1.5952   -2.2253 C   0  0  0  0  0  0
   -5.8133    2.1422   -1.1778 C   0  0  0  0  0  0
   -5.2127    2.5034   -0.0109 C   0  0  0  0  0  0
   -3.8277    2.3234    0.1429 C   0  0  0  0  0  0
   -3.1723    2.6847    1.3325 C   0  0  0  0  0  0
   -1.8293    2.4960    1.4454 C   0  0  0  0  0  0
   -1.0908    1.9491    0.3974 C   0  0  0  0  0  0
   -1.6912    1.5880   -0.7692 C   0  0  0  0  0  0
   -3.0767    1.7673   -0.9229 C   0  0  0  0  0  0
    0.6464    1.7226    0.5857 S   0  0  0  0  0  0
    1.1750    1.6775   -0.7325 O   0  0  0  0  0  0
    1.0465    2.6321    1.6016 O   0  0  0  0  0  0
    0.8828    0.2101    1.2173 N   0  0  0  0  0  0
    0.4163   -0.9703    0.4858 C   0  0  0  0  0  0
   -0.6851   -1.6415    1.2652 C   0  0  0  0  0  0
   -0.7326   -1.5244    2.4714 O   0  0  0  0  0  0
   -1.6173   -2.3719    0.6218 N   0  0  0  0  0  0
   -1.5100   -2.6178   -0.8227 C   0  0  0  0  0  0
   -1.5878   -4.1271   -1.0731 C   0  0  0  0  0  0
   -2.8634   -4.6810   -0.4343 C   0  0  0  0  0  0
   -2.8238   -4.4435    1.0771 C   0  0  0  0  0  0
   -2.7570   -2.9425    1.3528 C   0  0  0  0  0  0
    1.5786   -1.9478    0.3005 C   0  0  0  0  0  0
    2.6800   -1.2766   -0.4790 C   0  0  0  0  0  0
    3.6708   -0.5839    0.1864 C   0  0  0  0  0  0
    4.6899    0.0365   -0.5366 C   0  0  0  0  0  0
    4.7003   -0.0480   -1.9294 C   0  0  0  0  0  0
    3.7041   -0.7436   -2.5827 C   0  0  0  0  0  0
    2.6989   -1.3611   -1.8595 C   0  0  0  0  0  0
    5.7551    0.7813    0.1705 C   0  3  0  0  0  0
    6.7264    1.3724   -0.5223 N   0  0  0  0  0  0
    7.4247    1.8607   -0.0587 H   0  0  0  0  0  0
    6.7358    1.3147   -1.4905 H   0  0  0  0  0  0
    5.7422    0.8606    1.4996 N   0  0  0  0  0  0
    6.4405    1.3489    1.9631 H   0  0  0  0  0  0
    5.0346    0.4300    2.0043 H   0  0  0  0  0  0
   -3.1731    0.9777   -2.9312 H   0  0  0  0  0  0
   -5.5762    1.3171   -3.1407 H   0  0  0  0  0  0
   -6.8780    2.2819   -1.2936 H   0  0  0  0  0  0
   -5.7976    2.9265    0.7924 H   0  0  0  0  0  0
   -3.7315    3.1102    2.1527 H   0  0  0  0  0  0
   -1.3281    2.7745    2.3606 H   0  0  0  0  0  0
   -1.1061    1.1661   -1.5730 H   0  0  0  0  0  0
    1.3302    0.1058    2.0716 H   0  0  0  0  0  0
    0.0377   -0.6667   -0.4903 H   0  0  0  0  0  0
   -2.3294   -2.1188   -1.3402 H   0  0  0  0  0  0
   -0.5572   -2.2353   -1.1887 H   0  0  0  0  0  0
   -1.6061   -4.3174   -2.1462 H   0  0  0  0  0  0
   -0.7186   -4.6144   -0.6315 H   0  0  0  0  0  0
   -3.7310   -4.1758   -0.8586 H   0  0  0  0  0  0
   -3.7217   -4.8591    1.5343 H   0  0  0  0  0  0
   -1.9429   -4.9279    1.4984 H   0  0  0  0  0  0
   -2.6289   -2.7727    2.4219 H   0  0  0  0  0  0
   -3.6771   -2.4673    1.0129 H   0  0  0  0  0  0
    1.9572   -2.2514    1.2765 H   0  0  0  0  0  0
    1.2315   -2.8261   -0.2438 H   0  0  0  0  0  0
    3.6571   -0.5218    1.2645 H   0  0  0  0  0  0
    5.4863    0.4304   -2.4947 H   0  0  0  0  0  0
    3.7108   -0.8094   -3.6607 H   0  0  0  0  0  0
    1.9212   -1.9045   -2.3756 H   0  0  0  0  0  0
   -3.1006   -6.0179   -0.7756 N   0  3  0  0  0  0
   -2.9933   -6.2638   -2.2201 C   0  0  0  0  0  0
   -3.0711   -7.7731   -2.4705 C   0  0  0  0  0  0
   -4.3467   -8.3270   -1.8317 C   0  0  0  0  0  0
   -4.3071   -8.0895   -0.3203 C   0  0  0  0  0  0
   -4.2403   -6.5885   -0.0446 C   0  0  0  0  0  0
   -3.8127   -5.7648   -2.7376 H   0  0  0  0  0  0
   -2.0405   -5.8813   -2.5861 H   0  0  0  0  0  0
   -3.0894   -7.9634   -3.5436 H   0  0  0  0  0  0
   -2.2019   -8.2604   -2.0289 H   0  0  0  0  0  0
   -5.2143   -7.8218   -2.2560 H   0  0  0  0  0  0
   -4.4170   -9.3966   -2.0295 H   0  0  0  0  0  0
   -5.2050   -8.5051    0.1369 H   0  0  0  0  0  0
   -3.4262   -8.5739    0.1010 H   0  0  0  0  0  0
   -4.1122   -6.4187    1.0245 H   0  0  0  0  0  0
   -5.1604   -6.1133   -0.3845 H   0  0  0  0  0  0
   -2.3907   -6.4527   -0.4336 H   0  0  0  0  0  0
  1  2  1  0  0  0
  1 10  2  0  0  0
  1 38  1  0  0  0
  2  3  2  0  0  0
  2 39  1  0  0  0
  3  4  1  0  0  0
  3 40  1  0  0  0
  4  5  2  0  0  0
  4 41  1  0  0  0
  5  6  1  0  0  0
  5 10  1  0  0  0
  6  7  2  0  0  0
  6 42  1  0  0  0
  7  8  1  0  0  0
  7 43  1  0  0  0
  8  9  2  0  0  0
  8 11  1  0  0  0
  9 10  1  0  0  0
  9 44  1  0  0  0
 11 12  2  0  0  0
 11 13  2  0  0  0
 11 14  1  0  0  0
 14 15  1  0  0  0
 14 45  1  0  0  0
 15 16  1  0  0  0
 15 24  1  0  0  0
 15 46  1  0  0  0
 16 17  2  0  0  0
 16 18  1  0  0  0
 18 19  1  0  0  0
 18 23  1  0  0  0
 19 20  1  0  0  0
 19 47  1  0  0  0
 19 48  1  0  0  0
 20 21  1  0  0  0
 20 49  1  0  0  0
 20 50  1  0  0  0
 21 22  1  0  0  0
 21 51  1  0  0  0
 22 23  1  0  0  0
 22 52  1  0  0  0
 22 53  1  0  0  0
 23 54  1  0  0  0
 23 55  1  0  0  0
 24 25  1  0  0  0
 24 56  1  0  0  0
 24 57  1  0  0  0
 25 26  1  0  0  0
 25 30  2  0  0  0
 26 27  2  0  0  0
 26 58  1  0  0  0
 27 28  1  0  0  0
 27 31  1  0  0  0
 28 29  2  0  0  0
 28 59  1  0  0  0
 29 30  1  0  0  0
 29 60  1  0  0  0
 30 61  1  0  0  0
 31 32  1  0  0  0
 31 35  1  0  0  0
 32 33  1  0  0  0
 32 34  1  0  0  0
 35 36  1  0  0  0
 35 37  1  0  0  0
 62 21  1  0  0  0
 62 63  1  0  0  0
 62 67  1  0  0  0
 62 78  1  0  0  0
 63 64  1  0  0  0
 63 68  1  0  0  0
 63 69  1  0  0  0
 64 65  1  0  0  0
 64 70  1  0  0  0
 64 71  1  0  0  0
 65 66  1  0  0  0
 65 72  1  0  0  0
 65 73  1  0  0  0
 66 67  1  0  0  0
 66 74  1  0  0  0
 66 75  1  0  0  0
 67 76  1  0  0  0
 67 77  1  0  0  0
M  CHG  2  31   1  62   1
M  END
>  <Activity>
4.824

>  <set>
2

>  <Min_dist>
0.081818

>  <Avg_dist>
0.214103

$$$$
70
  Cerius2 12110215013D 1   1.00000                          
 
 47 49  0  0  0  0  0  0  0  0999 V2000
   -2.1865    2.3038   -1.7774 C   0  0  0  0  0  0
   -3.5450    2.3444   -1.8536 C   0  0  0  0  0  0
   -4.3348    2.0484   -0.7446 C   0  0  0  0  0  0
   -3.7710    1.7097    0.4472 C   0  0  0  0  0  0
   -2.3718    1.6567    0.5642 C   0  0  0  0  0  0
   -1.7534    1.3116    1.7782 C   0  0  0  0  0  0
   -0.3952    1.2710    1.8542 C   0  0  0  0  0  0
    0.3949    1.5674    0.7449 C   0  0  0  0  0  0
   -0.1687    1.9060   -0.4466 C   0  0  0  0  0  0
   -1.5683    1.9582   -0.5639 C   0  0  0  0  0  0
    2.1500    1.5031    0.8875 S   0  0  0  0  0  0
    2.6539    2.2657   -0.2005 O   0  0  0  0  0  0
    2.4347    1.7398    2.2594 O   0  0  0  0  0  0
    2.6136   -0.0594    0.5948 N   0  0  0  0  0  0
    2.3957   -0.6528   -0.7268 C   0  0  0  0  0  0
    3.6375   -0.4847   -1.5639 C   0  0  0  0  0  0
    3.5477   -0.3840   -2.7646 O   0  0  0  0  0  0
    4.8434   -0.4469   -0.9755 O   0  5  0  0  0  0
    2.0830   -2.1424   -0.5718 C   0  0  0  0  0  0
    0.7729   -2.3077    0.1546 C   0  0  0  0  0  0
   -0.4166   -2.1794   -0.5330 C   0  0  0  0  0  0
   -1.6283   -2.3331    0.1407 C   0  0  0  0  0  0
   -1.6291   -2.6160    1.5071 C   0  0  0  0  0  0
   -0.4332   -2.7419    2.1831 C   0  0  0  0  0  0
    0.7655   -2.5935    1.5080 C   0  0  0  0  0  0
   -2.9075   -2.1963   -0.5904 C   0  3  0  0  0  0
   -4.0327   -1.9494    0.0772 N   0  0  0  0  0  0
   -4.8873   -1.9940   -0.3795 H   0  0  0  0  0  0
   -3.9979   -1.7250    1.0202 H   0  0  0  0  0  0
   -2.9332   -2.3201   -1.9159 N   0  0  0  0  0  0
   -3.7718   -2.2304   -2.3951 H   0  0  0  0  0  0
   -2.1135   -2.5000   -2.4022 H   0  0  0  0  0  0
   -1.5870    2.5317   -2.6464 H   0  0  0  0  0  0
   -4.0177    2.6103   -2.7875 H   0  0  0  0  0  0
   -5.4106    2.0887   -0.8317 H   0  0  0  0  0  0
   -4.3958    1.4831    1.2985 H   0  0  0  0  0  0
   -2.3528    1.0802    2.6462 H   0  0  0  0  0  0
    0.0775    1.0055    2.7882 H   0  0  0  0  0  0
    0.4562    2.1338   -1.2975 H   0  0  0  0  0  0
    3.0295   -0.5818    1.2984 H   0  0  0  0  0  0
    1.5582   -0.1546   -1.2152 H   0  0  0  0  0  0
    2.0128   -2.6034   -1.5570 H   0  0  0  0  0  0
    2.8778   -2.6231   -0.0015 H   0  0  0  0  0  0
   -0.4094   -1.9600   -1.5905 H   0  0  0  0  0  0
   -2.5640   -2.7359    2.0344 H   0  0  0  0  0  0
   -0.4325   -2.9605    3.2408 H   0  0  0  0  0  0
    1.6991   -2.6929    2.0417 H   0  0  0  0  0  0
  1  2  1  0  0  0
  1 10  2  0  0  0
  1 33  1  0  0  0
  2  3  2  0  0  0
  2 34  1  0  0  0
  3  4  1  0  0  0
  3 35  1  0  0  0
  4  5  2  0  0  0
  4 36  1  0  0  0
  5  6  1  0  0  0
  5 10  1  0  0  0
  6  7  2  0  0  0
  6 37  1  0  0  0
  7  8  1  0  0  0
  7 38  1  0  0  0
  8  9  2  0  0  0
  8 11  1  0  0  0
  9 10  1  0  0  0
  9 39  1  0  0  0
 11 12  2  0  0  0
 11 13  2  0  0  0
 11 14  1  0  0  0
 14 15  1  0  0  0
 14 40  1  0  0  0
 15 16  1  0  0  0
 15 19  1  0  0  0
 15 41  1  0  0  0
 16 17  2  0  0  0
 16 18  1  0  0  0
 19 20  1  0  0  0
 19 42  1  0  0  0
 19 43  1  0  0  0
 20 21  1  0  0  0
 20 25  2  0  0  0
 21 22  2  0  0  0
 21 44  1  0  0  0
 22 23  1  0  0  0
 22 26  1  0  0  0
 23 24  2  0  0  0
 23 45  1  0  0  0
 24 25  1  0  0  0
 24 46  1  0  0  0
 25 47  1  0  0  0
 26 27  1  0  0  0
 26 30  1  0  0  0
 27 28  1  0  0  0
 27 29  1  0  0  0
 30 31  1  0  0  0
 30 32  1  0  0  0
M  CHG  2  18  -1  26   1
M  END
>  <Activity>
4.523

>  <set>
2

>  <Min_dist>
0.077922

>  <Avg_dist>
0.370454

$$$$
71
  Cerius2 12110215013D 1   1.00000                          
 
 66 70  0  0  0  0  0  0  0  0999 V2000
    2.6920    0.0298    3.2952 C   0  0  0  0  0  0
    3.7787   -0.6189    3.7964 C   0  0  0  0  0  0
    5.0189   -0.5328    3.1673 C   0  0  0  0  0  0
    5.1799    0.2023    2.0329 C   0  0  0  0  0  0
    4.0810    0.8856    1.4856 C   0  0  0  0  0  0
    4.2084    1.6548    0.3162 C   0  0  0  0  0  0
    3.1219    2.3033   -0.1848 C   0  0  0  0  0  0
    1.8813    2.2174    0.4447 C   0  0  0  0  0  0
    1.7203    1.4825    1.5787 C   0  0  0  0  0  0
    2.8193    0.7983    2.1258 C   0  0  0  0  0  0
    0.5008    3.0735   -0.2378 S   0  0  0  0  0  0
   -0.4601    3.1509    0.8062 O   0  0  0  0  0  0
    1.0435    4.1834   -0.9400 O   0  0  0  0  0  0
   -0.1678    2.0934   -1.3931 N   0  0  0  0  0  0
   -0.7731    0.8159   -1.0089 C   0  0  0  0  0  0
   -2.2511    1.0074   -0.7850 C   0  0  0  0  0  0
   -2.8327    1.9235   -1.3267 O   0  0  0  0  0  0
   -2.9264    0.1607    0.0171 N   0  0  0  0  0  0
   -2.2674   -1.0253    0.5771 C   0  0  0  0  0  0
   -3.1855   -2.2157    0.4844 C   0  0  0  0  0  0
   -4.5277   -2.0600    0.5093 C   0  0  0  0  0  0
   -5.1028   -0.7112    0.5696 C   0  0  0  0  0  0
   -6.4574   -0.5072    0.8348 C   0  0  0  0  0  0
   -6.9548    0.7779    0.8901 C   0  0  0  0  0  0
   -6.1209    1.8644    0.6774 C   0  0  0  0  0  0
   -4.7801    1.6768    0.3964 C   0  0  0  0  0  0
   -4.2637    0.3977    0.3359 C   0  0  0  0  0  0
   -2.6345   -3.5167    0.3690 C   0  0  0  0  0  0
   -3.3686   -4.4837    0.2936 O   0  0  0  0  0  0
   -1.2956   -3.6824    0.3429 O   0  5  0  0  0  0
   -0.5548   -0.2080   -2.1247 C   0  0  0  0  0  0
    0.9165   -0.5091   -2.2492 C   0  0  0  0  0  0
    1.4667   -1.5588   -1.5422 C   0  0  0  0  0  0
    2.8288   -1.8365   -1.6590 C   0  0  0  0  0  0
    3.6264   -1.0500   -2.4910 C   0  0  0  0  0  0
    3.0643   -0.0035   -3.1925 C   0  0  0  0  0  0
    1.7116    0.2636   -3.0764 C   0  0  0  0  0  0
    3.4253   -2.9602   -0.9034 C   0  3  0  0  0  0
    4.7456   -3.1324   -0.8981 N   0  0  0  0  0  0
    5.1309   -3.9153   -0.4745 H   0  0  0  0  0  0
    5.3221   -2.4748   -1.3177 H   0  0  0  0  0  0
    2.6418   -3.7991   -0.2287 N   0  0  0  0  0  0
    3.0329   -4.5357    0.2666 H   0  0  0  0  0  0
    1.6799   -3.6737   -0.2326 H   0  0  0  0  0  0
    1.7359   -0.0494    3.7913 H   0  0  0  0  0  0
    3.6781   -1.2090    4.6954 H   0  0  0  0  0  0
    5.8653   -1.0568    3.5861 H   0  0  0  0  0  0
    6.1473    0.2602    1.5563 H   0  0  0  0  0  0
    5.1636    1.7311   -0.1819 H   0  0  0  0  0  0
    3.2225    2.8937   -1.0835 H   0  0  0  0  0  0
    0.7532    1.4256    2.0560 H   0  0  0  0  0  0
   -0.1587    2.3652   -2.3242 H   0  0  0  0  0  0
   -0.3101    0.4562   -0.0900 H   0  0  0  0  0  0
   -1.3535   -1.2288    0.0189 H   0  0  0  0  0  0
   -2.0179   -0.8412    1.6221 H   0  0  0  0  0  0
   -5.1744   -2.9246    0.4845 H   0  0  0  0  0  0
   -7.1125   -1.3507    0.9955 H   0  0  0  0  0  0
   -8.0018    0.9388    1.1003 H   0  0  0  0  0  0
   -6.5218    2.8658    0.7313 H   0  0  0  0  0  0
   -4.1372    2.5282    0.2284 H   0  0  0  0  0  0
   -1.0945   -1.1247   -1.8873 H   0  0  0  0  0  0
   -0.9238    0.1973   -3.0669 H   0  0  0  0  0  0
    0.8442   -2.1637   -0.8996 H   0  0  0  0  0  0
    4.6816   -1.2598   -2.5853 H   0  0  0  0  0  0
    3.6806    0.6062   -3.8365 H   0  0  0  0  0  0
    1.2762    1.0840   -3.6276 H   0  0  0  0  0  0
  1  2  1  0  0  0
  1 10  2  0  0  0
  1 45  1  0  0  0
  2  3  2  0  0  0
  2 46  1  0  0  0
  3  4  1  0  0  0
  3 47  1  0  0  0
  4  5  2  0  0  0
  4 48  1  0  0  0
  5  6  1  0  0  0
  5 10  1  0  0  0
  6  7  2  0  0  0
  6 49  1  0  0  0
  7  8  1  0  0  0
  7 50  1  0  0  0
  8  9  2  0  0  0
  8 11  1  0  0  0
  9 10  1  0  0  0
  9 51  1  0  0  0
 11 12  2  0  0  0
 11 13  2  0  0  0
 11 14  1  0  0  0
 14 15  1  0  0  0
 14 52  1  0  0  0
 15 16  1  0  0  0
 15 31  1  0  0  0
 15 53  1  0  0  0
 16 17  2  0  0  0
 16 18  1  0  0  0
 18 19  1  0  0  0
 18 27  1  0  0  0
 19 20  1  0  0  0
 19 54  1  0  0  0
 19 55  1  0  0  0
 20 21  2  0  0  0
 20 28  1  0  0  0
 21 22  1  0  0  0
 21 56  1  0  0  0
 22 23  1  0  0  0
 22 27  2  0  0  0
 23 24  2  0  0  0
 23 57  1  0  0  0
 24 25  1  0  0  0
 24 58  1  0  0  0
 25 26  2  0  0  0
 25 59  1  0  0  0
 26 27  1  0  0  0
 26 60  1  0  0  0
 28 29  2  0  0  0
 28 30  1  0  0  0
 31 32  1  0  0  0
 31 61  1  0  0  0
 31 62  1  0  0  0
 32 33  1  0  0  0
 32 37  2  0  0  0
 33 34  2  0  0  0
 33 63  1  0  0  0
 34 35  1  0  0  0
 34 38  1  0  0  0
 35 36  2  0  0  0
 35 64  1  0  0  0
 36 37  1  0  0  0
 36 65  1  0  0  0
 37 66  1  0  0  0
 38 39  1  0  0  0
 38 42  1  0  0  0
 39 40  1  0  0  0
 39 41  1  0  0  0
 42 43  1  0  0  0
 42 44  1  0  0  0
M  CHG  2  30  -1  38   1
M  END
>  <Activity>
4.456

>  <set>
2

>  <Min_dist>
0.216418

>  <Avg_dist>
0.343464

$$$$
72
  Cerius2 12110215013D 1   1.00000                          
 
 55 56  0  0  0  0  0  0  0  0999 V2000
   -1.0602    2.3902   -1.5740 C   0  0  0  0  0  0
   -2.1860    1.8344   -0.7406 C   0  0  0  0  0  0
   -1.9066    1.0798    0.3835 C   0  0  0  0  0  0
   -2.9393    0.5700    1.1479 C   0  0  0  0  0  0
   -4.2514    0.8150    0.7886 C   0  0  0  0  0  0
   -4.5309    1.5703   -0.3349 C   0  0  0  0  0  0
   -3.4981    2.0838   -1.0969 C   0  0  0  0  0  0
   -5.9613    1.8370   -0.7270 C   0  0  0  0  0  0
   -2.6347   -0.2534    2.3728 C   0  0  0  0  0  0
   -0.2341    0.7675    0.8415 S   0  0  0  0  0  0
    0.5627    1.4162   -0.1402 O   0  0  0  0  0  0
   -0.1669    1.0019    2.2414 O   0  0  0  0  0  0
    0.0391   -0.8537    0.6431 N   0  0  0  0  0  0
   -0.1209   -1.4673   -0.6775 C   0  0  0  0  0  0
   -1.1783   -2.5388   -0.6088 C   0  0  0  0  0  0
   -1.8512   -2.7903   -1.5860 O   0  0  0  0  0  0
   -1.3763   -3.2177    0.5385 N   0  0  0  0  0  0
   -2.4043   -4.2593    0.6053 C   0  0  0  0  0  0
    1.2070   -2.0885   -1.1155 C   0  0  0  0  0  0
    2.2644   -1.0170   -1.1842 C   0  0  0  0  0  0
    3.0292   -0.7321   -0.0714 C   0  0  0  0  0  0
    4.0079    0.2598   -0.1368 C   0  0  0  0  0  0
    4.2070    0.9578   -1.3286 C   0  0  0  0  0  0
    3.4359    0.6635   -2.4339 C   0  0  0  0  0  0
    2.4703   -0.3251   -2.3641 C   0  0  0  0  0  0
    4.8311    0.5707    1.0527 C   0  3  0  0  0  0
    5.7646    1.5180    0.9873 N   0  0  0  0  0  0
    6.3042    1.7218    1.7671 H   0  0  0  0  0  0
    5.9049    2.0042    0.1597 H   0  0  0  0  0  0
    4.6385   -0.0967    2.1886 N   0  0  0  0  0  0
    5.1782    0.1071    2.9684 H   0  0  0  0  0  0
    3.9585   -0.7868    2.2364 H   0  0  0  0  0  0
   -0.6750    1.6102   -2.2308 H   0  0  0  0  0  0
   -1.4289    3.2216   -2.1747 H   0  0  0  0  0  0
   -0.2622    2.7407   -0.9194 H   0  0  0  0  0  0
   -5.0583    0.4161    1.3855 H   0  0  0  0  0  0
   -3.7164    2.6739   -1.9748 H   0  0  0  0  0  0
   -6.3042    2.7544   -0.2485 H   0  0  0  0  0  0
   -6.0272    1.9453   -1.8096 H   0  0  0  0  0  0
   -6.5872    1.0042   -0.4064 H   0  0  0  0  0  0
   -2.4469    0.4086    3.2182 H   0  0  0  0  0  0
   -3.4843   -0.8981    2.5978 H   0  0  0  0  0  0
   -1.7524   -0.8663    2.1884 H   0  0  0  0  0  0
    0.3050   -1.3971    1.4014 H   0  0  0  0  0  0
   -0.4211   -0.7063   -1.3978 H   0  0  0  0  0  0
   -0.8382   -3.0166    1.3201 H   0  0  0  0  0  0
   -2.4172   -4.6935    1.6050 H   0  0  0  0  0  0
   -3.3787   -3.8228    0.3861 H   0  0  0  0  0  0
   -2.1818   -5.0368   -0.1256 H   0  0  0  0  0  0
    1.5071   -2.8496   -0.3952 H   0  0  0  0  0  0
    1.0879   -2.5451   -2.0981 H   0  0  0  0  0  0
    2.8700   -1.2755    0.8482 H   0  0  0  0  0  0
    4.9630    1.7270   -1.3853 H   0  0  0  0  0  0
    3.5888    1.2032   -3.3568 H   0  0  0  0  0  0
    1.8691   -0.5518   -3.2323 H   0  0  0  0  0  0
  1  2  1  0  0  0
  1 33  1  0  0  0
  1 34  1  0  0  0
  1 35  1  0  0  0
  2  3  1  0  0  0
  2  7  2  0  0  0
  3  4  2  0  0  0
  3 10  1  0  0  0
  4  5  1  0  0  0
  4  9  1  0  0  0
  5  6  2  0  0  0
  5 36  1  0  0  0
  6  7  1  0  0  0
  6  8  1  0  0  0
  7 37  1  0  0  0
  8 38  1  0  0  0
  8 39  1  0  0  0
  8 40  1  0  0  0
  9 41  1  0  0  0
  9 42  1  0  0  0
  9 43  1  0  0  0
 10 11  2  0  0  0
 10 12  2  0  0  0
 10 13  1  0  0  0
 13 14  1  0  0  0
 13 44  1  0  0  0
 14 15  1  0  0  0
 14 19  1  0  0  0
 14 45  1  0  0  0
 15 16  2  0  0  0
 15 17  1  0  0  0
 17 18  1  0  0  0
 17 46  1  0  0  0
 18 47  1  0  0  0
 18 48  1  0  0  0
 18 49  1  0  0  0
 19 20  1  0  0  0
 19 50  1  0  0  0
 19 51  1  0  0  0
 20 21  1  0  0  0
 20 25  2  0  0  0
 21 22  2  0  0  0
 21 52  1  0  0  0
 22 23  1  0  0  0
 22 26  1  0  0  0
 23 24  2  0  0  0
 23 53  1  0  0  0
 24 25  1  0  0  0
 24 54  1  0  0  0
 25 55  1  0  0  0
 26 27  1  0  0  0
 26 30  1  0  0  0
 27 28  1  0  0  0
 27 29  1  0  0  0
 30 31  1  0  0  0
 30 32  1  0  0  0
M  CHG  1  26   1
M  END
>  <Activity>
4.357

>  <set>
2

>  <Min_dist>
0.050505

>  <Avg_dist>
0.367226

$$$$
81
  Cerius2 12110215013D 1   1.00000                          
 
 69 72  0  0  0  0  0  0  0  0999 V2000
   -2.9842    1.5115   -2.1287 C   0  0  0  0  0  0
   -4.2668    1.9270   -2.3170 C   0  0  0  0  0  0
   -4.7890    2.9948   -1.5900 C   0  0  0  0  0  0
   -4.0319    3.6533   -0.6701 C   0  0  0  0  0  0
   -2.7037    3.2527   -0.4478 C   0  0  0  0  0  0
   -1.8912    3.9084    0.4931 C   0  0  0  0  0  0
   -0.6091    3.4929    0.6813 C   0  0  0  0  0  0
   -0.0866    2.4249   -0.0461 C   0  0  0  0  0  0
   -0.8434    1.7666   -0.9658 C   0  0  0  0  0  0
   -2.1723    2.1667   -1.1877 C   0  0  0  0  0  0
    1.5790    1.9200    0.2288 S   0  0  0  0  0  0
    1.9749    1.2358   -0.9520 O   0  0  0  0  0  0
    2.2379    3.0494    0.7851 O   0  0  0  0  0  0
    1.5583    0.7762    1.4261 N   0  0  0  0  0  0
    0.8039   -0.4657    1.2398 C   0  0  0  0  0  0
   -0.2495   -0.5792    2.3116 C   0  0  0  0  0  0
   -0.1617    0.0873    3.3210 O   0  0  0  0  0  0
   -1.2890   -1.4213    2.1483 N   0  0  0  0  0  0
   -1.4581   -2.1675    0.8940 C   0  0  0  0  0  0
   -2.8681   -1.9099    0.3533 C   0  0  0  0  0  0
   -3.8954   -2.2556    1.4337 C   0  0  0  0  0  0
   -3.6752   -1.3598    2.6548 C   0  0  0  0  0  0
   -2.2712   -1.6153    3.2236 C   0  0  0  0  0  0
   -3.1062   -2.7702   -0.8609 C   0  0  0  0  0  0
   -2.2352   -3.5160   -1.2558 O   0  0  0  0  0  0
   -4.2870   -2.7108   -1.5078 N   0  0  0  0  0  0
   -4.5185   -3.5471   -2.6882 C   0  0  0  0  0  0
    1.7561   -1.6597    1.3321 C   0  0  0  0  0  0
    2.7277   -1.6176    0.1809 C   0  0  0  0  0  0
    3.9256   -0.9459    0.3151 C   0  0  0  0  0  0
    4.8240   -0.9083   -0.7514 C   0  0  0  0  0  0
    4.5046   -1.5510   -1.9480 C   0  0  0  0  0  0
    3.3038   -2.2191   -2.0696 C   0  0  0  0  0  0
    2.4192   -2.2572   -1.0062 C   0  0  0  0  0  0
    6.1101   -0.1895   -0.6144 C   0  3  0  0  0  0
    6.9656   -0.1553   -1.6341 N   0  0  0  0  0  0
    7.8087    0.3159   -1.5443 H   0  0  0  0  0  0
    6.7457   -0.6017   -2.4667 H   0  0  0  0  0  0
    6.4118    0.4232    0.5286 N   0  0  0  0  0  0
    7.2549    0.8945    0.6184 H   0  0  0  0  0  0
    5.7886    0.3983    1.2715 H   0  0  0  0  0  0
   -2.5942    0.6797   -2.6965 H   0  0  0  0  0  0
   -4.8888    1.4217   -3.0410 H   0  0  0  0  0  0
   -5.8095    3.3049   -1.7592 H   0  0  0  0  0  0
   -4.4500    4.4795   -0.1142 H   0  0  0  0  0  0
   -2.2823    4.7379    1.0635 H   0  0  0  0  0  0
    0.0131    3.9985    1.4050 H   0  0  0  0  0  0
   -0.4249    0.9412   -1.5226 H   0  0  0  0  0  0
    2.0458    0.9284    2.2508 H   0  0  0  0  0  0
    0.3260   -0.4570    0.2602 H   0  0  0  0  0  0
   -0.7203   -1.8302    0.1659 H   0  0  0  0  0  0
   -1.3280   -3.2332    1.0823 H   0  0  0  0  0  0
   -2.9668   -0.8593    0.0804 H   0  0  0  0  0  0
   -4.9006   -2.0966    1.0432 H   0  0  0  0  0  0
   -3.7798   -3.2999    1.7239 H   0  0  0  0  0  0
   -3.7663   -0.3143    2.3602 H   0  0  0  0  0  0
   -4.4219   -1.5905    3.4147 H   0  0  0  0  0  0
   -2.2103   -2.6359    3.6017 H   0  0  0  0  0  0
   -2.0706   -0.9116    4.0315 H   0  0  0  0  0  0
   -4.9837   -2.1143   -1.1919 H   0  0  0  0  0  0
   -5.5218   -3.3635   -3.0725 H   0  0  0  0  0  0
   -3.7848   -3.3026   -3.4563 H   0  0  0  0  0  0
   -4.4210   -4.5976   -2.4139 H   0  0  0  0  0  0
    2.3051   -1.6147    2.2727 H   0  0  0  0  0  0
    1.1828   -2.5858    1.2901 H   0  0  0  0  0  0
    4.1669   -0.4501    1.2438 H   0  0  0  0  0  0
    5.1959   -1.5252   -2.7774 H   0  0  0  0  0  0
    3.0553   -2.7166   -2.9954 H   0  0  0  0  0  0
    1.4804   -2.7815   -1.1063 H   0  0  0  0  0  0
  1  2  1  0  0  0
  1 10  2  0  0  0
  1 42  1  0  0  0
  2  3  2  0  0  0
  2 43  1  0  0  0
  3  4  1  0  0  0
  3 44  1  0  0  0
  4  5  2  0  0  0
  4 45  1  0  0  0
  5  6  1  0  0  0
  5 10  1  0  0  0
  6  7  2  0  0  0
  6 46  1  0  0  0
  7  8  1  0  0  0
  7 47  1  0  0  0
  8  9  2  0  0  0
  8 11  1  0  0  0
  9 10  1  0  0  0
  9 48  1  0  0  0
 11 12  2  0  0  0
 11 13  2  0  0  0
 11 14  1  0  0  0
 14 15  1  0  0  0
 14 49  1  0  0  0
 15 16  1  0  0  0
 15 28  1  0  0  0
 15 50  1  0  0  0
 16 17  2  0  0  0
 16 18  1  0  0  0
 18 19  1  0  0  0
 18 23  1  0  0  0
 19 20  1  0  0  0
 19 51  1  0  0  0
 19 52  1  0  0  0
 20 21  1  0  0  0
 20 24  1  0  0  0
 20 53  1  0  0  0
 21 22  1  0  0  0
 21 54  1  0  0  0
 21 55  1  0  0  0
 22 23  1  0  0  0
 22 56  1  0  0  0
 22 57  1  0  0  0
 23 58  1  0  0  0
 23 59  1  0  0  0
 24 25  2  0  0  0
 24 26  1  0  0  0
 26 27  1  0  0  0
 26 60  1  0  0  0
 27 61  1  0  0  0
 27 62  1  0  0  0
 27 63  1  0  0  0
 28 29  1  0  0  0
 28 64  1  0  0  0
 28 65  1  0  0  0
 29 30  1  0  0  0
 29 34  2  0  0  0
 30 31  2  0  0  0
 30 66  1  0  0  0
 31 32  1  0  0  0
 31 35  1  0  0  0
 32 33  2  0  0  0
 32 67  1  0  0  0
 33 34  1  0  0  0
 33 68  1  0  0  0
 34 69  1  0  0  0
 35 36  1  0  0  0
 35 39  1  0  0  0
 36 37  1  0  0  0
 36 38  1  0  0  0
 39 40  1  0  0  0
 39 41  1  0  0  0
M  CHG  1  35   1
M  END
>  <Activity>
6.585

>  <set>
2

>  <Min_dist>
0.041322

>  <Avg_dist>
0.238211

$$$$
82
  Cerius2 12110215013D 1   1.00000                          
 
 88 90  0  0  0  0  0  0  0  0999 V2000
    1.3709   -3.5750   -1.7513 C   0  0  0  0  0  0
    0.6027   -3.2322   -0.5009 C   0  0  0  0  0  0
    0.9447   -2.1134    0.2355 C   0  0  0  0  0  0
    0.2401   -1.7991    1.3825 C   0  0  0  0  0  0
   -0.8068   -2.6032    1.7928 C   0  0  0  0  0  0
   -1.1494   -3.7214    1.0559 C   0  0  0  0  0  0
   -0.4475   -4.0334   -0.0934 C   0  0  0  0  0  0
   -2.2903   -4.5984    1.5035 C   0  0  0  0  0  0
   -3.3616   -4.6382    0.4119 C   0  0  0  0  0  0
   -1.7735   -6.0149    1.7628 C   0  0  0  0  0  0
    0.6135   -0.5800    2.1859 C   0  0  0  0  0  0
   -0.6302   -0.0314    2.8883 C   0  0  0  0  0  0
    1.6637   -0.9603    3.2315 C   0  0  0  0  0  0
    2.2790   -1.0885   -0.2875 S   0  0  0  0  0  0
    2.6604   -0.3374    0.8569 O   0  0  0  0  0  0
    3.1393   -1.9302   -1.0430 O   0  0  0  0  0  0
    1.6664    0.0110   -1.3636 N   0  0  0  0  0  0
    0.6279    0.9524   -0.9378 C   0  0  0  0  0  0
   -0.6089    0.7480   -1.7742 C   0  0  0  0  0  0
   -0.5851   -0.0169   -2.7151 O   0  0  0  0  0  0
   -1.7415    1.4153   -1.4767 N   0  0  0  0  0  0
   -2.9484    1.2436   -2.2976 C   0  0  0  0  0  0
   -4.1051    0.8175   -1.3851 C   0  0  0  0  0  0
   -4.1555    1.7294   -0.2337 N   0  0  0  0  0  0
   -5.5474    2.5485    0.1325 S   0  0  0  0  0  0
   -5.0660    3.6993    0.8129 O   0  0  0  0  0  0
   -6.2029    2.6339   -1.1254 O   0  0  0  0  0  0
   -6.4083    1.4172    1.2593 C   0  0  0  0  0  0
   -2.9486    1.9011    0.5871 C   0  0  0  0  0  0
   -1.7935    2.3229   -0.3220 C   0  0  0  0  0  0
    1.1337    2.3852   -1.1170 C   0  0  0  0  0  0
    2.2774    2.6365   -0.1684 C   0  0  0  0  0  0
    3.5725    2.3746   -0.5665 C   0  0  0  0  0  0
    4.6300    2.6082    0.3126 C   0  0  0  0  0  0
    4.3706    3.1058    1.5902 C   0  0  0  0  0  0
    3.0715    3.3635    1.9762 C   0  0  0  0  0  0
    2.0273    3.1347    1.0976 C   0  0  0  0  0  0
    6.0210    2.3290   -0.1076 C   0  3  0  0  0  0
    7.0284    2.5530    0.7337 N   0  0  0  0  0  0
    7.9402    2.3700    0.4582 H   0  0  0  0  0  0
    6.8504    2.8992    1.6222 H   0  0  0  0  0  0
    6.2654    1.8538   -1.3272 N   0  0  0  0  0  0
    7.1772    1.6708   -1.6027 H   0  0  0  0  0  0
    5.5315    1.6906   -1.9402 H   0  0  0  0  0  0
    2.3632   -4.6994   -1.4481 C   0  0  0  0  0  0
    0.3970   -4.0337   -2.8385 C   0  0  0  0  0  0
    1.9133   -2.6951   -2.0971 H   0  0  0  0  0  0
   -1.3569   -2.3579    2.6893 H   0  0  0  0  0  0
   -0.7152   -4.9071   -0.6692 H   0  0  0  0  0  0
   -2.7205   -4.1951    2.4202 H   0  0  0  0  0  0
   -4.1868   -5.2724    0.7356 H   0  0  0  0  0  0
   -3.7298   -3.6290    0.2272 H   0  0  0  0  0  0
   -2.9314   -5.0414   -0.5048 H   0  0  0  0  0  0
   -1.3433   -6.4181    0.8460 H   0  0  0  0  0  0
   -1.0103   -5.9865    2.5405 H   0  0  0  0  0  0
   -2.5987   -6.6492    2.0865 H   0  0  0  0  0  0
    1.0214    0.1820    1.5216 H   0  0  0  0  0  0
   -1.3534    0.2976    2.1421 H   0  0  0  0  0  0
   -1.0740   -0.8133    3.5045 H   0  0  0  0  0  0
   -0.3490    0.8122    3.5186 H   0  0  0  0  0  0
    2.5497   -1.3511    2.7311 H   0  0  0  0  0  0
    1.9338   -0.0785    3.8126 H   0  0  0  0  0  0
    1.2558   -1.7222    3.8957 H   0  0  0  0  0  0
    1.9953    0.0317   -2.2760 H   0  0  0  0  0  0
    0.3893    0.7799    0.1117 H   0  0  0  0  0  0
   -3.1958    2.1862   -2.7859 H   0  0  0  0  0  0
   -2.7730    0.4742   -3.0495 H   0  0  0  0  0  0
   -5.0443    0.8713   -1.9358 H   0  0  0  0  0  0
   -3.9401   -0.2022   -1.0372 H   0  0  0  0  0  0
   -7.3537    1.8625    1.5690 H   0  0  0  0  0  0
   -6.6011    0.4733    0.7493 H   0  0  0  0  0  0
   -5.7874    1.2359    2.1366 H   0  0  0  0  0  0
   -3.1240    2.6705    1.3390 H   0  0  0  0  0  0
   -2.7012    0.9585    1.0755 H   0  0  0  0  0  0
   -0.8551    2.2687    0.2298 H   0  0  0  0  0  0
   -1.9567    3.3423   -0.6717 H   0  0  0  0  0  0
    1.4752    2.5243   -2.1428 H   0  0  0  0  0  0
    0.3254    3.0851   -0.9051 H   0  0  0  0  0  0
    3.7668    1.9892   -1.5566 H   0  0  0  0  0  0
    5.1851    3.2883    2.2755 H   0  0  0  0  0  0
    2.8694    3.7484    2.9648 H   0  0  0  0  0  0
    1.0120    3.3380    1.4045 H   0  0  0  0  0  0
    2.9188   -4.9473   -2.3524 H   0  0  0  0  0  0
    3.0570   -4.3726   -0.6735 H   0  0  0  0  0  0
    1.8207   -5.5793   -1.1022 H   0  0  0  0  0  0
   -0.1455   -4.9136   -2.4927 H   0  0  0  0  0  0
   -0.3100   -3.2326   -3.0545 H   0  0  0  0  0  0
    0.9526   -4.2816   -3.7429 H   0  0  0  0  0  0
  1  2  1  0  0  0
  1 45  1  0  0  0
  1 46  1  0  0  0
  1 47  1  0  0  0
  2  3  1  0  0  0
  2  7  2  0  0  0
  3  4  2  0  0  0
  3 14  1  0  0  0
  4  5  1  0  0  0
  4 11  1  0  0  0
  5  6  2  0  0  0
  5 48  1  0  0  0
  6  7  1  0  0  0
  6  8  1  0  0  0
  7 49  1  0  0  0
  8  9  1  0  0  0
  8 10  1  0  0  0
  8 50  1  0  0  0
  9 51  1  0  0  0
  9 52  1  0  0  0
  9 53  1  0  0  0
 10 54  1  0  0  0
 10 55  1  0  0  0
 10 56  1  0  0  0
 11 12  1  0  0  0
 11 13  1  0  0  0
 11 57  1  0  0  0
 12 58  1  0  0  0
 12 59  1  0  0  0
 12 60  1  0  0  0
 13 61  1  0  0  0
 13 62  1  0  0  0
 13 63  1  0  0  0
 14 15  2  0  0  0
 14 16  2  0  0  0
 14 17  1  0  0  0
 17 18  1  0  0  0
 17 64  1  0  0  0
 18 19  1  0  0  0
 18 31  1  0  0  0
 18 65  1  0  0  0
 19 20  2  0  0  0
 19 21  1  0  0  0
 21 22  1  0  0  0
 21 30  1  0  0  0
 22 23  1  0  0  0
 22 66  1  0  0  0
 22 67  1  0  0  0
 23 24  1  0  0  0
 23 68  1  0  0  0
 23 69  1  0  0  0
 24 25  1  0  0  0
 24 29  1  0  0  0
 25 26  2  0  0  0
 25 27  2  0  0  0
 25 28  1  0  0  0
 28 70  1  0  0  0
 28 71  1  0  0  0
 28 72  1  0  0  0
 29 30  1  0  0  0
 29 73  1  0  0  0
 29 74  1  0  0  0
 30 75  1  0  0  0
 30 76  1  0  0  0
 31 32  1  0  0  0
 31 77  1  0  0  0
 31 78  1  0  0  0
 32 33  1  0  0  0
 32 37  2  0  0  0
 33 34  2  0  0  0
 33 79  1  0  0  0
 34 35  1  0  0  0
 34 38  1  0  0  0
 35 36  2  0  0  0
 35 80  1  0  0  0
 36 37  1  0  0  0
 36 81  1  0  0  0
 37 82  1  0  0  0
 38 39  1  0  0  0
 38 42  1  0  0  0
 39 40  1  0  0  0
 39 41  1  0  0  0
 42 43  1  0  0  0
 42 44  1  0  0  0
 45 83  1  0  0  0
 45 84  1  0  0  0
 45 85  1  0  0  0
 46 86  1  0  0  0
 46 87  1  0  0  0
 46 88  1  0  0  0
M  CHG  1  38   1
M  END
>  <Activity>
6.553

>  <set>
2

>  <Min_dist>
0.112903

>  <Avg_dist>
0.295943

$$$$
