#	Name:			1
#	Creating user name:	jeff
#	Creation time:		Tue Feb 17 18:13:37 2004

#	Modifying user name:	jeff
#	Modification time:	Tue Feb 17 18:13:37 2004

@<TRIPOS>MOLECULE
1
   24    24     1     0     0
SMALL
USER_CHARGES


@<TRIPOS>ATOM
      1 C1          1.499000    1.487000    0.770000 C.3       1 MAIN        0.318400 
      2 C2          1.564000    1.681000   -0.763000 C.3       1 MAIN        0.059600 
      3 C3          0.379000    1.010000   -1.486000 C.3       1 MAIN        0.114600 
      4 C4          0.190000   -0.423000   -0.985000 C.3       1 MAIN        0.139800 
      5 C5          0.008000   -0.379000    0.537000 C.3       1 MAIN        0.286600 
      6 C6         -0.389000   -1.759000    1.084000 C.3       1 MAIN        0.053500 
      7 O2          1.637000    3.073000   -1.080000 O.3       1 MAIN       -0.647600 
      8 O3          0.552000    1.052000   -2.903000 O.3       1 MAIN       -0.671000 
      9 O4         -0.923000   -1.060000   -1.607000 O.3       1 MAIN       -0.668700 
     10 O5          1.195000    0.131000    1.158000 O.3       1 MAIN       -0.470600 
     11 O6          0.356000   -2.793000    0.443000 O.3       1 MAIN       -0.675100 
     12 O7          0.626000    2.437000    1.386000 O.3       1 MAIN       -0.635000 
     13 H1          2.508985    1.696937    1.151880 H         1 MAIN        0.105000 
     14 H2          2.486574    1.202038   -1.122760 H         1 MAIN        0.092900 
     15 H3         -0.532163    1.575989   -1.242251 H         1 MAIN        0.114500 
     16 H4          1.094900   -1.002321   -1.220624 H         1 MAIN        0.140800 
     17 H5         -0.814022    0.316508    0.761773 H         1 MAIN        0.063500 
     18 H6         -1.461662   -1.923096    0.903881 H         1 MAIN        0.076600 
     19 H7         -0.189969   -1.788894    2.165419 H         1 MAIN        0.063200 
     20 H8          2.373151    3.463456   -0.623792 H         1 MAIN        0.420800 
     21 H9          0.666471    1.953035   -3.181445 H         1 MAIN        0.433400 
     22 H10        -0.792501   -1.077817   -2.547826 H         1 MAIN        0.441800 
     23 H11         0.095490   -3.635932    0.795278 H         1 MAIN        0.437000 
     24 H12         0.861337    3.312965    1.103508 H         1 MAIN        0.406100 
@<TRIPOS>BOND
     1    1   10 1    
     2    1    2 1    
     3    2    7 1    
     4    2    3 1    
     5    3    8 1    
     6    3    4 1    
     7    4    9 1    
     8    4    5 1    
     9    5   10 1    
    10    5    6 1    
    11    6   11 1    
    12    1   12 1    
    13    1   13 1    
    14    2   14 1    
    15    3   15 1    
    16    4   16 1    
    17    5   17 1    
    18    6   18 1    
    19    6   19 1    
    20    7   20 1    
    21    8   21 1    
    22    9   22 1    
    23   11   23 1    
    24   12   24 1    
@<TRIPOS>SUBSTRUCTURE
     1 MAIN        1 PERM              0 ****  ****    0 ROOT 
