#	Name:			10
#	Creating user name:	jeff
#	Creation time:		Tue Feb 17 18:13:38 2004

#	Modifying user name:	jeff
#	Modification time:	Tue Feb 17 18:13:38 2004

@<TRIPOS>MOLECULE
10
   27    27     1     0     0
SMALL
USER_CHARGES


@<TRIPOS>ATOM
      1 C1          1.280000    1.146000    0.841000 C.3       1 MAIN        0.135900 
      2 C2          1.352000    1.467000   -0.673000 C.3       1 MAIN        0.154900 
      3 C3          0.183000    0.823000   -1.448000 C.3       1 MAIN        0.057300 
      4 C4          0.000000   -0.642000   -1.016000 C.3       1 MAIN        0.322900 
      5 C5         -0.147000   -0.698000    0.507000 C.3       1 MAIN        0.145000 
      6 C6         -0.493000   -2.116000    0.975000 C.3       1 MAIN        0.118700 
      7 C7          2.570000    1.563000    1.539000 C.3       1 MAIN        0.164500 
      8 O2          1.383000    2.887000   -0.891000 O.3       1 MAIN       -0.677200 
      9 O3          0.384000    0.945000   -2.860000 O.3       1 MAIN       -0.689100 
     10 O4         -1.127000   -1.250000   -1.628000 O.3       1 MAIN       -0.702600 
     11 O5          1.059000   -0.243000    1.103000 O.3       1 MAIN       -0.495800 
     12 O6          0.406000   -3.055000    0.396000 O.3       1 MAIN       -0.651500 
     13 O7          2.292000    2.468000    2.595000 O.3       1 MAIN       -0.691300 
     14 H1          0.443430    1.717632    1.269208 H         1 MAIN        0.093300 
     15 H2          2.288901    1.042462   -1.062819 H         1 MAIN        0.084800 
     16 H3         -0.737924    1.367344   -1.191948 H         1 MAIN        0.089600 
     17 H4          0.897918   -1.205612   -1.309359 H         1 MAIN        0.083200 
     18 H5         -0.964510   -0.026262    0.807699 H         1 MAIN        0.051800 
     19 H6         -1.520890   -2.359705    0.668366 H         1 MAIN        0.065100 
     20 H7         -0.415596   -2.166440    2.071102 H         1 MAIN        0.046600 
     21 H8          3.234985    2.049838    0.810468 H         1 MAIN        0.048300 
     22 H9          3.065361    0.670169    1.948200 H         1 MAIN        0.038700 
     23 H10         2.107515    3.265874   -0.407231 H         1 MAIN        0.441700 
     24 H11         0.492538    1.861226   -3.086384 H         1 MAIN        0.453900 
     25 H12        -1.032504   -1.213501   -2.572584 H         1 MAIN        0.447200 
     26 H13         0.183723   -3.930016    0.691701 H         1 MAIN        0.420300 
     27 H14         3.104155    2.718274    3.019578 H         1 MAIN        0.443700 
@<TRIPOS>BOND
     1   11    1 1    
     2    1    2 1    
     3    1    7 1    
     4    7   13 1    
     5    2    8 1    
     6    2    3 1    
     7    3    9 1    
     8    3    4 1    
     9    4   10 1    
    10    4    5 1    
    11    5   11 1    
    12    5    6 1    
    13    6   12 1    
    14    1   14 1    
    15    2   15 1    
    16    3   16 1    
    17    4   17 1    
    18    5   18 1    
    19    6   19 1    
    20    6   20 1    
    21    7   21 1    
    22    7   22 1    
    23    8   23 1    
    24    9   24 1    
    25   10   25 1    
    26   12   26 1    
    27   13   27 1    
@<TRIPOS>SUBSTRUCTURE
     1 MAIN        1 PERM              0 ****  ****    0 ROOT 
