#	Name:			11
#	Creating user name:	jeff
#	Creation time:		Tue Feb 17 18:13:38 2004

#	Modifying user name:	jeff
#	Modification time:	Tue Feb 17 18:13:38 2004

@<TRIPOS>MOLECULE
11
   28    28     1     0     0
SMALL
USER_CHARGES


@<TRIPOS>ATOM
      1 C1          1.241000    1.430000    0.849000 C.3       1 MAIN        0.252100 
      2 C2          1.399000    1.588000   -0.683000 C.3       1 MAIN        0.096000 
      3 C3          0.238000    0.939000   -1.454000 C.3       1 MAIN        0.022900 
      4 C4          0.041000   -0.495000   -0.953000 C.3       1 MAIN        0.328500 
      5 C5         -0.266000   -0.454000    0.548000 C.3       1 MAIN        0.083200 
      6 C6         -0.593000   -1.863000    1.063000 C.3       1 MAIN        0.049600 
      7 C7          2.625000    1.607000    1.473000 C.3       1 MAIN        0.112500 
      8 O2          1.546000    2.970000   -1.035000 O.3       1 MAIN       -0.654100 
      9 O3          0.473000    0.989000   -2.864000 O.3       1 MAIN       -0.680600 
     10 O4         -0.996000   -1.175000   -1.647000 O.3       1 MAIN       -0.685100 
     11 O5          0.835000    0.111000    1.264000 O.3       1 MAIN       -0.370300 
     12 O6          0.299000   -2.822000    0.497000 O.3       1 MAIN       -0.664300 
     13 O1          2.558000    2.306000    2.709000 O.3       1 MAIN       -0.674500 
     14 O7          0.356000    2.443000    1.342000 O.3       1 MAIN       -0.643900 
     15 H1          2.322149    1.067103   -0.977001 H         1 MAIN        0.153200 
     16 H2         -0.680706    1.506260   -1.243834 H         1 MAIN        0.115400 
     17 H3          0.978101   -1.049413   -1.109342 H         1 MAIN        0.089700 
     18 H4         -1.146806    0.185539    0.706569 H         1 MAIN        0.101400 
     19 H5         -1.625383   -2.119949    0.783471 H         1 MAIN        0.088800 
     20 H6         -0.494711   -1.879786    2.158460 H         1 MAIN        0.066100 
     21 H7          3.260351    2.173950    0.776673 H         1 MAIN        0.071700 
     22 H8          3.066948    0.614987    1.647836 H         1 MAIN        0.067900 
     23 H9          2.268265    3.346243   -0.545843 H         1 MAIN        0.445500 
     24 H10         0.589590    1.892410   -3.133735 H         1 MAIN        0.446800 
     25 H11        -0.795737   -1.194547   -2.575446 H         1 MAIN        0.437100 
     26 H12         0.083639   -3.687104    0.825198 H         1 MAIN        0.432700 
     27 H13         3.432547    2.398322    3.068366 H         1 MAIN        0.440800 
     28 H14         0.655639    3.295405    1.048534 H         1 MAIN        0.471100 
@<TRIPOS>BOND
     1    1   11 1    
     2    1    7 1    
     3    1    2 1    
     4    2    8 1    
     5    2    3 1    
     6    3    9 1    
     7    3    4 1    
     8    4   10 1    
     9    4    5 1    
    10   11    5 1    
    11    5    6 1    
    12    6   12 1    
    13    7   13 1    
    14    1   14 1    
    15    2   15 1    
    16    3   16 1    
    17    4   17 1    
    18    5   18 1    
    19    6   19 1    
    20    6   20 1    
    21    7   21 1    
    22    7   22 1    
    23    8   23 1    
    24    9   24 1    
    25   10   25 1    
    26   12   26 1    
    27   13   27 1    
    28   14   28 1    
@<TRIPOS>SUBSTRUCTURE
     1 MAIN        1 PERM              0 ****  ****    0 ROOT 
