#	Name:			12
#	Creating user name:	jeff
#	Creation time:		Tue Feb 17 18:13:38 2004

#	Modifying user name:	jeff
#	Modification time:	Tue Feb 17 18:13:38 2004

@<TRIPOS>MOLECULE
12
   33    33     1     0     0
SMALL
USER_CHARGES


@<TRIPOS>ATOM
      1 C1          1.096000    1.257000    0.827000 C.3       1 MAIN       -0.033900 
      2 C2          1.245000    1.492000   -0.688000 C.3       1 MAIN        0.184500 
      3 C3          0.095000    0.830000   -1.468000 C.3       1 MAIN        0.045200 
      4 C4         -0.069000   -0.628000   -1.003000 C.3       1 MAIN        0.352100 
      5 C5         -0.256000   -0.656000    0.519000 C.3       1 MAIN        0.049300 
      6 C6         -0.542000   -2.081000    1.005000 C.3       1 MAIN        0.103600 
      7 C7          2.353000    1.744000    1.526000 C.3       1 MAIN        0.095200 
      8 O2          1.326000    2.897000   -0.961000 O.3       1 MAIN       -0.661000 
      9 O3          0.323000    0.925000   -2.877000 O.3       1 MAIN       -0.682600 
     10 O4         -1.162000   -1.282000   -1.629000 O.3       1 MAIN       -0.694100 
     11 O5          0.904000   -0.125000    1.149000 O.3       1 MAIN       -0.357500 
     12 O6          0.381000   -2.994000    0.420000 O.3       1 MAIN       -0.658100 
     13 O7          2.035000    2.492000    2.693000 O.3       1 MAIN       -0.692900 
     14 S1          3.161000    2.590000    3.840000 S.o2      1 MAIN        2.314800 
     15 O           4.095262    3.684479    3.661759 O.2       1 MAIN       -0.957600 
     16 O           3.807731    1.293501    3.897690 O.2       1 MAIN       -0.959300 
     17 C8          2.266000    2.938000    5.340000 C.3       1 MAIN       -0.740200 
     18 H1          0.229192    1.829110    1.189364 H         1 MAIN        0.153600 
     19 H2          2.186100    1.026296   -1.015757 H         1 MAIN        0.089800 
     20 H3         -0.836216    1.368839   -1.238950 H         1 MAIN        0.107200 
     21 H4          0.850105   -1.175895   -1.258015 H         1 MAIN        0.086300 
     22 H5         -1.116990   -0.022706    0.779017 H         1 MAIN        0.079800 
     23 H6         -1.565241   -2.364540    0.717671 H         1 MAIN        0.076800 
     24 H7         -0.445074   -2.117882    2.100089 H         1 MAIN        0.051600 
     25 H8          2.923513    2.382135    0.835150 H         1 MAIN        0.103900 
     26 H9          2.964081    0.875251    1.812057 H         1 MAIN        0.123100 
     27 H10         2.043377    3.274906   -0.465968 H         1 MAIN        0.413300 
     28 H11         0.418338    1.838039   -3.121479 H         1 MAIN        0.440600 
     29 H12        -1.044347   -1.263607   -2.571507 H         1 MAIN        0.439600 
     30 H13         0.194810   -3.873273    0.727753 H         1 MAIN        0.426900 
     31 H14         2.973421    3.020355    6.178316 H         1 MAIN        0.235400 
     32 H15         1.554164    2.123501    5.539638 H         1 MAIN        0.235600 
     33 H16         1.717737    3.885080    5.228550 H         1 MAIN        0.228800 
@<TRIPOS>BOND
     1    1   11 1    
     2    1    2 1    
     3    7    1 1    
     4   13    7 1    
     5    2    8 1    
     6    2    3 1    
     7   14   15 2    
     8    3    9 1    
     9    3    4 1    
    10   14   16 2    
    11    4   10 1    
    12    5    4 1    
    13   11    5 1    
    14    5    6 1    
    15    6   12 1    
    16   13   14 1    
    17   14   17 1    
    18    1   18 1    
    19    2   19 1    
    20    3   20 1    
    21    4   21 1    
    22    5   22 1    
    23    6   23 1    
    24    6   24 1    
    25    7   25 1    
    26    7   26 1    
    27    8   27 1    
    28    9   28 1    
    29   10   29 1    
    30   12   30 1    
    31   17   31 1    
    32   17   32 1    
    33   17   33 1    
@<TRIPOS>SUBSTRUCTURE
     1 MAIN        1 PERM              0 ****  ****    0 ROOT 
