#	Name:			13
#	Creating user name:	jeff
#	Creation time:		Tue Feb 17 18:13:38 2004

#	Modifying user name:	jeff
#	Modification time:	Tue Feb 17 18:13:38 2004

@<TRIPOS>MOLECULE
13
   34    34     1     0     0
SMALL
USER_CHARGES


@<TRIPOS>ATOM
      1 C1          0.968000    1.569000    0.882000 C.3       1 MAIN        0.432300 
      2 C2          1.285000    1.639000   -0.627000 C.3       1 MAIN        0.063100 
      3 C3          0.187000    0.959000   -1.459000 C.3       1 MAIN        0.047300 
      4 C4         -0.001000   -0.467000   -0.934000 C.3       1 MAIN        0.194800 
      5 C5         -0.425000   -0.405000    0.539000 C.3       1 MAIN        0.118500 
      6 C6         -0.696000   -1.822000    1.071000 C.3       1 MAIN        0.089200 
      7 C7          2.270000    1.846000    1.620000 C.3       1 MAIN        0.036800 
      8 O2          1.500000    2.996000   -1.033000 O.3       1 MAIN       -0.640900 
      9 O3          0.503000    0.993000   -2.853000 O.3       1 MAIN       -0.654600 
     10 O4         -0.956000   -1.204000   -1.684000 O.3       1 MAIN       -0.655800 
     11 O5          0.569000    0.258000    1.330000 O.3       1 MAIN       -0.393900 
     12 O6          0.254000   -2.750000    0.544000 O.3       1 MAIN       -0.668200 
     13 O13         0.019000    2.583000    1.224000 O.3       1 MAIN       -0.624000 
     14 O7          2.044000    2.565000    2.831000 O.3       1 MAIN       -0.650700 
     15 S1          3.251000    2.628000    3.895000 S.o2      1 MAIN        2.310400 
     16 O           4.208157    3.688282    3.645699 O.2       1 MAIN       -0.965500 
     17 O           3.846568    1.305981    3.903117 O.2       1 MAIN       -0.957700 
     18 C8          2.484000    3.003000    5.458000 C.3       1 MAIN       -0.756100 
     19 H1          2.220646    1.086968   -0.799633 H         1 MAIN        0.111400 
     20 H2         -0.754993    1.508211   -1.314115 H         1 MAIN        0.128000 
     21 H3          0.964276   -0.989917   -1.003100 H         1 MAIN        0.130400 
     22 H4         -1.358151    0.173537    0.606078 H         1 MAIN        0.105600 
     23 H5         -1.708020   -2.132476    0.772011 H         1 MAIN        0.078800 
     24 H6         -0.623675   -1.815524    2.168589 H         1 MAIN        0.060200 
     25 H7          2.929491    2.439798    0.970038 H         1 MAIN        0.107300 
     26 H8          2.755824    0.888418    1.858720 H         1 MAIN        0.104100 
     27 H9          2.183421    3.382114   -0.497882 H         1 MAIN        0.415800 
     28 H10         0.609842    1.894941   -3.131546 H         1 MAIN        0.427900 
     29 H11        -0.686171   -1.237605   -2.594254 H         1 MAIN        0.436700 
     30 H12         0.070532   -3.618103    0.883466 H         1 MAIN        0.432800 
     31 H13         0.326919    3.424363    0.908098 H         1 MAIN        0.419100 
     32 H14         3.255290    3.062191    6.240054 H         1 MAIN        0.240000 
     33 H15         1.763917    2.211338    5.712414 H         1 MAIN        0.239100 
     34 H16         1.959156    3.967090    5.386977 H         1 MAIN        0.237600 
@<TRIPOS>BOND
     1    1   11 1    
     2    1    2 1    
     3    7    1 1    
     4    1   13 1    
     5   14    7 1    
     6    2    8 1    
     7    2    3 1    
     8   15   16 2    
     9    3    9 1    
    10    3    4 1    
    11   15   17 2    
    12    4   10 1    
    13    5    4 1    
    14   11    5 1    
    15    5    6 1    
    16    6   12 1    
    17   14   15 1    
    18   15   18 1    
    19    2   19 1    
    20    3   20 1    
    21    4   21 1    
    22    5   22 1    
    23    6   23 1    
    24    6   24 1    
    25    7   25 1    
    26    7   26 1    
    27    8   27 1    
    28    9   28 1    
    29   10   29 1    
    30   12   30 1    
    31   13   31 1    
    32   18   32 1    
    33   18   33 1    
    34   18   34 1    
@<TRIPOS>SUBSTRUCTURE
     1 MAIN        1 PERM              0 ****  ****    0 ROOT 
