#	Name:			14
#	Creating user name:	jeff
#	Creation time:		Tue Feb 17 18:13:38 2004

#	Modifying user name:	jeff
#	Modification time:	Tue Feb 17 18:13:38 2004

@<TRIPOS>MOLECULE
14
   29    29     1     0     0
SMALL
USER_CHARGES


@<TRIPOS>ATOM
      1 C1          1.022000    1.255000    0.915000 C.3       1 MAIN        0.034300 
      2 C2          1.231000    1.505000   -0.601000 C.3       1 MAIN        0.215000 
      3 C3          0.150000    0.788000   -1.433000 C.3       1 MAIN        0.048800 
      4 C4          0.086000   -0.702000   -1.021000 C.3       1 MAIN        0.269300 
      5 C5         -0.047000   -0.800000    0.500000 C.3       1 MAIN        0.096700 
      6 C6         -0.276000   -2.271000    0.878000 C.3       1 MAIN        0.098700 
      7 C7         -0.323000    1.829000    1.497000 C.3       1 MAIN        0.157500 
      8 O2          1.351000    2.881000   -0.958000 O.3       1 MAIN       -0.826600 
      9 O3          0.370000    0.923000   -2.844000 O.3       1 MAIN       -0.674700 
     10 O4         -1.009000   -1.367000   -1.621000 O.3       1 MAIN       -0.689500 
     11 O5          1.090000   -0.177000    1.147000 O.3       1 MAIN       -0.453000 
     12 O6          0.659000   -3.090000    0.171000 O.3       1 MAIN       -0.667700 
     13 N1         -0.526479    3.271763    1.302242 N.4       1 MAIN       -0.532800 
     14 H1          1.848790    1.740994    1.453706 H         1 MAIN        0.144400 
     15 H2          2.192399    1.037781   -0.860602 H         1 MAIN        0.133000 
     16 H3         -0.820198    1.251329   -1.200582 H         1 MAIN        0.117700 
     17 H4          1.016656   -1.195908   -1.337086 H         1 MAIN        0.112700 
     18 H5         -0.941507   -0.237702    0.806028 H         1 MAIN        0.052600 
     19 H6         -1.300761   -2.565087    0.607165 H         1 MAIN        0.062800 
     20 H7         -0.131796   -2.399192    1.960934 H         1 MAIN        0.088800 
     21 H8         -0.339425    1.626385    2.578042 H         1 MAIN        0.122100 
     22 H9         -1.156463    1.299756    1.012010 H         1 MAIN        0.109600 
     23 H10         2.024434    3.288549   -0.426126 H         1 MAIN        0.558500 
     24 H11         0.405433    1.844503   -3.072202 H         1 MAIN        0.467300 
     25 H12        -0.934140   -1.310875   -2.566381 H         1 MAIN        0.463500 
     26 H13         0.520324   -4.000899    0.402370 H         1 MAIN        0.460600 
     27 H14        -1.409063    3.544092    1.705908 H         1 MAIN        0.459500 
     28 H15        -0.529352    3.480616    0.316120 H         1 MAIN        0.525700 
     29 H16         0.219398    3.779930    1.751103 H         1 MAIN        0.467100 
@<TRIPOS>BOND
     1    1    2 1    
     2    1    7 1    
     3    1   11 1    
     4    2    3 1    
     5    2    8 1    
     6    3    4 1    
     7    3    9 1    
     8    4    5 1    
     9    4   10 1    
    10    5    6 1    
    11   11    5 1    
    12    6   12 1    
    13    7   13 1    
    14    1   14 1    
    15    2   15 1    
    16    3   16 1    
    17    4   17 1    
    18    5   18 1    
    19    6   19 1    
    20    6   20 1    
    21    7   21 1    
    22    7   22 1    
    23    8   23 1    
    24    9   24 1    
    25   10   25 1    
    26   12   26 1    
    27   13   27 1    
    28   13   28 1    
    29   13   29 1    
@<TRIPOS>SUBSTRUCTURE
     1 MAIN        1 PERM              0 ****  ****    0 ROOT 
