#	Name:			15
#	Creating user name:	jeff
#	Creation time:		Tue Feb 17 18:13:38 2004

#	Modifying user name:	jeff
#	Modification time:	Tue Feb 17 18:13:38 2004

@<TRIPOS>MOLECULE
15
   29    29     1     0     0
SMALL
USER_CHARGES


@<TRIPOS>ATOM
      1 C1          1.363000    1.128000    0.761000 C.3       1 MAIN        0.178200 
      2 C2          1.472000    1.384000   -0.745000 C.3       1 MAIN        0.082900 
      3 C3          0.227000    0.851000   -1.454000 C.3       1 MAIN       -0.006100 
      4 C4         -0.076000   -0.574000   -0.982000 C.3       1 MAIN        0.433500 
      5 C5         -0.138000   -0.600000    0.538000 C.3       1 MAIN       -0.156100 
      6 C6         -0.562000   -1.965000    1.051000 C.3       1 MAIN        0.186500 
      7 O2          1.647000    2.774000   -1.010000 O.3       1 MAIN       -0.697700 
      8 O3          0.366000    0.937000   -2.864000 O.3       1 MAIN       -0.643700 
      9 O4         -1.286000   -1.062000   -1.502000 O.3       1 MAIN       -0.684100 
     10 O5          1.112000   -0.231000    1.063000 O.3       1 MAIN       -0.417700 
     11 O6          0.204000   -2.980000    0.436000 O.3       1 MAIN       -0.672700 
     12 C7          2.583000    1.591000    1.512000 C.3       1 MAIN       -0.019200 
     13 N14         2.140000    2.549000    2.561000 N.4       1 MAIN       -0.419900 
     14 H1          0.505941    1.713270    1.125531 H         1 MAIN        0.117400 
     15 H2          2.350672    0.844772   -1.128593 H         1 MAIN        0.129300 
     16 H3         -0.624245    1.485780   -1.166926 H         1 MAIN        0.133100 
     17 H4          0.738340   -1.232184   -1.319074 H         1 MAIN        0.073800 
     18 H5         -0.885766    0.136253    0.867776 H         1 MAIN        0.139500 
     19 H6         -1.625981   -2.124283    0.821764 H         1 MAIN        0.079200 
     20 H7         -0.411303   -2.006226    2.139837 H         1 MAIN        0.039900 
     21 H8          2.424177    3.086403   -0.561781 H         1 MAIN        0.508000 
     22 H9          0.552513    1.835560   -3.109566 H         1 MAIN        0.435000 
     23 H10        -1.251460   -1.047450   -2.451260 H         1 MAIN        0.437500 
     24 H11        -0.070923   -3.827640    0.765278 H         1 MAIN        0.446000 
     25 H12         3.279818    2.088988    0.821762 H         1 MAIN        0.198900 
     26 H13         3.082787    0.729934    1.979711 H         1 MAIN        0.163100 
     27 H14         2.941247    2.874185    3.078997 H         1 MAIN        0.457300 
     28 H15         1.499108    2.088192    3.187862 H         1 MAIN        0.462000 
     29 H16         1.679660    3.333580    2.126760 H         1 MAIN        0.438200 
@<TRIPOS>BOND
     1   10    1 1    
     2    1    2 1    
     3    1   12 1    
     4    2    7 1    
     5    2    3 1    
     6    3    8 1    
     7    3    4 1    
     8    4    9 1    
     9    4    5 1    
    10   10    5 1    
    11    5    6 1    
    12    6   11 1    
    13   12   13 1    
    14    1   14 1    
    15    2   15 1    
    16    3   16 1    
    17    4   17 1    
    18    5   18 1    
    19    6   19 1    
    20    6   20 1    
    21    7   21 1    
    22    8   22 1    
    23    9   23 1    
    24   11   24 1    
    25   12   25 1    
    26   12   26 1    
    27   13   27 1    
    28   13   28 1    
    29   13   29 1    
@<TRIPOS>SUBSTRUCTURE
     1 MAIN        1 PERM              0 ****  ****    0 ROOT 
