#	Name:			16
#	Creating user name:	jeff
#	Creation time:		Tue Feb 17 18:13:38 2004

#	Modifying user name:	jeff
#	Modification time:	Tue Feb 17 18:13:38 2004

@<TRIPOS>MOLECULE
16
   32    32     1     0     0
SMALL
USER_CHARGES


@<TRIPOS>ATOM
      1 C1          1.568000    1.176000    0.872000 C.3       1 MAIN        0.148900 
      2 C2          1.596000    1.545000   -0.668000 C.3       1 MAIN        0.116200 
      3 C3          0.431000    0.915000   -1.482000 C.3       1 MAIN        0.045300 
      4 C4          0.210000   -0.552000   -1.073000 C.3       1 MAIN        0.389400 
      5 C5          0.015000   -0.603000    0.440000 C.3       1 MAIN       -0.134700 
      6 C6         -0.423000   -2.008000    0.886000 C.3       1 MAIN        0.178700 
      7 O2          1.573000    2.968000   -0.868000 O.3       1 MAIN       -0.699000 
      8 O3          0.661000    1.031000   -2.884000 O.3       1 MAIN       -0.656400 
      9 O4         -0.914000   -1.106000   -1.748000 O.3       1 MAIN       -0.684600 
     10 O5          1.222000   -0.207000    1.090000 O.3       1 MAIN       -0.413200 
     11 O6          0.370000   -3.008000    0.253000 O.3       1 MAIN       -0.653200 
     12 C7          2.883000    1.539000    1.632000 C.3       1 MAIN       -0.223500 
     13 C14         2.753000    1.991000    3.124000 C.3       1 MAIN        0.142500 
     14 N14         4.131000    1.962000    3.855000 N.4       1 MAIN       -0.440800 
     15 H1          0.767499    1.782215    1.321084 H         1 MAIN        0.113800 
     16 H2          2.539784    1.155962   -1.077751 H         1 MAIN        0.115200 
     17 H3         -0.486789    1.473062   -1.244923 H         1 MAIN        0.124700 
     18 H4          1.101989   -1.137528   -1.340370 H         1 MAIN        0.069700 
     19 H5         -0.778119    0.107862    0.714975 H         1 MAIN        0.117900 
     20 H6         -1.478443   -2.159820    0.615878 H         1 MAIN        0.057800 
     21 H7         -0.307746   -2.092820    1.976641 H         1 MAIN        0.048100 
     22 H8          2.280284    3.368358   -0.376103 H         1 MAIN        0.490300 
     23 H9          0.793936    1.944457   -3.108552 H         1 MAIN        0.435900 
     24 H10        -0.771968   -1.064325   -2.686398 H         1 MAIN        0.437400 
     25 H11         0.084824   -3.867319    0.540655 H         1 MAIN        0.433000 
     26 H12         3.367016    2.358421    1.080409 H         1 MAIN        0.148400 
     27 H13         3.531177    0.650492    1.612128 H         1 MAIN        0.113700 
     28 H14         2.059233    1.313397    3.643149 H         1 MAIN        0.140400 
     29 H15         2.355025    3.016058    3.153103 H         1 MAIN        0.114900 
     30 H16         4.010490    2.258076    4.810971 H         1 MAIN        0.442200 
     31 H17         4.771925    2.584739    3.388680 H         1 MAIN        0.449300 
     32 H18         4.500872    1.024482    3.837741 H         1 MAIN        0.453700 
@<TRIPOS>BOND
     1   10    1 1    
     2    1    2 1    
     3    1   12 1    
     4    2    7 1    
     5    2    3 1    
     6    3    8 1    
     7    3    4 1    
     8    4    9 1    
     9    4    5 1    
    10   10    5 1    
    11    5    6 1    
    12    6   11 1    
    13   12   13 1    
    14   13   14 1    
    15    1   15 1    
    16    2   16 1    
    17    3   17 1    
    18    4   18 1    
    19    5   19 1    
    20    6   20 1    
    21    6   21 1    
    22    7   22 1    
    23    8   23 1    
    24    9   24 1    
    25   11   25 1    
    26   12   26 1    
    27   12   27 1    
    28   13   28 1    
    29   13   29 1    
    30   14   30 1    
    31   14   31 1    
    32   14   32 1    
@<TRIPOS>SUBSTRUCTURE
     1 MAIN        1 PERM              0 ****  ****    0 ROOT 
