#	Name:			17
#	Creating user name:	jeff
#	Creation time:		Tue Feb 17 18:13:38 2004

#	Modifying user name:	jeff
#	Modification time:	Tue Feb 17 18:13:38 2004

@<TRIPOS>MOLECULE
17
   27    27     1     0     0
SMALL
USER_CHARGES


@<TRIPOS>ATOM
      1 C1          1.199000    1.220000    0.891000 C.3       1 MAIN        0.261500 
      2 C2          1.350000    1.504000   -0.626000 C.3       1 MAIN        0.157500 
      3 C3          0.221000    0.837000   -1.440000 C.3       1 MAIN        0.091600 
      4 C4          0.044000   -0.628000   -1.002000 C.3       1 MAIN        0.329600 
      5 C5         -0.173000   -0.667000    0.513000 C.3       1 MAIN        0.035700 
      6 O14         0.987000   -0.171000    1.169000 O.3       1 MAIN       -0.437700 
      7 C12        -0.508000   -2.086000    0.984000 C.3       1 MAIN        0.116200 
      8 O14         0.395000   -3.023000    0.412000 O.3       1 MAIN       -0.660300 
      9 C7          2.444000    1.678000    1.652000 C.3       1 MAIN       -0.148500 
     10 O2          1.384000    2.918000   -0.877000 O.3       1 MAIN       -0.680600 
     11 O3          0.461000    0.959000   -2.847000 O.3       1 MAIN       -0.692100 
     12 O4         -1.048000   -1.258000   -1.655000 O.3       1 MAIN       -0.678800 
     13 C8          2.095000    2.149000    2.998000 C.1       1 MAIN        0.125300 
     14 N1          1.826000    2.544000    4.039000 N.1       1 MAIN       -0.303100 
     15 H1          0.329930    1.785438    1.258385 H         1 MAIN        0.076200 
     16 H2          2.306848    1.074494   -0.957575 H         1 MAIN        0.072100 
     17 H3         -0.716321    1.367688   -1.216901 H         1 MAIN        0.068600 
     18 H4          0.962394   -1.180827   -1.248798 H         1 MAIN        0.093200 
     19 H5         -1.021738   -0.012970    0.761722 H         1 MAIN        0.079500 
     20 H6         -1.533964   -2.337276    0.677026 H         1 MAIN        0.070700 
     21 H7         -0.431690   -2.131694    2.080387 H         1 MAIN        0.060700 
     22 H8          0.176137   -3.897413    0.712002 H         1 MAIN        0.426700 
     23 H9          2.923256    2.498016    1.097146 H         1 MAIN        0.138000 
     24 H10         3.144419    0.834077    1.736746 H         1 MAIN        0.133000 
     25 H11         2.083136    3.312979   -0.369358 H         1 MAIN        0.420100 
     26 H12         0.563775    1.876151   -3.072326 H         1 MAIN        0.426300 
     27 H13        -0.912026   -1.233068   -2.594888 H         1 MAIN        0.418400 
@<TRIPOS>BOND
     1    1    9 1    
     2    1    2 1    
     3    2   10 1    
     4    2    3 1    
     5    3   11 1    
     6    3    4 1    
     7    4   12 1    
     8    4    5 1    
     9    9   13 1    
    10   13   14 3    
    11    5    7 1    
    12    7    8 1    
    13    5    6 1    
    14    6    1 1    
    15    1   15 1    
    16    2   16 1    
    17    3   17 1    
    18    4   18 1    
    19    5   19 1    
    20    7   20 1    
    21    7   21 1    
    22    8   22 1    
    23    9   23 1    
    24    9   24 1    
    25   10   25 1    
    26   11   26 1    
    27   12   27 1    
@<TRIPOS>SUBSTRUCTURE
     1 MAIN        1 PERM              0 ****  ****    0 ROOT 
