#	Name:			18
#	Creating user name:	jeff
#	Creation time:		Tue Feb 17 18:13:38 2004

#	Modifying user name:	jeff
#	Modification time:	Tue Feb 17 18:13:38 2004

@<TRIPOS>MOLECULE
18
   28    28     1     0     0
SMALL
USER_CHARGES


@<TRIPOS>ATOM
      1 C1          1.178000    1.469000    0.912000 C.3       1 MAIN        0.723600 
      2 C2          1.409000    1.615000   -0.615000 C.3       1 MAIN       -0.143100 
      3 C3          0.280000    0.958000   -1.429000 C.3       1 MAIN        0.180900 
      4 C4          0.075000   -0.477000   -0.938000 C.3       1 MAIN        0.149700 
      5 C5         -0.296000   -0.438000    0.548000 C.3       1 MAIN        0.100700 
      6 C6         -0.623000   -1.852000    1.052000 C.3       1 MAIN        0.121000 
      7 O2          1.557000    2.996000   -0.976000 O.3       1 MAIN       -0.654200 
      8 O3          0.555000    1.014000   -2.832000 O.3       1 MAIN       -0.663600 
      9 O4         -0.927000   -1.164000   -1.675000 O.3       1 MAIN       -0.642000 
     10 O5          0.762000    0.146000    1.312000 O.3       1 MAIN       -0.455900 
     11 O6          0.290000   -2.804000    0.505000 O.3       1 MAIN       -0.663000 
     12 C7          2.516000    1.669000    1.636000 C.3       1 MAIN       -0.300400 
     13 O1          0.252000    2.476000    1.338000 O.3       1 MAIN       -0.702500 
     14 C           2.323000    2.155000    3.013000 C.1       1 MAIN        0.171700 
     15 N           2.166000    2.569000    4.069000 N.1       1 MAIN       -0.303800 
     16 H1          2.346944    1.096827   -0.863459 H         1 MAIN        0.157200 
     17 H2         -0.649002    1.518109   -1.246770 H         1 MAIN        0.083100 
     18 H3          1.022248   -1.023858   -1.054799 H         1 MAIN        0.125200 
     19 H4         -1.193136    0.187408    0.666265 H         1 MAIN        0.106500 
     20 H5         -1.646465   -2.116566    0.747863 H         1 MAIN        0.062200 
     21 H6         -0.550203   -1.870521    2.149421 H         1 MAIN        0.062600 
     22 H7          2.257092    3.383802   -0.464159 H         1 MAIN        0.451400 
     23 H8          0.675313    1.918845   -3.095212 H         1 MAIN        0.412400 
     24 H9         -0.687387   -1.182409   -2.594101 H         1 MAIN        0.405400 
     25 H10         0.073533   -3.671314    0.826573 H         1 MAIN        0.428200 
     26 H11         3.116128    2.403910    1.079468 H         1 MAIN        0.184500 
     27 H12         3.050718    0.708282    1.668757 H         1 MAIN        0.150900 
     28 H13         0.560436    3.329278    1.056426 H         1 MAIN        0.451400 
@<TRIPOS>BOND
     1    1   10 1    
     2    1    2 1    
     3   12    1 1    
     4    1   13 1    
     5    2    7 1    
     6    2    3 1    
     7    3    8 1    
     8    3    4 1    
     9    4    9 1    
    10    5    4 1    
    11   10    5 1    
    12    5    6 1    
    13    6   11 1    
    14   14   15 3    
    15   14   12 1    
    16    2   16 1    
    17    3   17 1    
    18    4   18 1    
    19    5   19 1    
    20    6   20 1    
    21    6   21 1    
    22    7   22 1    
    23    8   23 1    
    24    9   24 1    
    25   11   25 1    
    26   12   26 1    
    27   12   27 1    
    28   13   28 1    
@<TRIPOS>SUBSTRUCTURE
     1 MAIN        1 PERM              0 ****  ****    0 ROOT 
