#	Name:			19
#	Creating user name:	jeff
#	Creation time:		Tue Feb 17 18:13:38 2004

#	Modifying user name:	jeff
#	Modification time:	Tue Feb 17 18:13:38 2004

@<TRIPOS>MOLECULE
19
   45    46     1     0     0
SMALL
USER_CHARGES


@<TRIPOS>ATOM
      1 O5          1.224000   -0.176000    1.091000 O.3       1 MAIN       -0.403200 
      2 C5         -0.027000   -0.571000    0.532000 C.3       1 MAIN        0.225600 
      3 C4          0.082000   -0.544000   -0.994000 C.3       1 MAIN        0.280600 
      4 C3          0.264000    0.909000   -1.444000 C.3       1 MAIN        0.120200 
      5 C2          1.470000    1.555000   -0.730000 C.3       1 MAIN        0.143000 
      6 C1          1.585000    1.179000    0.775000 C.3       1 MAIN       -0.001000 
      7 O4         -1.064000   -1.148000   -1.585000 O.3       1 MAIN       -0.705700 
      8 O3          0.418000    0.997000   -2.864000 O.3       1 MAIN       -0.710600 
      9 O2          1.478000    2.977000   -0.915000 O.3       1 MAIN       -0.687300 
     10 O1          1.010000    2.150000    1.657000 O.3       1 MAIN       -0.354600 
     11 C6         -0.441000   -1.964000    1.024000 C.3       1 MAIN       -0.000800 
     12 O6          0.372000   -2.963000    0.416000 O.3       1 MAIN       -0.661100 
     13 O5          1.975000    2.849000    5.138000 O.3       1 MAIN       -0.584400 
     14 C5          2.299000    2.708000    3.734000 C.3       1 MAIN        0.348900 
     15 C4          3.689000    2.058000    3.550000 C.3       1 MAIN       -0.012200 
     16 C3          4.738000    2.877000    4.299000 C.3       1 MAIN        0.191200 
     17 C2          4.400000    2.781000    5.786000 C.3       1 MAIN       -0.011100 
     18 C1          2.979000    3.317000    6.075000 C.3       1 MAIN        0.465600 
     19 O4          4.053000    1.909000    2.184000 O.3       1 MAIN       -0.665600 
     20 O3          6.048000    2.372000    4.043000 O.3       1 MAIN       -0.672700 
     21 O2          5.396000    3.406000    6.597000 O.3       1 MAIN       -0.643800 
     22 O1          2.966000    4.727000    6.200000 O.3       1 MAIN       -0.674200 
     23 C6          1.191000    1.866000    3.054000 C.3       1 MAIN       -0.160400 
     24 H1         -0.796825    0.149564    0.845260 H         1 MAIN        0.068700 
     25 H2          0.969057   -1.118919   -1.298258 H         1 MAIN        0.095200 
     26 H3         -0.640852    1.468055   -1.163510 H         1 MAIN        0.086500 
     27 H4          2.372392    1.161017   -1.220348 H         1 MAIN        0.122000 
     28 H5          2.664197    1.225636    0.982689 H         1 MAIN        0.205300 
     29 H6         -0.982176   -1.123895   -2.531163 H         1 MAIN        0.448200 
     30 H7          0.528754    1.906601   -3.114718 H         1 MAIN        0.461500 
     31 H8          2.228026    3.350356   -0.467154 H         1 MAIN        0.467800 
     32 H9         -1.494063   -2.143680    0.761800 H         1 MAIN        0.098100 
     33 H10        -0.321441   -2.013768    2.116339 H         1 MAIN        0.067500 
     34 H11         0.106664   -3.820208    0.727915 H         1 MAIN        0.434000 
     35 H12         2.319796    3.705971    3.271835 H         1 MAIN        0.122900 
     36 H13         3.652549    1.053217    3.996158 H         1 MAIN        0.147100 
     37 H14         4.690125    3.927081    3.974944 H         1 MAIN        0.106300 
     38 H15         4.399153    1.712886    6.048882 H         1 MAIN        0.102200 
     39 H16         2.692983    2.912683    7.057190 H         1 MAIN        0.086000 
     40 H17         4.911667    1.506550    2.127206 H         1 MAIN        0.466100 
     41 H18         6.686197    2.892803    4.516254 H         1 MAIN        0.439200 
     42 H19         5.154079    3.327473    7.512318 H         1 MAIN        0.423600 
     43 H20         3.634110    4.996139    6.819430 H         1 MAIN        0.419400 
     44 H21         1.452288    0.802665    3.158984 H         1 MAIN        0.145800 
     45 H22         0.240917    2.063045    3.572160 H         1 MAIN        0.160200 
@<TRIPOS>BOND
     1    1    2 1    
     2    6    1 1    
     3    6    5 1    
     4   10    6 1    
     5   23   10 1    
     6    5    4 1    
     7    5    9 1    
     8    4    3 1    
     9    4    8 1    
    10    3    7 1    
    11    2   11 1    
    12   11   12 1    
    13   14   13 1    
    14   13   18 1    
    15   18   17 1    
    16   18   22 1    
    17   16   17 1    
    18   17   21 1    
    19   15   16 1    
    20   16   20 1    
    21   14   15 1    
    22   15   19 1    
    23   14   23 1    
    24    3    2 1    
    25    2   24 1    
    26    3   25 1    
    27    4   26 1    
    28    5   27 1    
    29    6   28 1    
    30    7   29 1    
    31    8   30 1    
    32    9   31 1    
    33   11   32 1    
    34   11   33 1    
    35   12   34 1    
    36   14   35 1    
    37   15   36 1    
    38   16   37 1    
    39   17   38 1    
    40   18   39 1    
    41   19   40 1    
    42   20   41 1    
    43   21   42 1    
    44   22   43 1    
    45   23   44 1    
    46   23   45 1    
@<TRIPOS>SUBSTRUCTURE
     1 MAIN        1 PERM              0 ****  ****    0 ROOT 
