#	Name:			2
#	Creating user name:	jeff
#	Creation time:		Tue Feb 17 18:13:38 2004

#	Modifying user name:	jeff
#	Modification time:	Tue Feb 17 18:13:38 2004

@<TRIPOS>MOLECULE
2
   26    26     1     0     0
SMALL
USER_CHARGES


@<TRIPOS>ATOM
      1 C1          1.150000    1.403000    0.919000 C.3       1 MAIN        0.174400 
      2 C2          1.348000    1.640000   -0.599000 C.3       1 MAIN        0.132900 
      3 C3          0.261000    0.930000   -1.436000 C.3       1 MAIN        0.152600 
      4 C4          0.113000   -0.529000   -0.978000 C.3       1 MAIN        0.231100 
      5 C5         -0.133000   -0.559000    0.536000 C.3       1 MAIN        0.257600 
      6 C6         -0.457000   -1.978000    1.020000 C.3       1 MAIN        0.053200 
      7 C7         -0.014000    2.234000    1.491000 C.3       1 MAIN       -0.226100 
      8 O2          1.419000    3.039000   -0.902000 O.3       1 MAIN       -0.667400 
      9 O3          0.543000    1.020000   -2.836000 O.3       1 MAIN       -0.694300 
     10 O4         -0.943000   -1.196000   -1.658000 O.3       1 MAIN       -0.693000 
     11 O5          0.988000    0.006000    1.225000 O.3       1 MAIN       -0.519800 
     12 O6          0.406000   -2.927000    0.399000 O.3       1 MAIN       -0.659900 
     13 H1          2.068351    1.742403    1.420410 H         1 MAIN        0.086600 
     14 H2          2.315082    1.195207   -0.876285 H         1 MAIN        0.051000 
     15 H3         -0.696189    1.440640   -1.254314 H         1 MAIN        0.088100 
     16 H4          1.052010   -1.059029   -1.195494 H         1 MAIN        0.109500 
     17 H5         -1.009369    0.070722    0.749078 H         1 MAIN        0.044700 
     18 H6         -1.500251   -2.217461    0.766505 H         1 MAIN        0.072100 
     19 H7         -0.324036   -2.027507    2.110800 H         1 MAIN        0.063200 
     20 H8          0.136113    3.294974    1.242403 H         1 MAIN        0.068100 
     21 H9         -0.047316    2.114704    2.583993 H         1 MAIN        0.080300 
     22 H10        -0.962016    1.885875    1.055053 H         1 MAIN        0.059300 
     23 H11         2.095184    3.443933   -0.371619 H         1 MAIN        0.423500 
     24 H12         0.627908    1.933165   -3.083832 H         1 MAIN        0.440900 
     25 H13        -0.781814   -1.172138   -2.593922 H         1 MAIN        0.441000 
     26 H14         0.192662   -3.799315    0.708925 H         1 MAIN        0.430400 
@<TRIPOS>BOND
     1    1   11 1    
     2    1    7 1    
     3    1    2 1    
     4    2    8 1    
     5    2    3 1    
     6    3    9 1    
     7    3    4 1    
     8    4   10 1    
     9    4    5 1    
    10   11    5 1    
    11    5    6 1    
    12    6   12 1    
    13    1   13 1    
    14    2   14 1    
    15    3   15 1    
    16    4   16 1    
    17    5   17 1    
    18    6   18 1    
    19    6   19 1    
    20    7   20 1    
    21    7   21 1    
    22    7   22 1    
    23    8   23 1    
    24    9   24 1    
    25   10   25 1    
    26   12   26 1    
@<TRIPOS>SUBSTRUCTURE
     1 MAIN        1 PERM              0 ****  ****    0 ROOT 
