#	Name:			20
#	Creating user name:	jeff
#	Creation time:		Tue Feb 17 18:13:38 2004

#	Modifying user name:	jeff
#	Modification time:	Tue Feb 17 18:13:38 2004

@<TRIPOS>MOLECULE
20
   27    27     1     0     0
SMALL
USER_CHARGES


@<TRIPOS>ATOM
      1 C1          1.063000    1.353000    1.002000 C.3       1 MAIN       -0.313100 
      2 C2          1.222000    1.648000   -0.523000 C.3       1 MAIN        0.399200 
      3 C3          0.182000    0.902000   -1.391000 C.3       1 MAIN        0.012900 
      4 C4          0.065000   -0.564000   -0.946000 C.3       1 MAIN        0.391900 
      5 C5         -0.168000   -0.617000    0.570000 C.3       1 MAIN        0.099600 
      6 C6         -0.473000   -2.047000    1.035000 C.3       1 MAIN        0.072700 
      7 C7         -0.059000    2.106000    1.697000 C.2       1 MAIN        0.945200 
      8 O2          1.251000    3.051000   -0.817000 O.3       1 MAIN       -0.717300 
      9 O3          0.501000    1.005000   -2.785000 O.3       1 MAIN       -0.696000 
     10 O4         -0.983000   -1.242000   -1.629000 O.3       1 MAIN       -0.711500 
     11 O5          0.957000   -0.057000    1.255000 O.3       1 MAIN       -0.377100 
     12 O6          0.407000   -2.972000    0.403000 O.3       1 MAIN       -0.657000 
     13 O1         -0.281000    1.968000    2.898000 O.2       1 MAIN       -0.645300 
     14 N1         -0.830000    2.993000    0.959000 N.am      1 MAIN       -1.259800 
     15 H1          1.996540    1.692897    1.474173 H         1 MAIN        0.196700 
     16 H2          2.206749    1.250848   -0.810254 H         1 MAIN        0.042400 
     17 H3         -0.795782    1.381143   -1.234988 H         1 MAIN        0.114900 
     18 H4          1.012193   -1.073815   -1.175976 H         1 MAIN        0.067700 
     19 H5         -1.046849    0.002675    0.801521 H         1 MAIN        0.097700 
     20 H6         -1.511670   -2.299112    0.775039 H         1 MAIN        0.078900 
     21 H7         -0.342418   -2.109386    2.125427 H         1 MAIN        0.070300 
     22 H8          1.898690    3.476364   -0.267397 H         1 MAIN        0.421800 
     23 H9          0.566130    1.921064   -3.028074 H         1 MAIN        0.436700 
     24 H10        -0.828092   -1.202576   -2.565456 H         1 MAIN        0.445900 
     25 H11         0.207359   -3.852180    0.699525 H         1 MAIN        0.424700 
     26 H12        -1.572499    3.496990    1.400237 H         1 MAIN        0.507900 
     27 H13        -0.643076    3.128174   -0.014034 H         1 MAIN        0.549900 
@<TRIPOS>BOND
     1    1   11 1    
     2    1    7 1    
     3    1    2 1    
     4    2    8 1    
     5    2    3 1    
     6    3    9 1    
     7    3    4 1    
     8    4   10 1    
     9    4    5 1    
    10   11    5 1    
    11    5    6 1    
    12    6   12 1    
    13    7   13 2    
    14    7   14 am   
    15    1   15 1    
    16    2   16 1    
    17    3   17 1    
    18    4   18 1    
    19    5   19 1    
    20    6   20 1    
    21    6   21 1    
    22    8   22 1    
    23    9   23 1    
    24   10   24 1    
    25   12   25 1    
    26   14   26 1    
    27   14   27 1    
@<TRIPOS>SUBSTRUCTURE
     1 MAIN        1 PERM              0 ****  ****    0 ROOT 
