#	Name:			21
#	Creating user name:	jeff
#	Creation time:		Tue Feb 17 18:13:38 2004

#	Modifying user name:	jeff
#	Modification time:	Tue Feb 17 18:13:38 2004

@<TRIPOS>MOLECULE
21
   24    24     1     0     0
SMALL
USER_CHARGES


@<TRIPOS>ATOM
      1 C1          1.345000    1.501000    0.962000 C.3       1 MAIN       -0.211500 
      2 C2          1.444000    1.641000   -0.569000 C.3       1 MAIN        0.193700 
      3 C3          0.303000    0.945000   -1.332000 C.3       1 MAIN        0.139400 
      4 C4          0.202000   -0.547000   -1.000000 C.3       1 MAIN        0.231100 
      5 C5         -0.139000   -0.756000    0.468000 C.3       1 MAIN       -0.435400 
      6 C6         -0.517000   -2.217000    0.739000 C.3       1 MAIN        0.297300 
      7 O2          1.491000    3.023000   -0.901000 O.3       1 MAIN       -0.654100 
      8 O3          0.416000    1.150000   -2.738000 O.3       1 MAIN       -0.665400 
      9 O4         -0.762000   -1.184000   -1.819000 O.3       1 MAIN       -0.620600 
     10 S5          1.231000   -0.222000    1.515000 S.3       1 MAIN        0.045400 
     11 O6          0.383000   -3.106000    0.103000 O.3       1 MAIN       -0.637500 
     12 O1          0.294000    2.304000    1.485000 O.3       1 MAIN       -0.563200 
     13 H1          2.283873    1.898262    1.375127 H         1 MAIN        0.197200 
     14 H2          2.387340    1.173973   -0.888327 H         1 MAIN        0.071500 
     15 H3         -0.637039    1.414277   -1.006298 H         1 MAIN        0.126100 
     16 H4          1.181071   -1.008413   -1.196193 H         1 MAIN        0.122900 
     17 H5         -1.012309   -0.131633    0.707732 H         1 MAIN        0.226900 
     18 H6         -1.532363   -2.401343    0.358173 H         1 MAIN        0.032200 
     19 H7         -0.493660   -2.398243    1.823703 H         1 MAIN        0.036200 
     20 H8          2.198869    3.439457   -0.423521 H         1 MAIN        0.412600 
     21 H9          0.477058    2.080716   -2.918388 H         1 MAIN        0.418400 
     22 H10        -0.540704   -1.048006   -2.732802 H         1 MAIN        0.413200 
     23 H11         0.126150   -4.001932    0.286939 H         1 MAIN        0.403800 
     24 H12         0.390991    3.195679    1.171948 H         1 MAIN        0.419900 
@<TRIPOS>BOND
     1    1   10 1    
     2    1    2 1    
     3    1   12 1    
     4    2    7 1    
     5    2    3 1    
     6    3    8 1    
     7    3    4 1    
     8    4    9 1    
     9    4    5 1    
    10   10    5 1    
    11    5    6 1    
    12    6   11 1    
    13    1   13 1    
    14    2   14 1    
    15    3   15 1    
    16    4   16 1    
    17    5   17 1    
    18    6   18 1    
    19    6   19 1    
    20    7   20 1    
    21    8   21 1    
    22    9   22 1    
    23   11   23 1    
    24   12   24 1    
@<TRIPOS>SUBSTRUCTURE
     1 MAIN        1 PERM              0 ****  ****    0 ROOT 
