#	Name:			22
#	Creating user name:	jeff
#	Creation time:		Tue Feb 17 18:13:38 2004

#	Modifying user name:	jeff
#	Modification time:	Tue Feb 17 18:13:38 2004

@<TRIPOS>MOLECULE
22
   24    24     1     0     0
SMALL
USER_CHARGES


@<TRIPOS>ATOM
      1 C1          1.182000    1.248000    0.874000 C.3       1 MAIN       -0.183500 
      2 C2          1.331000    1.538000   -0.639000 C.3       1 MAIN        0.399300 
      3 C3          0.207000    0.861000   -1.451000 C.3       1 MAIN       -0.009800 
      4 C4          0.041000   -0.604000   -1.010000 C.3       1 MAIN        0.465300 
      5 C5         -0.155000   -0.650000    0.508000 C.3       1 MAIN       -0.027800 
      6 C6         -0.485000   -2.071000    0.980000 C.3       1 MAIN        0.106700 
      7 S1          2.625000    1.850000    1.784000 S.3       1 MAIN       -0.092500 
      8 O2          1.355000    2.952000   -0.882000 O.3       1 MAIN       -0.664900 
      9 O3          0.452000    0.973000   -2.856000 O.3       1 MAIN       -0.685600 
     10 O4         -1.052000   -1.241000   -1.654000 O.3       1 MAIN       -0.717900 
     11 O5          1.013000   -0.148000    1.145000 O.3       1 MAIN       -0.265000 
     12 O6          0.411000   -3.007000    0.392000 O.3       1 MAIN       -0.646200 
     13 H1          0.290363    1.781061    1.235669 H         1 MAIN        0.126500 
     14 H2          2.291103    1.117682   -0.972931 H         1 MAIN        0.043800 
     15 H3         -0.734330    1.386776   -1.233209 H         1 MAIN        0.097700 
     16 H4          0.959894   -1.150843   -1.268012 H         1 MAIN        0.052600 
     17 H5         -1.001593    0.001399    0.770552 H         1 MAIN        0.093900 
     18 H6         -1.515146   -2.320957    0.686241 H         1 MAIN        0.078500 
     19 H7         -0.393816   -2.120039    2.075105 H         1 MAIN        0.050400 
     20 H8          2.752493    2.832756    1.599608 H         1 MAIN        0.099500 
     21 H9          2.052602    3.348838   -0.373697 H         1 MAIN        0.377700 
     22 H10         0.548480    1.889028   -3.088561 H         1 MAIN        0.434400 
     23 H11        -0.926581   -1.210305   -2.595184 H         1 MAIN        0.443900 
     24 H12         0.196239   -3.882418    0.692034 H         1 MAIN        0.423100 
@<TRIPOS>BOND
     1    1   11 1    
     2    1    7 1    
     3    1    2 1    
     4    2    8 1    
     5    2    3 1    
     6    3    9 1    
     7    3    4 1    
     8    4   10 1    
     9    4    5 1    
    10   11    5 1    
    11    5    6 1    
    12    6   12 1    
    13    1   13 1    
    14    2   14 1    
    15    3   15 1    
    16    4   16 1    
    17    5   17 1    
    18    6   18 1    
    19    6   19 1    
    20    7   20 1    
    21    8   21 1    
    22    9   22 1    
    23   10   23 1    
    24   12   24 1    
@<TRIPOS>SUBSTRUCTURE
     1 MAIN        1 PERM              0 ****  ****    0 ROOT 
