#	Name:			23
#	Creating user name:	jeff
#	Creation time:		Tue Feb 17 18:13:38 2004

#	Modifying user name:	jeff
#	Modification time:	Tue Feb 17 18:13:38 2004

@<TRIPOS>MOLECULE
23
   38    39     1     0     0
SMALL
USER_CHARGES


@<TRIPOS>ATOM
      1 C1          1.638367    0.901117    0.563219 C.3       1 MAIN       -0.001800 
      2 C2          1.385367    1.349117   -0.897781 C.3       1 MAIN        0.144600 
      3 C3          0.113367    0.740117   -1.517781 C.3       1 MAIN        0.138700 
      4 C4         -0.088633   -0.718883   -1.075781 C.3       1 MAIN        0.318000 
      5 C5          0.018367   -0.776883    0.446219 C.3       1 MAIN        0.249100 
      6 C6         -0.431633   -2.122883    1.008219 C.3       1 MAIN        0.052700 
      7 C           1.627000    2.133000    2.603000 C.ar      1 MAIN        0.287000 
      8 O2          1.377367    2.781117   -1.000781 O.3       1 MAIN       -0.666400 
      9 O3          0.147367    0.864117   -2.941781 O.3       1 MAIN       -0.708800 
     10 O4         -1.324633   -1.262883   -1.522781 O.3       1 MAIN       -0.704000 
     11 O5          1.360367   -0.475883    0.804219 O.3       1 MAIN       -0.421300 
     12 O6          0.351367   -3.157883    0.443219 O.3       1 MAIN       -0.664600 
     13 C           0.898000    2.838000    3.532000 C.ar      1 MAIN       -0.133200 
     14 C           1.529000    3.444000    4.607000 C.ar      1 MAIN       -0.080500 
     15 C           2.904000    3.277000    4.770000 C.ar      1 MAIN       -0.229800 
     16 C           3.625000    2.493000    3.864000 C.ar      1 MAIN       -0.093900 
     17 C           2.987000    1.911000    2.773000 C.ar      1 MAIN       -0.281200 
     18 C1         -0.602443    2.826609    3.259663 C.3       1 MAIN        0.336700 
     19 O20        -1.272443    2.923609    4.499663 O.3       1 MAIN       -0.688500 
     20 O7          0.903147    1.690532    1.501928 O.3       1 MAIN       -0.439200 
     21 H1          2.709070    1.058125    0.760497 H         1 MAIN        0.229500 
     22 H2          2.234615    0.983656   -1.493760 H         1 MAIN        0.153200 
     23 H3         -0.748087    1.318117   -1.152010 H         1 MAIN        0.050400 
     24 H4          0.720483   -1.325758   -1.508226 H         1 MAIN        0.072100 
     25 H5         -0.637773   -0.002447    0.870135 H         1 MAIN        0.048000 
     26 H6         -1.490556   -2.287787    0.760301 H         1 MAIN        0.075700 
     27 H7         -0.306411   -2.123865    2.101056 H         1 MAIN        0.063200 
     28 H8          2.170498    3.130964   -0.612129 H         1 MAIN        0.445400 
     29 H9          0.273100    1.775827   -3.177315 H         1 MAIN        0.450700 
     30 H10        -1.367099   -1.215504   -2.470648 H         1 MAIN        0.445300 
     31 H11         0.070312   -3.994910    0.793780 H         1 MAIN        0.433300 
     32 H12         0.961044    4.040139    5.312060 H         1 MAIN        0.193500 
     33 H13         3.413669    3.754849    5.598832 H         1 MAIN        0.165300 
     34 H14         4.687490    2.337696    4.012527 H         1 MAIN        0.159500 
     35 H15         3.539859    1.297462    2.070872 H         1 MAIN        0.181700 
     36 H16        -0.883259    1.889855    2.756068 H         1 MAIN        0.012600 
     37 H17        -0.872482    3.681095    2.621770 H         1 MAIN       -0.000900 
     38 H18        -2.211138    2.918308    4.353635 H         1 MAIN        0.408100 
@<TRIPOS>BOND
     1    1    2 1    
     2    7   13 ar   
     3    1   11 1    
     4    2    3 1    
     5    2    8 1    
     6    3    4 1    
     7    3    9 1    
     8    5    4 1    
     9    4   10 1    
    10    5    6 1    
    11   11    5 1    
    12    6   12 1    
    13    7   17 ar   
    14   17   16 ar   
    15   16   15 ar   
    16   14   15 ar   
    17   13   14 ar   
    18   20    1 1    
    19   13   18 1    
    20    7   20 1    
    21   18   19 1    
    22    1   21 1    
    23    2   22 1    
    24    3   23 1    
    25    4   24 1    
    26    5   25 1    
    27    6   26 1    
    28    6   27 1    
    29    8   28 1    
    30    9   29 1    
    31   10   30 1    
    32   12   31 1    
    33   14   32 1    
    34   15   33 1    
    35   16   34 1    
    36   17   35 1    
    37   18   36 1    
    38   18   37 1    
    39   19   38 1    
@<TRIPOS>SUBSTRUCTURE
     1 MAIN        1 PERM              0 ****  ****    0 ROOT 
