#	Name:			24
#	Creating user name:	jeff
#	Creation time:		Tue Feb 17 18:13:38 2004

#	Modifying user name:	jeff
#	Modification time:	Tue Feb 17 18:13:38 2004

@<TRIPOS>MOLECULE
24
   38    40     1     0     0
SMALL
USER_CHARGES


@<TRIPOS>ATOM
      1 C1          1.414548    1.101933    0.843025 C.3       1 MAIN       -0.015600 
      2 O21         0.480000    1.787000    1.681000 O.3       1 MAIN       -0.393400 
      3 C2          1.329548    1.543933   -0.645975 C.3       1 MAIN        0.224000 
      4 C3          0.197548    0.841933   -1.433975 C.3       1 MAIN        0.028500 
      5 C4          0.079548   -0.639067   -1.038975 C.3       1 MAIN        0.376300 
      6 C5          0.021548   -0.735067    0.485025 C.3       1 MAIN        0.129000 
      7 C6         -0.363452   -2.143067    0.950025 C.3       1 MAIN        0.085100 
      8 C12         0.338428    2.797140    3.865532 C.2       1 MAIN       -0.689000 
      9 O2          1.223548    2.970933   -0.754975 O.3       1 MAIN       -0.669000 
     10 O3          0.403548    0.982933   -2.843975 O.3       1 MAIN       -0.693100 
     11 O4         -1.069452   -1.251067   -1.612975 O.3       1 MAIN       -0.717000 
     12 O5          1.273548   -0.311067    1.017025 O.3       1 MAIN       -0.400200 
     13 O6          0.477548   -3.111067    0.336025 O.3       1 MAIN       -0.662200 
     14 C5          0.998428    2.215140    2.828532 C.2       1 MAIN        0.536600 
     15 C6          1.344428    3.175140    4.814532 C.ar      1 MAIN        0.191900 
     16 C7          1.270428    3.823140    6.063532 C.ar      1 MAIN       -0.219000 
     17 C8          2.593428    2.802140    4.312532 C.ar      1 MAIN        0.121700 
     18 N2          2.404428    2.141140    3.063532 N.pl3     1 MAIN       -0.639200 
     19 C9          2.449428    4.080140    6.745532 C.ar      1 MAIN       -0.186200 
     20 C10         3.795428    3.066140    4.985532 C.ar      1 MAIN       -0.266200 
     21 C11         3.703428    3.710140    6.211532 C.ar      1 MAIN       -0.127100 
     22 H1          2.422027    1.372243    1.192159 H         1 MAIN        0.205100 
     23 H2          2.277438    1.249224   -1.119923 H         1 MAIN        0.145400 
     24 H3         -0.751144    1.336284   -1.177899 H         1 MAIN        0.100800 
     25 H4          0.972338   -1.171836   -1.398223 H         1 MAIN        0.069400 
     26 H5         -0.754707   -0.043618    0.844608 H         1 MAIN        0.099300 
     27 H6         -1.409270   -2.343373    0.674135 H         1 MAIN        0.081600 
     28 H7         -0.253660   -2.207408    2.042628 H         1 MAIN        0.052500 
     29 H8         -0.736515    2.945915    3.956603 H         1 MAIN        0.293500 
     30 H9          1.927290    3.379109   -0.264425 H         1 MAIN        0.439400 
     31 H10         0.473210    1.904667   -3.063187 H         1 MAIN        0.450700 
     32 H11        -1.023354   -1.185861   -2.559613 H         1 MAIN        0.453500 
     33 H12         0.229534   -3.979147    0.631706 H         1 MAIN        0.430100 
     34 H13         0.313444    4.113984    6.481440 H         1 MAIN        0.184900 
     35 H14         3.121681    1.707409    2.464921 H         1 MAIN        0.494500 
     36 H15         2.408115    4.575456    7.708865 H         1 MAIN        0.152700 
     37 H16         4.753450    2.779954    4.566786 H         1 MAIN        0.181800 
     38 H17         4.607205    3.932362    6.767283 H         1 MAIN        0.149100 
@<TRIPOS>BOND
     1    1    3 1    
     2   14    8 2    
     3    1   12 1    
     4    3    4 1    
     5    3    9 1    
     6    4    5 1    
     7    4   10 1    
     8    6    5 1    
     9    5   11 1    
    10    6    7 1    
    11    7   13 1    
    12    8   15 1    
    13   15   16 ar   
    14   17   15 ar   
    15   18   17 1    
    16   17   20 ar   
    17   20   21 ar   
    18   21   19 ar   
    19   16   19 ar   
    20   14   18 1    
    21    2    1 1    
    22   12    6 1    
    23    2   14 1    
    24    1   22 1    
    25    3   23 1    
    26    4   24 1    
    27    5   25 1    
    28    6   26 1    
    29    7   27 1    
    30    7   28 1    
    31    8   29 1    
    32    9   30 1    
    33   10   31 1    
    34   11   32 1    
    35   13   33 1    
    36   16   34 1    
    37   18   35 1    
    38   19   36 1    
    39   20   37 1    
    40   21   38 1    
@<TRIPOS>SUBSTRUCTURE
     1 MAIN        1 PERM              0 ****  ****    0 ROOT 
