#	Name:			25
#	Creating user name:	jeff
#	Creation time:		Tue Feb 17 18:13:38 2004

#	Modifying user name:	jeff
#	Modification time:	Tue Feb 17 18:13:39 2004

@<TRIPOS>MOLECULE
25
   29    29     1     0     0
SMALL
USER_CHARGES


@<TRIPOS>ATOM
      1 C1          0.965000    1.324000    1.044000 C.3       1 MAIN       -0.386500 
      2 C2          1.154000    1.600000   -0.477000 C.3       1 MAIN        0.290000 
      3 C3          0.093000    0.892000   -1.346000 C.3       1 MAIN       -0.028900 
      4 C4         -0.051000   -0.569000   -0.893000 C.3       1 MAIN        0.485000 
      5 C5         -0.337000   -0.624000    0.616000 C.3       1 MAIN        0.019300 
      6 C6         -0.606000   -2.068000    1.058000 C.3       1 MAIN        0.051500 
      7 C1         -0.019000    2.233000    1.755000 C.2       1 MAIN        0.847500 
      8 O2          1.263000    2.998000   -0.781000 O.3       1 MAIN       -0.743500 
      9 O3          0.429000    0.979000   -2.738000 O.3       1 MAIN       -0.699600 
     10 O4         -1.066000   -1.257000   -1.612000 O.3       1 MAIN       -0.716200 
     11 O5          0.758000   -0.063000    1.344000 O.3       1 MAIN       -0.298700 
     12 O6          0.341000   -2.950000    0.461000 O.3       1 MAIN       -0.664500 
     13 N20        -0.806000    3.107000    0.977000 N.am      1 MAIN       -0.669100 
     14 O1         -0.092000    2.280000    2.985000 O.2       1 MAIN       -0.621100 
     15 N26        -1.457000    4.347000    1.443000 N.pl3     1 MAIN       -0.612900 
     16 H1          1.939741    1.569269    1.490876 H         1 MAIN        0.219000 
     17 H2          2.121045    1.152125   -0.749409 H         1 MAIN        0.098700 
     18 H3         -0.872563    1.397208   -1.196241 H         1 MAIN        0.122000 
     19 H4          0.904426   -1.079651   -1.083714 H         1 MAIN        0.058700 
     20 H5         -1.235947   -0.024982    0.823475 H         1 MAIN        0.117900 
     21 H6         -1.620175   -2.359984    0.747889 H         1 MAIN        0.089000 
     22 H7         -0.524040   -2.134104    2.152937 H         1 MAIN        0.077700 
     23 H8          1.924730    3.392290   -0.224988 H         1 MAIN        0.452900 
     24 H9          0.510930    1.891984   -2.987495 H         1 MAIN        0.438300 
     25 H10        -0.878206   -1.215978   -2.542350 H         1 MAIN        0.431300 
     26 H11         0.165005   -3.840434    0.741450 H         1 MAIN        0.431000 
     27 H12        -0.935668    2.862902    0.015953 H         1 MAIN        0.546500 
     28 H13        -2.012726    4.914645    0.787371 H         1 MAIN        0.315300 
     29 H14        -1.355565    4.644672    2.423822 H         1 MAIN        0.350000 
@<TRIPOS>BOND
     1    1   11 1    
     2    7    1 1    
     3    1    2 1    
     4    2    8 1    
     5    2    3 1    
     6    3    9 1    
     7    3    4 1    
     8    4   10 1    
     9    5    4 1    
    10   11    5 1    
    11    5    6 1    
    12    6   12 1    
    13   13   15 1    
    14    7   14 2    
    15   13    7 am   
    16    1   16 1    
    17    2   17 1    
    18    3   18 1    
    19    4   19 1    
    20    5   20 1    
    21    6   21 1    
    22    6   22 1    
    23    8   23 1    
    24    9   24 1    
    25   10   25 1    
    26   12   26 1    
    27   13   27 1    
    28   15   28 1    
    29   15   29 1    
@<TRIPOS>SUBSTRUCTURE
     1 MAIN        1 PERM              0 ****  ****    0 ROOT 
