#	Name:			26
#	Creating user name:	jeff
#	Creation time:		Tue Feb 17 18:13:39 2004

#	Modifying user name:	jeff
#	Modification time:	Tue Feb 17 18:13:39 2004

@<TRIPOS>MOLECULE
26
   31    31     1     0     0
SMALL
USER_CHARGES


@<TRIPOS>ATOM
      1 C1          1.078000    1.244000    0.945000 C.3       1 MAIN       -0.274700 
      2 C2          1.209000    1.557000   -0.565000 C.3       1 MAIN        0.114500 
      3 C3          0.132000    0.836000   -1.407000 C.3       1 MAIN        0.123900 
      4 C4          0.002000   -0.634000   -0.969000 C.3       1 MAIN        0.353700 
      5 C5         -0.228000   -0.680000    0.547000 C.3       1 MAIN       -0.000800 
      6 C6         -0.531000   -2.109000    1.019000 C.3       1 MAIN        0.092300 
      7 O2          1.169000    2.971000   -0.785000 O.3       1 MAIN       -0.625000 
      8 O3          0.410000    0.955000   -2.808000 O.3       1 MAIN       -0.697600 
      9 O4         -1.061000   -1.299000   -1.636000 O.3       1 MAIN       -0.695700 
     10 O5          0.916000   -0.152000    1.205000 O.3       1 MAIN       -0.217700 
     11 O6          0.385000   -3.026000    0.428000 O.3       1 MAIN       -0.660600 
     12 S7          2.546000    1.819000    1.835000 S.3       1 MAIN       -0.010100 
     13 C7          1.769000    2.180000    3.434000 C.3       1 MAIN       -0.498200 
     14 C8          2.754000    2.854000    4.351000 C.2       1 MAIN        1.027300 
     15 O1          3.972000    2.826000    4.170000 O.2       1 MAIN       -0.663400 
     16 N1          2.221000    3.517000    5.452000 N.am      1 MAIN       -1.213100 
     17 H1          0.195170    1.775846    1.329352 H         1 MAIN        0.203400 
     18 H2          2.191062    1.190210   -0.898158 H         1 MAIN        0.125100 
     19 H3         -0.832677    1.328886   -1.216117 H         1 MAIN        0.088700 
     20 H4          0.941176   -1.155209   -1.206202 H         1 MAIN        0.092700 
     21 H5         -1.094866   -0.047832    0.789656 H         1 MAIN        0.091300 
     22 H6         -1.556091   -2.379148    0.725429 H         1 MAIN        0.091000 
     23 H7         -0.438309   -2.157511    2.114002 H         1 MAIN        0.045200 
     24 H8          1.838067    3.392424   -0.258453 H         1 MAIN        0.419100 
     25 H9          0.482954    1.873485   -3.039439 H         1 MAIN        0.453500 
     26 H10        -0.914667   -1.268179   -2.574156 H         1 MAIN        0.440600 
     27 H11         0.188754   -3.906282    0.726481 H         1 MAIN        0.433300 
     28 H12         1.429628    1.239928    3.893418 H         1 MAIN        0.191200 
     29 H13         0.906084    2.843832    3.276906 H         1 MAIN        0.175900 
     30 H14         2.827022    3.983312    6.096430 H         1 MAIN        0.491700 
     31 H15         1.231895    3.527203    5.598887 H         1 MAIN        0.502700 
@<TRIPOS>BOND
     1    2    1 1    
     2    1   10 1    
     3    2    3 1    
     4    2    7 1    
     5    3    4 1    
     6    3    8 1    
     7    4    5 1    
     8    4    9 1    
     9    5    6 1    
    10   10    5 1    
    11    6   11 1    
    12    1   12 1    
    13   12   13 1    
    14   13   14 1    
    15   14   15 2    
    16   14   16 am   
    17    1   17 1    
    18    2   18 1    
    19    3   19 1    
    20    4   20 1    
    21    5   21 1    
    22    6   22 1    
    23    6   23 1    
    24    7   24 1    
    25    8   25 1    
    26    9   26 1    
    27   11   27 1    
    28   13   28 1    
    29   13   29 1    
    30   16   30 1    
    31   16   31 1    
@<TRIPOS>SUBSTRUCTURE
     1 MAIN        1 PERM              0 ****  ****    0 ROOT 
