#	Name:			27
#	Creating user name:	jeff
#	Creation time:		Tue Feb 17 18:13:39 2004

#	Modifying user name:	jeff
#	Modification time:	Tue Feb 17 18:13:39 2004

@<TRIPOS>MOLECULE
27
   27    27     1     0     0
SMALL
USER_CHARGES


@<TRIPOS>ATOM
      1 C1          0.537000    1.321000    1.119000 C.3       1 MAIN       -0.191900 
      2 C2          1.006000    1.581000   -0.340000 C.3       1 MAIN        0.204800 
      3 C3          0.077000    0.846000   -1.331000 C.3       1 MAIN        0.058200 
      4 C4         -0.069000   -0.627000   -0.906000 C.3       1 MAIN        0.335500 
      5 C5         -0.520000   -0.709000    0.558000 C.3       1 MAIN       -0.018500 
      6 C6         -0.722000   -2.167000    0.983000 C.3       1 MAIN        0.060800 
      7 O1          1.117000    2.595000    3.069000 O.2       1 MAIN       -0.684500 
      8 O2          1.071000    2.983000   -0.644000 O.3       1 MAIN       -0.682400 
      9 O3          0.534000    0.977000   -2.686000 O.3       1 MAIN       -0.694400 
     10 O4         -0.990000   -1.332000   -1.718000 O.3       1 MAIN       -0.694600 
     11 O5          0.441000   -0.078000    1.389000 O.3       1 MAIN       -0.321800 
     12 O6          0.327000   -2.981000    0.468000 O.3       1 MAIN       -0.648700 
     13 H12         1.483000    1.883000    2.134000 C.2       1 MAIN        0.935500 
     14 N1          2.810000    1.499000    2.018000 N.am      1 MAIN       -1.193200 
     15 H1         -0.450748    1.786953    1.250208 H         1 MAIN        0.151300 
     16 H2          2.019330    1.167082   -0.448666 H         1 MAIN        0.086500 
     17 H3         -0.917137    1.313190   -1.272690 H         1 MAIN        0.107500 
     18 H4          0.914800   -1.109888   -1.000504 H         1 MAIN        0.099500 
     19 H5         -1.478487   -0.179305    0.661445 H         1 MAIN        0.116300 
     20 H6         -1.685701   -2.528171    0.594657 H         1 MAIN        0.102400 
     21 H7         -0.723076   -2.228195    2.081284 H         1 MAIN        0.057800 
     22 H8          1.646415    3.415133   -0.023792 H         1 MAIN        0.445700 
     23 H9          0.610158    1.897828   -2.906851 H         1 MAIN        0.456400 
     24 H10        -0.713782   -1.283336   -2.625654 H         1 MAIN        0.448000 
     25 H11         0.190634   -3.881553    0.738017 H         1 MAIN        0.430300 
     26 H13         3.098214    0.920398    1.255011 H         1 MAIN        0.524200 
     27 H14         3.479009    1.800608    2.697315 H         1 MAIN        0.509400 
@<TRIPOS>BOND
     1    1   11 1    
     2   13    7 2    
     3    1    2 1    
     4    2    8 1    
     5    2    3 1    
     6    3    9 1    
     7    3    4 1    
     8    4   10 1    
     9    5    4 1    
    10   11    5 1    
    11    5    6 1    
    12    6   12 1    
    13    1   13 1    
    14   13   14 am   
    15    1   15 1    
    16    2   16 1    
    17    3   17 1    
    18    4   18 1    
    19    5   19 1    
    20    6   20 1    
    21    6   21 1    
    22    8   22 1    
    23    9   23 1    
    24   10   24 1    
    25   12   25 1    
    26   14   26 1    
    27   14   27 1    
@<TRIPOS>SUBSTRUCTURE
     1 MAIN        1 PERM              0 ****  ****    0 ROOT 
