#	Name:			28
#	Creating user name:	jeff
#	Creation time:		Tue Feb 17 18:13:39 2004

#	Modifying user name:	jeff
#	Modification time:	Tue Feb 17 18:13:39 2004

@<TRIPOS>MOLECULE
28
   37    38     1     0     0
SMALL
USER_CHARGES


@<TRIPOS>ATOM
      1 C1          1.162000    1.408000    0.862000 C.3       1 MAIN       -0.329100 
      2 C2          1.319000    1.687000   -0.648000 C.3       1 MAIN        0.373100 
      3 C3          0.258000    0.937000   -1.489000 C.3       1 MAIN        0.004200 
      4 C4          0.164000   -0.535000   -1.054000 C.3       1 MAIN        0.366200 
      5 C5         -0.018000   -0.588000    0.463000 C.3       1 MAIN       -0.014100 
      6 C6         -0.354000   -1.999000    0.960000 C.3       1 MAIN        0.155400 
      7 C1         -0.062000    2.061000    1.464000 C.2       1 MAIN        0.991400 
      8 O2          1.321000    3.093000   -0.905000 O.3       1 MAIN       -0.783000 
      9 O3          0.536000    1.046000   -2.886000 O.3       1 MAIN       -0.698500 
     10 O4         -0.914000   -1.206000   -1.690000 O.3       1 MAIN       -0.709300 
     11 O5          1.119000   -0.008000    1.115000 O.3       1 MAIN       -0.374300 
     12 O6          0.478000   -2.965000    0.330000 O.3       1 MAIN       -0.675900 
     13 N20        -0.728000    3.207000    0.940000 N.am      1 MAIN       -1.116100 
     14 O1         -0.489000    1.623000    2.523000 O.2       1 MAIN       -0.629500 
     15 C          -2.137035    3.347217    0.936078 C.ar      1 MAIN        0.590300 
     16 C          -2.726035    4.530217    1.396078 C.ar      1 MAIN       -0.443800 
     17 C          -4.101035    4.708217    1.269078 C.ar      1 MAIN       -0.022000 
     18 C          -4.879035    3.720217    0.665078 C.ar      1 MAIN       -0.270200 
     19 C          -4.284035    2.553217    0.182078 C.ar      1 MAIN       -0.042900 
     20 C          -2.910035    2.364217    0.310078 C.ar      1 MAIN       -0.377400 
     21 H1          2.046410    1.821958    1.368391 H         1 MAIN        0.229000 
     22 H2          2.302453    1.298984   -0.951710 H         1 MAIN        0.074400 
     23 H3         -0.718047    1.408516   -1.301972 H         1 MAIN        0.132400 
     24 H4          1.101134   -1.044044   -1.323498 H         1 MAIN        0.060200 
     25 H5         -0.884459    0.043750    0.708182 H         1 MAIN        0.111000 
     26 H6         -1.405886   -2.222478    0.728553 H         1 MAIN        0.032300 
     27 H7         -0.200250   -2.044742    2.048229 H         1 MAIN        0.074400 
     28 H8          1.984704    3.511797   -0.369644 H         1 MAIN        0.499000 
     29 H9          0.588749    1.963216   -3.127729 H         1 MAIN        0.450100 
     30 H10        -0.797194   -1.170817   -2.632135 H         1 MAIN        0.437100 
     31 H11         0.255526   -3.831398    0.649937 H         1 MAIN        0.432400 
     32 H12        -0.174332    3.946568    0.557248 H         1 MAIN        0.606500 
     33 H13        -2.115544    5.303300    1.848515 H         1 MAIN        0.197900 
     34 H14        -4.566926    5.614229    1.639407 H         1 MAIN        0.138700 
     35 H15        -5.949912    3.859184    0.570386 H         1 MAIN        0.161300 
     36 H16        -4.892650    1.792663   -0.293528 H         1 MAIN        0.143900 
     37 H17        -2.444033    1.463208   -0.072127 H         1 MAIN        0.224800 
@<TRIPOS>BOND
     1    1   11 1    
     2    7    1 1    
     3    1    2 1    
     4    2    8 1    
     5    2    3 1    
     6    3    9 1    
     7    3    4 1    
     8    4   10 1    
     9    5    4 1    
    10   11    5 1    
    11    5    6 1    
    12    6   12 1    
    13   15   16 ar   
    14    7   14 2    
    15   13    7 am   
    16   15   20 ar   
    17   20   19 ar   
    18   19   18 ar   
    19   17   18 ar   
    20   16   17 ar   
    21   13   15 1    
    22    1   21 1    
    23    2   22 1    
    24    3   23 1    
    25    4   24 1    
    26    5   25 1    
    27    6   26 1    
    28    6   27 1    
    29    8   28 1    
    30    9   29 1    
    31   10   30 1    
    32   12   31 1    
    33   13   32 1    
    34   16   33 1    
    35   17   34 1    
    36   18   35 1    
    37   19   36 1    
    38   20   37 1    
@<TRIPOS>SUBSTRUCTURE
     1 MAIN        1 PERM              0 ****  ****    0 ROOT 
