#	Name:			29
#	Creating user name:	jeff
#	Creation time:		Tue Feb 17 18:13:39 2004

#	Modifying user name:	jeff
#	Modification time:	Tue Feb 17 18:13:39 2004

@<TRIPOS>MOLECULE
29
   30    30     1     0     0
SMALL
USER_CHARGES


@<TRIPOS>ATOM
      1 C1          1.123000    1.328000    0.952000 C.3       1 MAIN       -0.414000 
      2 C2          1.278000    1.611000   -0.573000 C.3       1 MAIN        0.324500 
      3 C3          0.208000    0.886000   -1.421000 C.3       1 MAIN       -0.010200 
      4 C4          0.078000   -0.578000   -0.974000 C.3       1 MAIN        0.457100 
      5 C5         -0.136000   -0.626000    0.544000 C.3       1 MAIN        0.043800 
      6 C6         -0.456000   -2.048000    1.018000 C.3       1 MAIN        0.055600 
      7 C7         -0.010000    2.085000    1.621000 C.2       1 MAIN        0.838100 
      8 O2          1.332000    3.012000   -0.870000 O.3       1 MAIN       -0.701300 
      9 O3          0.498000    0.993000   -2.820000 O.3       1 MAIN       -0.697400 
     10 O4         -0.989000   -1.243000   -1.639000 O.3       1 MAIN       -0.719900 
     11 O5          1.005000   -0.079000    1.213000 O.3       1 MAIN       -0.314500 
     12 O6          0.415000   -2.986000    0.395000 O.3       1 MAIN       -0.656900 
     13 O1         -0.280000    1.928000    2.811000 O.2       1 MAIN       -0.594900 
     14 N1         -0.736000    2.987000    0.857000 N.am      1 MAIN       -0.776300 
     15 C8         -1.901000    3.730000    1.365000 C.3       1 MAIN       -0.050500 
     16 H1          2.053787    1.670667    1.427595 H         1 MAIN        0.215400 
     17 H2          2.250275    1.190536   -0.869423 H         1 MAIN        0.079900 
     18 H3         -0.758567    1.379675   -1.242095 H         1 MAIN        0.122700 
     19 H4          1.014982   -1.100604   -1.216743 H         1 MAIN        0.056600 
     20 H5         -1.003072    0.006552    0.784913 H         1 MAIN        0.112300 
     21 H6         -1.496687   -2.291350    0.757759 H         1 MAIN        0.087000 
     22 H7         -0.328188   -2.103853    2.109109 H         1 MAIN        0.074700 
     23 H8          1.998033    3.424196   -0.332418 H         1 MAIN        0.422400 
     24 H9          0.571010    1.909531   -3.059042 H         1 MAIN        0.442900 
     25 H10        -0.847758   -1.208057   -2.577792 H         1 MAIN        0.445100 
     26 H11         0.205668   -3.861873    0.697532 H         1 MAIN        0.426500 
     27 H12        -0.452799    3.140791   -0.089654 H         1 MAIN        0.469700 
     28 H13        -2.298515    4.377189    0.569306 H         1 MAIN        0.091600 
     29 H14        -1.596319    4.348110    2.222371 H         1 MAIN        0.067400 
     30 H15        -2.678673    3.019927    1.682800 H         1 MAIN        0.102600 
@<TRIPOS>BOND
     1    1   11 1    
     2    1    7 1    
     3    1    2 1    
     4    2    8 1    
     5    2    3 1    
     6    3    9 1    
     7    3    4 1    
     8    4   10 1    
     9    4    5 1    
    10   11    5 1    
    11    5    6 1    
    12    6   12 1    
    13    7   13 2    
    14    7   14 am   
    15   14   15 1    
    16    1   16 1    
    17    2   17 1    
    18    3   18 1    
    19    4   19 1    
    20    5   20 1    
    21    6   21 1    
    22    6   22 1    
    23    8   23 1    
    24    9   24 1    
    25   10   25 1    
    26   12   26 1    
    27   14   27 1    
    28   15   28 1    
    29   15   29 1    
    30   15   30 1    
@<TRIPOS>SUBSTRUCTURE
     1 MAIN        1 PERM              0 ****  ****    0 ROOT 
