#	Name:			3
#	Creating user name:	jeff
#	Creation time:		Tue Feb 17 18:13:39 2004

#	Modifying user name:	jeff
#	Modification time:	Tue Feb 17 18:13:39 2004

@<TRIPOS>MOLECULE
3
   27    27     1     0     0
SMALL
USER_CHARGES


@<TRIPOS>ATOM
      1 C1          1.134000    1.410000    0.913000 C.3       1 MAIN        0.061200 
      2 C2          1.343000    1.641000   -0.602000 C.3       1 MAIN        0.060000 
      3 C3          0.256000    0.929000   -1.437000 C.3       1 MAIN        0.107300 
      4 C4          0.109000   -0.529000   -0.976000 C.3       1 MAIN        0.285800 
      5 C5         -0.138000   -0.552000    0.538000 C.3       1 MAIN        0.193300 
      6 C6         -0.463000   -1.970000    1.026000 C.3       1 MAIN        0.059100 
      7 O1          0.030000    2.170000    1.409000 O.3       1 MAIN       -0.372300 
      8 O2          1.391000    3.042000   -0.895000 O.3       1 MAIN       -0.630000 
      9 O3          0.538000    1.018000   -2.837000 O.3       1 MAIN       -0.695900 
     10 O4         -0.947000   -1.198000   -1.655000 O.3       1 MAIN       -0.695800 
     11 O5          0.982000    0.014000    1.225000 O.3       1 MAIN       -0.424200 
     12 O6          0.397000   -2.922000    0.407000 O.3       1 MAIN       -0.659500 
     13 C7          0.206000    2.490000    2.788000 C.3       1 MAIN       -0.027800 
     14 H1          2.038810    1.766015    1.427341 H         1 MAIN        0.198800 
     15 H2          2.314655    1.205524   -0.878083 H         1 MAIN        0.171000 
     16 H3         -0.701453    1.439348   -1.255884 H         1 MAIN        0.076200 
     17 H4          1.048216   -1.059566   -1.191286 H         1 MAIN        0.093400 
     18 H5         -1.014025    0.079157    0.748227 H         1 MAIN        0.077100 
     19 H6         -1.506957   -2.208592    0.774600 H         1 MAIN        0.077400 
     20 H7         -0.328589   -2.016775    2.116743 H         1 MAIN        0.058200 
     21 H8          2.066624    3.452669   -0.368329 H         1 MAIN        0.418000 
     22 H9          0.622085    1.931020   -3.085646 H         1 MAIN        0.449200 
     23 H10        -0.784491   -1.178054   -2.590785 H         1 MAIN        0.445700 
     24 H11         0.182469   -3.792984    0.719832 H         1 MAIN        0.430400 
     25 H12        -0.656604    3.073650    3.141929 H         1 MAIN        0.095100 
     26 H13         1.124962    3.081534    2.912786 H         1 MAIN        0.065100 
     27 H14         0.285257    1.561629    3.372654 H         1 MAIN        0.083300 
@<TRIPOS>BOND
     1    1    2 1    
     2    1    7 1    
     3    1   11 1    
     4    2    3 1    
     5    2    8 1    
     6    3    4 1    
     7    3    9 1    
     8    4    5 1    
     9    4   10 1    
    10    5    6 1    
    11    5   11 1    
    12    6   12 1    
    13    7   13 1    
    14    1   14 1    
    15    2   15 1    
    16    3   16 1    
    17    4   17 1    
    18    5   18 1    
    19    6   19 1    
    20    6   20 1    
    21    8   21 1    
    22    9   22 1    
    23   10   23 1    
    24   12   24 1    
    25   13   25 1    
    26   13   26 1    
    27   13   27 1    
@<TRIPOS>SUBSTRUCTURE
     1 MAIN        1 PERM              0 ****  ****    0 ROOT 
