#	Name:			30
#	Creating user name:	jeff
#	Creation time:		Tue Feb 17 18:13:39 2004

#	Modifying user name:	jeff
#	Modification time:	Tue Feb 17 18:13:39 2004

@<TRIPOS>MOLECULE
30
   38    39     1     0     0
SMALL
USER_CHARGES


@<TRIPOS>ATOM
      1 C1          1.141000    1.419000    0.867000 C.3       1 MAIN       -0.306200 
      2 C2          1.306000    1.693000   -0.643000 C.3       1 MAIN        0.365600 
      3 C3          0.248000    0.940000   -1.486000 C.3       1 MAIN       -0.027100 
      4 C4          0.155000   -0.531000   -1.048000 C.3       1 MAIN        0.376300 
      5 C5         -0.035000   -0.582000    0.469000 C.3       1 MAIN        0.002000 
      6 C6         -0.364000   -1.995000    0.966000 C.3       1 MAIN        0.084800 
      7 C1         -0.083000    2.078000    1.463000 C.2       1 MAIN        0.958500 
      8 O2          1.312000    3.098000   -0.902000 O.3       1 MAIN       -0.781000 
      9 O3          0.532000    1.046000   -2.883000 O.3       1 MAIN       -0.691900 
     10 O4         -0.917000   -1.207000   -1.689000 O.3       1 MAIN       -0.712800 
     11 O5          1.096000    0.003000    1.125000 O.3       1 MAIN       -0.374100 
     12 O6          0.473000   -2.957000    0.336000 O.3       1 MAIN       -0.664100 
     13 N20        -0.739000    3.231000    0.943000 N.am      1 MAIN       -1.062000 
     14 O1         -0.511000    1.639000    2.521000 O.2       1 MAIN       -0.628500 
     15 C          -2.143931    3.406005    0.967442 C.ar      1 MAIN        0.454600 
     16 C          -2.688931    4.609005    1.431442 C.ar      1 MAIN       -0.349600 
     17 C          -4.057931    4.833005    1.332442 C.ar      1 MAIN       -0.233800 
     18 C          -4.863931    3.855005    0.743442 C.ar      1 MAIN        0.368500 
     19 C          -4.322931    2.664005    0.247442 C.ar      1 MAIN       -0.383700 
     20 C          -2.952931    2.441005    0.355442 C.ar      1 MAIN       -0.240400 
     21 O7         -6.232459    4.075834    0.641132 O.3       1 MAIN       -0.617000 
     22 H1          2.024259    1.832875    1.375465 H         1 MAIN        0.223800 
     23 H2          2.290397    1.302948   -0.940989 H         1 MAIN        0.077300 
     24 H3         -0.729306    1.410750   -1.303674 H         1 MAIN        0.143100 
     25 H4          1.095127   -1.037889   -1.311059 H         1 MAIN        0.064000 
     26 H5         -0.905957    0.045410    0.709345 H         1 MAIN        0.113100 
     27 H6         -1.414729   -2.223742    0.734437 H         1 MAIN        0.050300 
     28 H7         -0.210138   -2.039995    2.054245 H         1 MAIN        0.091800 
     29 H8          1.974207    3.516255   -0.364372 H         1 MAIN        0.500500 
     30 H9          0.584050    1.962689   -3.126870 H         1 MAIN        0.448200 
     31 H10        -0.795023   -1.172893   -2.630519 H         1 MAIN        0.439400 
     32 H11         0.254807   -3.824493    0.655919 H         1 MAIN        0.434500 
     33 H12        -0.178131    3.954135    0.539874 H         1 MAIN        0.596200 
     34 H13        -2.045148    5.364531    1.867079 H         1 MAIN        0.203700 
     35 H14        -4.493329    5.752520    1.706577 H         1 MAIN        0.209400 
     36 H15        -4.963674    1.922620   -0.216079 H         1 MAIN        0.205400 
     37 H16        -2.516030    1.527422   -0.031260 H         1 MAIN        0.226200 
     38 H17        -6.643312    3.328679    0.222253 H         1 MAIN        0.435100 
@<TRIPOS>BOND
     1    1   11 1    
     2    7    1 1    
     3    1    2 1    
     4    2    8 1    
     5    2    3 1    
     6    3    9 1    
     7    3    4 1    
     8    4   10 1    
     9    5    4 1    
    10   11    5 1    
    11    5    6 1    
    12    6   12 1    
    13   15   16 ar   
    14    7   14 2    
    15   13    7 am   
    16   15   20 ar   
    17   20   19 ar   
    18   19   18 ar   
    19   17   18 ar   
    20   16   17 ar   
    21   13   15 1    
    22   18   21 1    
    23    1   22 1    
    24    2   23 1    
    25    3   24 1    
    26    4   25 1    
    27    5   26 1    
    28    6   27 1    
    29    6   28 1    
    30    8   29 1    
    31    9   30 1    
    32   10   31 1    
    33   12   32 1    
    34   13   33 1    
    35   16   34 1    
    36   17   35 1    
    37   19   36 1    
    38   20   37 1    
    39   21   38 1    
@<TRIPOS>SUBSTRUCTURE
     1 MAIN        1 PERM              0 ****  ****    0 ROOT 
