#	Name:			31
#	Creating user name:	jeff
#	Creation time:		Tue Feb 17 18:13:39 2004

#	Modifying user name:	jeff
#	Modification time:	Tue Feb 17 18:13:39 2004

@<TRIPOS>MOLECULE
31
   29    29     1     0     0
SMALL
USER_CHARGES


@<TRIPOS>ATOM
      1 C1          1.085000    1.361000    0.972000 C.3       1 MAIN       -0.219100 
      2 C2          1.256000    1.644000   -0.546000 C.3       1 MAIN        0.360700 
      3 C3          0.198000    0.912000   -1.405000 C.3       1 MAIN        0.006700 
      4 C4          0.065000   -0.551000   -0.954000 C.3       1 MAIN        0.379700 
      5 C5         -0.178000   -0.596000    0.560000 C.3       1 MAIN        0.141900 
      6 C6         -0.487000   -2.024000    1.028000 C.3       1 MAIN        0.057400 
      7 C1         -0.034000    2.154000    1.611000 C.2       1 MAIN        0.874100 
      8 O2          1.279000    3.050000   -0.818000 O.3       1 MAIN       -0.689500 
      9 O3          0.509000    1.009000   -2.800000 O.3       1 MAIN       -0.690200 
     10 O4         -0.983000   -1.226000   -1.640000 O.3       1 MAIN       -0.711700 
     11 O5          0.946000   -0.041000    1.247000 O.3       1 MAIN       -0.391900 
     12 O6          0.397000   -2.952000    0.408000 O.3       1 MAIN       -0.657700 
     13 O7         -0.796081    2.902314    0.818436 O.3       1 MAIN       -0.459200 
     14 O1         -0.252000    2.136000    2.819000 O.2       1 MAIN       -0.594800 
     15 C7         -1.832034    3.704927    1.390724 C.3       1 MAIN       -0.037300 
     16 H1          2.017106    1.689365    1.455042 H         1 MAIN        0.162900 
     17 H2          2.237655    1.242689   -0.838022 H         1 MAIN        0.041600 
     18 H3         -0.771836    1.405071   -1.242909 H         1 MAIN        0.111800 
     19 H4          1.009795   -1.069060   -1.175250 H         1 MAIN        0.065600 
     20 H5         -1.055748    0.027621    0.785011 H         1 MAIN        0.079600 
     21 H6         -1.523575   -2.276752    0.760414 H         1 MAIN        0.083200 
     22 H7         -0.365584   -2.081834    2.119736 H         1 MAIN        0.065100 
     23 H8          1.937738    3.466818   -0.275021 H         1 MAIN        0.410500 
     24 H9          0.583937    1.923843   -3.044839 H         1 MAIN        0.448500 
     25 H10        -0.822363   -1.191910   -2.575699 H         1 MAIN        0.449000 
     26 H11         0.194138   -3.830669    0.706812 H         1 MAIN        0.426500 
     27 H12        -2.355343    4.251817    0.592565 H         1 MAIN        0.116600 
     28 H13        -1.391345    4.422326    2.098613 H         1 MAIN        0.083600 
     29 H14        -2.546351    3.058085    1.921123 H         1 MAIN        0.086200 
@<TRIPOS>BOND
     1    1   11 1    
     2    1    7 1    
     3    1    2 1    
     4    2    8 1    
     5    2    3 1    
     6    3    9 1    
     7    3    4 1    
     8    4   10 1    
     9    4    5 1    
    10   11    5 1    
    11    5    6 1    
    12    6   12 1    
    13    7   13 1    
    14    7   14 2    
    15   13   15 1    
    16    1   16 1    
    17    2   17 1    
    18    3   18 1    
    19    4   19 1    
    20    5   20 1    
    21    6   21 1    
    22    6   22 1    
    23    8   23 1    
    24    9   24 1    
    25   10   25 1    
    26   12   26 1    
    27   15   27 1    
    28   15   28 1    
    29   15   29 1    
@<TRIPOS>SUBSTRUCTURE
     1 MAIN        1 PERM              0 ****  ****    0 ROOT 
