#	Name:			32
#	Creating user name:	jeff
#	Creation time:		Tue Feb 17 18:13:39 2004

#	Modifying user name:	jeff
#	Modification time:	Tue Feb 17 18:13:39 2004

@<TRIPOS>MOLECULE
32
   22    22     1     0     0
SMALL
USER_CHARGES


@<TRIPOS>ATOM
      1 C1          1.450000    1.230000    0.793000 C.3       1 MAIN        0.376900 
      2 C2          1.564000    1.433000   -0.734000 C.3       1 MAIN        0.171200 
      3 C3          0.336000    0.866000   -1.465000 C.3       1 MAIN        0.101500 
      4 C4          0.109000   -0.584000   -1.012000 C.3       1 MAIN        0.216500 
      5 C5         -0.036000   -0.604000    0.516000 C.3       1 MAIN        0.273000 
      6 C6         -0.429000   -2.000000    1.013000 C.3       1 MAIN        0.050900 
      7 F1          0.503000    2.088000    1.348000 F         1 MAIN       -0.356900 
      8 O3          0.489000    0.976000   -2.881000 O.3       1 MAIN       -0.682800 
      9 O4         -1.035000   -1.170000   -1.620000 O.3       1 MAIN       -0.678700 
     10 O5          1.168000   -0.136000    1.136000 O.3       1 MAIN       -0.507400 
     11 O6          0.395000   -2.990000    0.408000 O.3       1 MAIN       -0.668100 
     12 F2          1.756000    2.778000   -1.040000 F         1 MAIN       -0.362500 
     13 H1          2.426132    1.484778    1.231440 H         1 MAIN        0.174500 
     14 H2          2.447562    0.878327   -1.082756 H         1 MAIN        0.125300 
     15 H3         -0.545148    1.457363   -1.175446 H         1 MAIN        0.114700 
     16 H4          0.990033   -1.178993   -1.294379 H         1 MAIN        0.114600 
     17 H5         -0.846181    0.088012    0.789315 H         1 MAIN        0.064900 
     18 H6         -1.480070   -2.194897    0.753688 H         1 MAIN        0.078500 
     19 H7         -0.306525   -2.044089    2.105260 H         1 MAIN        0.070100 
     20 H8          0.626559    1.886437   -3.114840 H         1 MAIN        0.445000 
     21 H9         -0.935387   -1.152706   -2.564605 H         1 MAIN        0.441800 
     22 H10         0.141474   -3.849280    0.724010 H         1 MAIN        0.437000 
@<TRIPOS>BOND
     1    1   10 1    
     2    1    2 1    
     3    1    7 1    
     4    2   12 1    
     5    2    3 1    
     6    3    8 1    
     7    3    4 1    
     8    4    9 1    
     9    4    5 1    
    10   10    5 1    
    11    5    6 1    
    12    6   11 1    
    13    1   13 1    
    14    2   14 1    
    15    3   15 1    
    16    4   16 1    
    17    5   17 1    
    18    6   18 1    
    19    6   19 1    
    20    8   20 1    
    21    9   21 1    
    22   11   22 1    
@<TRIPOS>SUBSTRUCTURE
     1 MAIN        1 PERM              0 ****  ****    0 ROOT 
