#	Name:			33
#	Creating user name:	jeff
#	Creation time:		Tue Feb 17 18:13:39 2004

#	Modifying user name:	jeff
#	Modification time:	Tue Feb 17 18:13:39 2004

@<TRIPOS>MOLECULE
33
   29    29     1     0     0
SMALL
USER_CHARGES


@<TRIPOS>ATOM
      1 C1          0.747000    1.334000    1.113000 C.3       1 MAIN       -0.321700 
      2 C2          1.178000    1.621000   -0.356000 C.3       1 MAIN        0.236200 
      3 C3          0.224000    0.894000   -1.334000 C.3       1 MAIN        0.033200 
      4 C4          0.060000   -0.579000   -0.923000 C.3       1 MAIN        0.297200 
      5 C5         -0.369000   -0.657000    0.546000 C.3       1 MAIN        0.241700 
      6 C6         -0.639000   -2.107000    0.966000 C.3       1 MAIN        0.021900 
      7 O2          1.201000    3.027000   -0.646000 O.3       1 MAIN       -0.695500 
      8 O3          0.645000    1.030000   -2.699000 O.3       1 MAIN       -0.693800 
      9 O4         -0.888000   -1.257000   -1.731000 O.3       1 MAIN       -0.710000 
     10 O5          0.633000   -0.069000    1.361000 O.3       1 MAIN       -0.401000 
     11 O6          0.362000   -2.971000    0.437000 O.3       1 MAIN       -0.659900 
     12 O7          2.969467    1.564220    2.051572 O.3       1 MAIN       -0.394600 
     13 C7          3.840639    1.870984    3.143294 C.3       1 MAIN       -0.077100 
     14 C8          1.684000    1.891000    2.150000 C.2       1 MAIN        0.957300 
     15 O1          1.297000    2.558000    3.105000 O.2       1 MAIN       -0.665400 
     16 H1         -0.239457    1.798063    1.259706 H         1 MAIN        0.191900 
     17 H2          2.194406    1.225411   -0.498841 H         1 MAIN        0.091900 
     18 H3         -0.762951    1.372400   -1.250111 H         1 MAIN        0.120200 
     19 H4          1.032586   -1.080208   -1.036322 H         1 MAIN        0.108600 
     20 H5         -1.300237   -0.084603    0.669024 H         1 MAIN        0.054000 
     21 H6         -1.623485   -2.417278    0.585879 H         1 MAIN        0.092300 
     22 H7         -0.632164   -2.173741    2.063941 H         1 MAIN        0.063200 
     23 H8          1.788455    3.465384   -0.041669 H         1 MAIN        0.446700 
     24 H9          0.734261    1.951379   -2.912524 H         1 MAIN        0.457400 
     25 H10        -0.620889   -1.207898   -2.641352 H         1 MAIN        0.456300 
     26 H11         0.182550   -3.864691    0.704607 H         1 MAIN        0.438900 
     27 H12         4.860996    1.537641    2.902974 H         1 MAIN        0.125600 
     28 H13         3.489834    1.354217    4.048757 H         1 MAIN        0.088300 
     29 H14         3.841325    2.957026    3.317900 H         1 MAIN        0.095900 
@<TRIPOS>BOND
     1    1    2 1    
     2    1   10 1    
     3    2    3 1    
     4    2    7 1    
     5    3    4 1    
     6    3    8 1    
     7    4    5 1    
     8    4    9 1    
     9    5    6 1    
    10   10    5 1    
    11    6   11 1    
    12    1   14 1    
    13   14   12 1    
    14   12   13 1    
    15   14   15 2    
    16    1   16 1    
    17    2   17 1    
    18    3   18 1    
    19    4   19 1    
    20    5   20 1    
    21    6   21 1    
    22    6   22 1    
    23    7   23 1    
    24    8   24 1    
    25    9   25 1    
    26   11   26 1    
    27   13   27 1    
    28   13   28 1    
    29   13   29 1    
@<TRIPOS>SUBSTRUCTURE
     1 MAIN        1 PERM              0 ****  ****    0 ROOT 
