#	Name:			34
#	Creating user name:	jeff
#	Creation time:		Tue Feb 17 18:13:39 2004

#	Modifying user name:	jeff
#	Modification time:	Tue Feb 17 18:13:39 2004

@<TRIPOS>MOLECULE
34
   30    30     1     0     0
SMALL
USER_CHARGES


@<TRIPOS>ATOM
      1 C1          0.578000    1.349000    1.130000 C.3       1 MAIN       -0.377000 
      2 C2          1.067000    1.617000   -0.323000 C.3       1 MAIN        0.332500 
      3 C3          0.152000    0.878000   -1.326000 C.3       1 MAIN        0.036300 
      4 C4          0.000000   -0.595000   -0.909000 C.3       1 MAIN        0.368000 
      5 C5         -0.479000   -0.675000    0.546000 C.3       1 MAIN        0.042900 
      6 C6         -0.708000   -2.131000    0.967000 C.3       1 MAIN        0.075900 
      7 O2          1.114000    3.020000   -0.627000 O.3       1 MAIN       -0.689500 
      8 O3          0.616000    1.012000   -2.678000 O.3       1 MAIN       -0.696000 
      9 O4         -0.907000   -1.296000   -1.740000 O.3       1 MAIN       -0.709900 
     10 O5          0.473000   -0.051000    1.392000 O.3       1 MAIN       -0.352300 
     11 O6          0.333000   -2.963000    0.462000 O.3       1 MAIN       -0.649200 
     12 C7          1.490000    1.906000    2.182000 C.2       1 MAIN        0.868300 
     13 O1          1.083000    2.626000    3.094000 O.2       1 MAIN       -0.637000 
     14 N1          2.818000    1.502000    2.140000 N.am      1 MAIN       -0.778500 
     15 C8          3.770000    1.858000    3.211000 C.3       1 MAIN        0.028900 
     16 H1         -0.413274    1.812746    1.240866 H         1 MAIN        0.192900 
     17 H2          2.086083    1.214535   -0.420294 H         1 MAIN        0.062200 
     18 H3         -0.843416    1.343364   -1.275415 H         1 MAIN        0.106900 
     19 H4          0.984975   -1.078611   -0.985935 H         1 MAIN        0.083500 
     20 H5         -1.433499   -0.135068    0.631909 H         1 MAIN        0.101700 
     21 H6         -1.673441   -2.476122    0.568517 H         1 MAIN        0.091200 
     22 H7         -0.721236   -2.193135    2.065152 H         1 MAIN        0.052400 
     23 H8          1.679217    3.460383   -0.003227 H         1 MAIN        0.432700 
     24 H9          0.696196    1.933307   -2.895399 H         1 MAIN        0.450100 
     25 H10        -0.612273   -1.247784   -2.641838 H         1 MAIN        0.452000 
     26 H11         0.178619   -3.861226    0.730060 H         1 MAIN        0.427900 
     27 H12         3.137430    0.956447    1.365181 H         1 MAIN        0.471200 
     28 H13         4.759292    1.438001    2.976688 H         1 MAIN        0.052400 
     29 H14         3.415118    1.448301    4.168173 H         1 MAIN        0.065500 
     30 H15         3.844932    2.952868    3.285998 H         1 MAIN        0.094300 
@<TRIPOS>BOND
     1    1   10 1    
     2    1    2 1    
     3    2    7 1    
     4    2    3 1    
     5    3    8 1    
     6    3    4 1    
     7    4    9 1    
     8    4    5 1    
     9   10    5 1    
    10    5    6 1    
    11    6   11 1    
    12    1   12 1    
    13   12   13 2    
    14   12   14 am   
    15   14   15 1    
    16    1   16 1    
    17    2   17 1    
    18    3   18 1    
    19    4   19 1    
    20    5   20 1    
    21    6   21 1    
    22    6   22 1    
    23    7   23 1    
    24    8   24 1    
    25    9   25 1    
    26   11   26 1    
    27   14   27 1    
    28   15   28 1    
    29   15   29 1    
    30   15   30 1    
@<TRIPOS>SUBSTRUCTURE
     1 MAIN        1 PERM              0 ****  ****    0 ROOT 
