#	Name:			35
#	Creating user name:	jeff
#	Creation time:		Tue Feb 17 18:13:39 2004

#	Modifying user name:	jeff
#	Modification time:	Tue Feb 17 18:13:39 2004

@<TRIPOS>MOLECULE
35
   29    29     1     0     0
SMALL
USER_CHARGES


@<TRIPOS>ATOM
      1 C1          0.768000    1.370000    1.174000 C.3       1 MAIN       -0.421500 
      2 C2          1.233000    1.669000   -0.287000 C.3       1 MAIN        0.359500 
      3 C3          0.306000    0.941000   -1.293000 C.3       1 MAIN        0.037300 
      4 C4          0.130000   -0.534000   -0.900000 C.3       1 MAIN        0.350800 
      5 C5         -0.346000   -0.616000    0.554000 C.3       1 MAIN        0.059300 
      6 C6         -0.642000   -2.066000    0.957000 C.3       1 MAIN        0.086400 
      7 O1          1.211000    2.680000    3.137000 O.2       1 MAIN       -0.651700 
      8 O2          1.236000    3.074000   -0.580000 O.3       1 MAIN       -0.696700 
      9 O3          0.749000    1.084000   -2.650000 O.3       1 MAIN       -0.695400 
     10 O4         -0.793000   -1.202000   -1.747000 O.3       1 MAIN       -0.709800 
     11 O5          0.634000   -0.037000    1.404000 O.3       1 MAIN       -0.353100 
     12 O6          0.357000   -2.941000    0.440000 O.3       1 MAIN       -0.652500 
     13 H12         1.649000    1.918000    2.273000 C.2       1 MAIN        0.846900 
     14 N1          2.975000    1.432000    2.382000 N.am      1 MAIN       -0.599700 
     15 N13         3.866059    1.701037    3.558279 N.3       1 MAIN       -0.628300 
     16 H1         -0.223274    1.833187    1.287176 H         1 MAIN        0.208900 
     17 H2          2.257664    1.287471   -0.407309 H         1 MAIN        0.059100 
     18 H3         -0.683265    1.417384   -1.226759 H         1 MAIN        0.108900 
     19 H4          1.104889   -1.036364   -0.984834 H         1 MAIN        0.089000 
     20 H5         -1.276494   -0.037224    0.649781 H         1 MAIN        0.098600 
     21 H6         -1.623341   -2.360056    0.556405 H         1 MAIN        0.089300 
     22 H7         -0.656388   -2.141129    2.054326 H         1 MAIN        0.050400 
     23 H8          1.803318    3.524416    0.034634 H         1 MAIN        0.439000 
     24 H9          0.846165    2.006329   -2.855836 H         1 MAIN        0.449600 
     25 H10        -0.493234   -1.148164   -2.646857 H         1 MAIN        0.455100 
     26 H11         0.159977   -3.833905    0.697686 H         1 MAIN        0.429000 
     27 H13         3.337588    0.878240    1.632408 H         1 MAIN        0.512800 
     28 H14         4.822240    1.223820    3.402131 H         1 MAIN        0.322300 
     29 H15         3.408966    1.306779    4.453825 H         1 MAIN        0.356300 
@<TRIPOS>BOND
     1    1   11 1    
     2   13    7 2    
     3    1    2 1    
     4    2    8 1    
     5    2    3 1    
     6    3    9 1    
     7    3    4 1    
     8    4   10 1    
     9    5    4 1    
    10   11    5 1    
    11    5    6 1    
    12    6   12 1    
    13    1   13 1    
    14   13   14 am   
    15   14   15 1    
    16    1   16 1    
    17    2   17 1    
    18    3   18 1    
    19    4   19 1    
    20    5   20 1    
    21    6   21 1    
    22    6   22 1    
    23    8   23 1    
    24    9   24 1    
    25   10   25 1    
    26   12   26 1    
    27   14   27 1    
    28   15   28 1    
    29   15   29 1    
@<TRIPOS>SUBSTRUCTURE
     1 MAIN        1 PERM              0 ****  ****    0 ROOT 
