#	Name:			36
#	Creating user name:	jeff
#	Creation time:		Tue Feb 17 18:13:39 2004

#	Modifying user name:	jeff
#	Modification time:	Tue Feb 17 18:13:39 2004

@<TRIPOS>MOLECULE
36
   30    30     1     0     0
SMALL
USER_CHARGES


@<TRIPOS>ATOM
      1 C1          1.363000    1.148000    0.859000 C.3       1 MAIN        0.112600 
      2 C2          1.339000    1.534000   -0.645000 C.3       1 MAIN        0.217000 
      3 C3          0.187000    0.858000   -1.427000 C.3       1 MAIN        0.094200 
      4 C4          0.022000   -0.610000   -1.005000 C.3       1 MAIN        0.335600 
      5 C5         -0.114000   -0.669000    0.516000 C.3       1 MAIN        0.007300 
      6 C6         -0.476000   -2.084000    0.980000 C.3       1 MAIN        0.089800 
      7 O2          1.273000    2.960000   -0.790000 O.3       1 MAIN       -0.737800 
      8 O3          0.399000    0.976000   -2.838000 O.3       1 MAIN       -0.710000 
      9 O4         -1.104000   -1.224000   -1.617000 O.3       1 MAIN       -0.695600 
     10 O5          1.112000   -0.243000    1.089000 O.3       1 MAIN       -0.337300 
     11 O6          0.405000   -3.034000    0.391000 O.3       1 MAIN       -0.648600 
     12 N1          2.686000    1.443000    1.432000 N.am      1 MAIN       -0.859700 
     13 C7          2.828000    1.989000    2.702000 C.2       1 MAIN        1.134600 
     14 C8          4.226000    2.137000    3.231000 C.3       1 MAIN       -1.048900 
     15 O7          1.834000    2.316000    3.351000 O.2       1 MAIN       -0.692100 
     16 Br1         4.264000    3.304000    4.583000 Cl        1 MAIN        0.057300 
     17 H1          0.595662    1.739568    1.379783 H         1 MAIN        0.136500 
     18 H2          2.284833    1.190482   -1.089263 H         1 MAIN        0.074500 
     19 H3         -0.746081    1.385701   -1.180290 H         1 MAIN        0.087100 
     20 H4          0.923355   -1.164021   -1.305991 H         1 MAIN        0.088900 
     21 H5         -0.914294    0.016611    0.831344 H         1 MAIN        0.102200 
     22 H6         -1.509435   -2.311762    0.679814 H         1 MAIN        0.091100 
     23 H7         -0.391451   -2.140177    2.075295 H         1 MAIN        0.052700 
     24 H8          1.985078    3.360835   -0.305463 H         1 MAIN        0.500400 
     25 H9          0.497169    1.892523   -3.067888 H         1 MAIN        0.470000 
     26 H10        -1.012275   -1.183436   -2.561691 H         1 MAIN        0.447600 
     27 H11         0.171954   -3.906779    0.685019 H         1 MAIN        0.426200 
     28 H12         3.504784    1.245255    0.893022 H         1 MAIN        0.470700 
     29 H13         4.881991    2.496255    2.424411 H         1 MAIN        0.381000 
     30 H14         4.583722    1.159490    3.586644 H         1 MAIN        0.352700 
@<TRIPOS>BOND
     1    1   10 1    
     2    1    2 1    
     3    2    7 1    
     4    2    3 1    
     5    3    8 1    
     6    3    4 1    
     7    4    9 1    
     8    4    5 1    
     9    5   10 1    
    10    5    6 1    
    11    6   11 1    
    12    1   12 1    
    13   12   13 am   
    14   13   14 1    
    15   13   15 2    
    16   14   16 1    
    17    1   17 1    
    18    2   18 1    
    19    3   19 1    
    20    4   20 1    
    21    5   21 1    
    22    6   22 1    
    23    6   23 1    
    24    7   24 1    
    25    8   25 1    
    26    9   26 1    
    27   11   27 1    
    28   12   28 1    
    29   14   29 1    
    30   14   30 1    
@<TRIPOS>SUBSTRUCTURE
     1 MAIN        1 PERM              0 ****  ****    0 ROOT 
