#	Name:			37
#	Creating user name:	jeff
#	Creation time:		Tue Feb 17 18:13:39 2004

#	Modifying user name:	jeff
#	Modification time:	Tue Feb 17 18:13:39 2004

@<TRIPOS>MOLECULE
37
   30    30     1     0     0
SMALL
USER_CHARGES


@<TRIPOS>ATOM
      1 C1          1.367000    1.158000    0.862000 C.3       1 MAIN        0.212000 
      2 C2          1.351000    1.544000   -0.642000 C.3       1 MAIN        0.155800 
      3 C3          0.207000    0.864000   -1.430000 C.3       1 MAIN        0.095200 
      4 C4          0.042000   -0.604000   -1.008000 C.3       1 MAIN        0.345300 
      5 C5         -0.103000   -0.661000    0.512000 C.3       1 MAIN        0.036300 
      6 C6         -0.471000   -2.075000    0.977000 C.3       1 MAIN        0.107400 
      7 O2          1.279000    2.969000   -0.788000 O.3       1 MAIN       -0.721400 
      8 O3          0.424000    0.983000   -2.841000 O.3       1 MAIN       -0.703600 
      9 O4         -1.079000   -1.219000   -1.626000 O.3       1 MAIN       -0.700500 
     10 O5          1.120000   -0.234000    1.090000 O.3       1 MAIN       -0.382400 
     11 O6          0.407000   -3.029000    0.390000 O.3       1 MAIN       -0.650700 
     12 N1          2.681000    1.464000    1.451000 N.am      1 MAIN       -0.900100 
     13 C7          2.800000    1.975000    2.739000 C.2       1 MAIN        0.962000 
     14 C8          4.187000    2.138000    3.290000 C.3       1 MAIN       -0.497700 
     15 O7          1.793000    2.266000    3.385000 O.2       1 MAIN       -0.698700 
     16 H1          0.590739    1.744546    1.375183 H         1 MAIN        0.127100 
     17 H2          2.300990    1.204521   -1.080461 H         1 MAIN        0.089700 
     18 H3         -0.728701    1.389261   -1.188052 H         1 MAIN        0.082400 
     19 H4          0.945829   -1.157159   -1.303099 H         1 MAIN        0.084200 
     20 H5         -0.904213    0.026189    0.821523 H         1 MAIN        0.087300 
     21 H6         -1.504935   -2.299103    0.675783 H         1 MAIN        0.081400 
     22 H7         -0.387975   -2.130498    2.072446 H         1 MAIN        0.047200 
     23 H8          1.986416    3.373473   -0.299672 H         1 MAIN        0.489300 
     24 H9          0.521947    1.899746   -3.070093 H         1 MAIN        0.465500 
     25 H10        -0.981319   -1.179476   -2.570138 H         1 MAIN        0.446200 
     26 H11         0.170202   -3.900574    0.684592 H         1 MAIN        0.423600 
     27 H12         3.507501    1.300588    0.912297 H         1 MAIN        0.480000 
     28 H13         4.130807    2.548524    4.308976 H         1 MAIN        0.153000 
     29 H14         4.757881    2.825596    2.648688 H         1 MAIN        0.152000 
     30 H15         4.688538    1.159353    3.316159 H         1 MAIN        0.132100 
@<TRIPOS>BOND
     1    1   10 1    
     2    1    2 1    
     3    2    7 1    
     4    2    3 1    
     5    3    8 1    
     6    3    4 1    
     7    4    9 1    
     8    4    5 1    
     9    5   10 1    
    10    5    6 1    
    11    6   11 1    
    12    1   12 1    
    13   12   13 am   
    14   13   14 1    
    15   13   15 2    
    16    1   16 1    
    17    2   17 1    
    18    3   18 1    
    19    4   19 1    
    20    5   20 1    
    21    6   21 1    
    22    6   22 1    
    23    7   23 1    
    24    8   24 1    
    25    9   25 1    
    26   11   26 1    
    27   12   27 1    
    28   14   28 1    
    29   14   29 1    
    30   14   30 1    
@<TRIPOS>SUBSTRUCTURE
     1 MAIN        1 PERM              0 ****  ****    0 ROOT 
