#	Name:			38
#	Creating user name:	jeff
#	Creation time:		Tue Feb 17 18:13:39 2004

#	Modifying user name:	jeff
#	Modification time:	Tue Feb 17 18:13:39 2004

@<TRIPOS>MOLECULE
38
   33    33     1     0     0
SMALL
USER_CHARGES


@<TRIPOS>ATOM
      1 C1          1.375000    1.158000    0.857000 C.3       1 MAIN        0.365700 
      2 C2          1.352000    1.545000   -0.646000 C.3       1 MAIN        0.088600 
      3 C3          0.205000    0.866000   -1.432000 C.3       1 MAIN        0.074200 
      4 C4          0.042000   -0.602000   -1.010000 C.3       1 MAIN        0.370300 
      5 C5         -0.100000   -0.659000    0.509000 C.3       1 MAIN        0.022500 
      6 C6         -0.469000   -2.072000    0.975000 C.3       1 MAIN        0.128500 
      7 O2          1.279000    2.971000   -0.790000 O.3       1 MAIN       -0.695800 
      8 O3          0.420000    0.984000   -2.842000 O.3       1 MAIN       -0.696700 
      9 O4         -1.081000   -1.217000   -1.626000 O.3       1 MAIN       -0.702900 
     10 O5          1.125000   -0.233000    1.086000 O.3       1 MAIN       -0.384300 
     11 O6          0.408000   -3.028000    0.389000 O.3       1 MAIN       -0.654900 
     12 N1          2.694000    1.459000    1.436000 N.am      1 MAIN       -1.038600 
     13 C7          2.829000    1.988000    2.715000 C.2       1 MAIN        0.926100 
     14 C8          4.229000    2.138000    3.242000 C.3       1 MAIN       -0.084100 
     15 O7          1.829000    2.294000    3.365000 O.2       1 MAIN       -0.677900 
     16 C9          4.269000    3.105000    4.431000 C.3       1 MAIN       -0.183600 
     17 H1          0.604221    1.747045    1.375556 H         1 MAIN        0.101800 
     18 H2          2.300380    1.206329   -1.088551 H         1 MAIN        0.103400 
     19 H3         -0.730145    1.391441   -1.188299 H         1 MAIN        0.088500 
     20 H4          0.945361   -1.154842   -1.307119 H         1 MAIN        0.076000 
     21 H5         -0.899926    0.029146    0.819722 H         1 MAIN        0.080100 
     22 H6         -1.503166   -2.295337    0.674007 H         1 MAIN        0.079800 
     23 H7         -0.386024   -2.126519    2.070499 H         1 MAIN        0.041200 
     24 H8          1.987766    3.375091   -0.303316 H         1 MAIN        0.468400 
     25 H9          0.516852    1.900657   -3.071911 H         1 MAIN        0.464400 
     26 H10        -0.985241   -1.177521   -2.570337 H         1 MAIN        0.445600 
     27 H11         0.170095   -3.898932    0.684600 H         1 MAIN        0.421400 
     28 H12         3.515445    1.278253    0.895106 H         1 MAIN        0.484100 
     29 H13         4.875037    2.526390    2.440899 H         1 MAIN        0.056400 
     30 H14         4.598423    1.153984    3.566367 H         1 MAIN        0.053200 
     31 H15         5.302940    3.195440    4.795403 H         1 MAIN        0.059400 
     32 H16         3.628131    2.720488    5.238101 H         1 MAIN        0.055600 
     33 H17         3.904745    4.092894    4.112633 H         1 MAIN        0.063500 
@<TRIPOS>BOND
     1    1   10 1    
     2    1    2 1    
     3    2    7 1    
     4    2    3 1    
     5    3    8 1    
     6    3    4 1    
     7    4    9 1    
     8    4    5 1    
     9    5   10 1    
    10    5    6 1    
    11    6   11 1    
    12    1   12 1    
    13   12   13 am   
    14   13   14 1    
    15   13   15 2    
    16   14   16 1    
    17    1   17 1    
    18    2   18 1    
    19    3   19 1    
    20    4   20 1    
    21    5   21 1    
    22    6   22 1    
    23    6   23 1    
    24    7   24 1    
    25    8   25 1    
    26    9   26 1    
    27   11   27 1    
    28   12   28 1    
    29   14   29 1    
    30   14   30 1    
    31   16   31 1    
    32   16   32 1    
    33   16   33 1    
@<TRIPOS>SUBSTRUCTURE
     1 MAIN        1 PERM              0 ****  ****    0 ROOT 
