#	Name:			39
#	Creating user name:	jeff
#	Creation time:		Tue Feb 17 18:13:39 2004

#	Modifying user name:	jeff
#	Modification time:	Tue Feb 17 18:13:39 2004

@<TRIPOS>MOLECULE
39
   30    30     1     0     0
SMALL
USER_CHARGES


@<TRIPOS>ATOM
      1 C1          1.374000    1.155000    0.855000 C.3       1 MAIN        0.146600 
      2 C2          1.347000    1.542000   -0.648000 C.3       1 MAIN        0.216000 
      3 C3          0.199000    0.863000   -1.431000 C.3       1 MAIN        0.119800 
      4 C4          0.036000   -0.604000   -1.008000 C.3       1 MAIN        0.351200 
      5 C5         -0.105000   -0.660000    0.511000 C.3       1 MAIN        0.012000 
      6 C6         -0.474000   -2.073000    0.979000 C.3       1 MAIN        0.079000 
      7 O2          1.276000    2.968000   -0.791000 O.3       1 MAIN       -0.761000 
      8 O3          0.411000    0.981000   -2.842000 O.3       1 MAIN       -0.721800 
      9 O4         -1.087000   -1.221000   -1.623000 O.3       1 MAIN       -0.704800 
     10 O5          1.120000   -0.235000    1.086000 O.3       1 MAIN       -0.340600 
     11 O6          0.402000   -3.029000    0.392000 O.3       1 MAIN       -0.652300 
     12 N1          2.699000    1.447000    1.426000 N.am      1 MAIN       -0.940700 
     13 C7          2.848000    1.983000    2.700000 C.2       1 MAIN        1.282500 
     14 C8          4.249000    2.124000    3.221000 C.3       1 MAIN       -1.129900 
     15 O7          1.857000    2.308000    3.356000 O.2       1 MAIN       -0.744500 
     16 Br1         4.288000    3.289000    4.766000 Br        1 MAIN        0.082600 
     17 H1          0.609190    1.748247    1.377589 H         1 MAIN        0.116500 
     18 H2          2.294055    1.202707   -1.092907 H         1 MAIN        0.073000 
     19 H3         -0.735489    1.388801   -1.185564 H         1 MAIN        0.079100 
     20 H4          0.939474   -1.156706   -1.305027 H         1 MAIN        0.086000 
     21 H5         -0.904259    0.028816    0.821953 H         1 MAIN        0.104600 
     22 H6         -1.508697   -2.296368    0.679863 H         1 MAIN        0.094900 
     23 H7         -0.389217   -2.126833    2.074394 H         1 MAIN        0.052400 
     24 H8          1.986313    3.370679   -0.305403 H         1 MAIN        0.520700 
     25 H9          0.507902    1.897612   -3.072071 H         1 MAIN        0.473400 
     26 H10        -0.991883   -1.182144   -2.567427 H         1 MAIN        0.449200 
     27 H11         0.164702   -3.899838    0.688363 H         1 MAIN        0.428800 
     28 H12         3.515485    1.254236    0.881755 H         1 MAIN        0.474800 
     29 H13         4.886989    2.548725    2.431979 H         1 MAIN        0.380700 
     30 H14         4.629956    1.132358    3.506472 H         1 MAIN        0.371700 
@<TRIPOS>BOND
     1    1   10 1    
     2    1    2 1    
     3    2    7 1    
     4    2    3 1    
     5    3    8 1    
     6    3    4 1    
     7    4    9 1    
     8    4    5 1    
     9    5   10 1    
    10    5    6 1    
    11    6   11 1    
    12    1   12 1    
    13   12   13 am   
    14   13   14 1    
    15   13   15 2    
    16   14   16 1    
    17    1   17 1    
    18    2   18 1    
    19    3   19 1    
    20    4   20 1    
    21    5   21 1    
    22    6   22 1    
    23    6   23 1    
    24    7   24 1    
    25    8   25 1    
    26    9   26 1    
    27   11   27 1    
    28   12   28 1    
    29   14   29 1    
    30   14   30 1    
@<TRIPOS>SUBSTRUCTURE
     1 MAIN        1 PERM              0 ****  ****    0 ROOT 
