#	Name:			4
#	Creating user name:	jeff
#	Creation time:		Tue Feb 17 18:13:39 2004

#	Modifying user name:	jeff
#	Modification time:	Tue Feb 17 18:13:39 2004

@<TRIPOS>MOLECULE
4
   27    27     1     0     0
SMALL
USER_CHARGES


@<TRIPOS>ATOM
      1 C1          1.429000    1.331000    0.789000 C.3       1 MAIN        0.287500 
      2 C2          1.484000    1.621000   -0.729000 C.3       1 MAIN       -0.001800 
      3 C3          0.325000    0.938000   -1.488000 C.3       1 MAIN        0.144200 
      4 C4          0.155000   -0.517000   -1.031000 C.3       1 MAIN        0.348400 
      5 C5          0.028000   -0.532000    0.494000 C.3       1 MAIN        0.009300 
      6 C6         -0.368000   -1.922000    1.008000 C.3       1 MAIN        0.102700 
      7 O1          2.607000    1.827000    1.427000 O.3       1 MAIN       -0.400400 
      8 O2          1.476000    3.034000   -0.958000 O.3       1 MAIN       -0.628300 
      9 O3          0.515000    1.027000   -2.901000 O.3       1 MAIN       -0.699400 
     10 O4         -0.979000   -1.136000   -1.628000 O.3       1 MAIN       -0.691000 
     11 O5          1.250000   -0.068000    1.065000 O.3       1 MAIN       -0.371100 
     12 O6          0.418000   -2.930000    0.380000 O.3       1 MAIN       -0.656000 
     13 C7          2.444000    1.860000    2.846000 C.3       1 MAIN       -0.030200 
     14 H1          0.563276    1.867920    1.203986 H         1 MAIN        0.099900 
     15 H2          2.428736    1.214309   -1.118936 H         1 MAIN        0.130200 
     16 H3         -0.602071    1.476244   -1.241407 H         1 MAIN        0.074700 
     17 H4          1.051241   -1.084618   -1.321754 H         1 MAIN        0.091500 
     18 H5         -0.770228    0.168386    0.780820 H         1 MAIN        0.081600 
     19 H6         -1.430335   -2.100814    0.785638 H         1 MAIN        0.082100 
     20 H7         -0.208802   -1.964423    2.095580 H         1 MAIN        0.053200 
     21 H8          2.194631    3.435672   -0.483943 H         1 MAIN        0.415800 
     22 H9          0.616641    1.938121   -3.150054 H         1 MAIN        0.459200 
     23 H10        -0.887434   -1.119927   -2.573440 H         1 MAIN        0.435300 
     24 H11         0.160440   -3.783180    0.709010 H         1 MAIN        0.427600 
     25 H12         3.363197    2.244869    3.311781 H         1 MAIN        0.106800 
     26 H13         2.243426    0.843639    3.215803 H         1 MAIN        0.079400 
     27 H14         1.599983    2.516942    3.102977 H         1 MAIN        0.048600 
@<TRIPOS>BOND
     1    1   11 1    
     2    1    7 1    
     3    1    2 1    
     4    2    8 1    
     5    2    3 1    
     6    3    9 1    
     7    3    4 1    
     8    4   10 1    
     9    4    5 1    
    10   11    5 1    
    11    5    6 1    
    12    6   12 1    
    13    7   13 1    
    14    1   14 1    
    15    2   15 1    
    16    3   16 1    
    17    4   17 1    
    18    5   18 1    
    19    6   19 1    
    20    6   20 1    
    21    8   21 1    
    22    9   22 1    
    23   10   23 1    
    24   12   24 1    
    25   13   25 1    
    26   13   26 1    
    27   13   27 1    
@<TRIPOS>SUBSTRUCTURE
     1 MAIN        1 PERM              0 ****  ****    0 ROOT 
