#	Name:			40
#	Creating user name:	jeff
#	Creation time:		Tue Feb 17 18:13:39 2004

#	Modifying user name:	jeff
#	Modification time:	Tue Feb 17 18:13:39 2004

@<TRIPOS>MOLECULE
40
   37    38     1     0     0
SMALL
USER_CHARGES


@<TRIPOS>ATOM
      1 C1          1.241000    1.170000    0.948000 C.3       1 MAIN        0.211500 
      2 C2          1.338000    1.553000   -0.556000 C.3       1 MAIN        0.154600 
      3 C3          0.243000    0.857000   -1.401000 C.3       1 MAIN        0.079100 
      4 C4          0.083000   -0.617000   -0.995000 C.3       1 MAIN        0.356100 
      5 C5         -0.105000   -0.696000    0.522000 C.3       1 MAIN        0.069800 
      6 C6         -0.464000   -2.117000    0.967000 C.3       1 MAIN        0.115400 
      7 O2          1.250000    2.976000   -0.723000 O.3       1 MAIN       -0.711200 
      8 O3          0.506000    0.996000   -2.803000 O.3       1 MAIN       -0.700300 
      9 O4         -1.016000   -1.235000   -1.651000 O.3       1 MAIN       -0.704900 
     10 O5          1.083000   -0.237000    1.149000 O.3       1 MAIN       -0.390300 
     11 O6          0.427000   -3.057000    0.379000 O.3       1 MAIN       -0.652500 
     12 N1          2.416000    1.631000    1.712000 N.am      1 MAIN       -0.858100 
     13 C7          2.247000    2.143000    3.001000 C.2       1 MAIN        0.900700 
     14 C8          3.419000    2.600000    3.756000 C.ar      1 MAIN       -0.274200 
     15 O7          1.098000    2.219000    3.456000 O.2       1 MAIN       -0.674200 
     16 C9          4.717000    2.388000    3.277000 C.ar      1 MAIN       -0.040600 
     17 C10         5.816000    2.865000    3.986000 C.ar      1 MAIN       -0.196800 
     18 C11         5.633000    3.545000    5.190000 C.ar      1 MAIN       -0.069700 
     19 C12         4.345000    3.746000    5.683000 C.ar      1 MAIN       -0.158800 
     20 C13         3.245000    3.279000    4.969000 C.ar      1 MAIN       -0.080800 
     21 H1          0.351285    1.671764    1.356185 H         1 MAIN        0.130200 
     22 H2          2.318687    1.220882   -0.927382 H         1 MAIN        0.090700 
     23 H3         -0.710985    1.363044   -1.191699 H         1 MAIN        0.085000 
     24 H4          1.000263   -1.157849   -1.270836 H         1 MAIN        0.077000 
     25 H5         -0.932430   -0.030288    0.808636 H         1 MAIN        0.071000 
     26 H6         -1.492977   -2.346715    0.653293 H         1 MAIN        0.077700 
     27 H7         -0.391077   -2.183780    2.062535 H         1 MAIN        0.042400 
     28 H8          1.923581    3.398116   -0.202801 H         1 MAIN        0.477400 
     29 H9          0.598918    1.916680   -3.017977 H         1 MAIN        0.464200 
     30 H10        -0.893444   -1.182708   -2.591609 H         1 MAIN        0.447200 
     31 H11         0.194558   -3.933544    0.662093 H         1 MAIN        0.422700 
     32 H12         3.329593    1.577234    1.308930 H         1 MAIN        0.469300 
     33 H13         4.867366    1.849208    2.348475 H         1 MAIN        0.138800 
     34 H14         6.817078    2.707463    3.601175 H         1 MAIN        0.158800 
     35 H15         6.489923    3.915992    5.740558 H         1 MAIN        0.142500 
     36 H16         4.199706    4.266217    6.622856 H         1 MAIN        0.150400 
     37 H17         2.245229    3.442131    5.354891 H         1 MAIN        0.180000 
@<TRIPOS>BOND
     1    1   10 1    
     2    1    2 1    
     3    2    7 1    
     4    2    3 1    
     5    3    8 1    
     6    3    4 1    
     7    4    9 1    
     8    4    5 1    
     9    5   10 1    
    10    5    6 1    
    11    6   11 1    
    12    1   12 1    
    13   12   13 am   
    14   13   14 1    
    15   13   15 2    
    16   14   16 ar   
    17   16   17 ar   
    18   17   18 ar   
    19   18   19 ar   
    20   19   20 ar   
    21   20   14 ar   
    22    1   21 1    
    23    2   22 1    
    24    3   23 1    
    25    4   24 1    
    26    5   25 1    
    27    6   26 1    
    28    6   27 1    
    29    7   28 1    
    30    8   29 1    
    31    9   30 1    
    32   11   31 1    
    33   12   32 1    
    34   16   33 1    
    35   17   34 1    
    36   18   35 1    
    37   19   36 1    
    38   20   37 1    
@<TRIPOS>SUBSTRUCTURE
     1 MAIN        1 PERM              0 ****  ****    0 ROOT 
