#	Name:			41
#	Creating user name:	jeff
#	Creation time:		Tue Feb 17 18:13:39 2004

#	Modifying user name:	jeff
#	Modification time:	Tue Feb 17 18:13:40 2004

@<TRIPOS>MOLECULE
41
   36    36     1     0     0
SMALL
USER_CHARGES


@<TRIPOS>ATOM
      1 C1          1.368000    1.150000    0.864000 C.3       1 MAIN        0.343600 
      2 C2          1.346000    1.539000   -0.639000 C.3       1 MAIN        0.096300 
      3 C3          0.200000    0.861000   -1.426000 C.3       1 MAIN        0.083800 
      4 C4          0.035000   -0.608000   -1.005000 C.3       1 MAIN        0.362600 
      5 C5         -0.104000   -0.667000    0.515000 C.3       1 MAIN        0.044600 
      6 C6         -0.471000   -2.081000    0.980000 C.3       1 MAIN        0.120200 
      7 O2          1.275000    2.965000   -0.784000 O.3       1 MAIN       -0.716800 
      8 O3          0.415000    0.980000   -2.837000 O.3       1 MAIN       -0.702000 
      9 O4         -1.089000   -1.221000   -1.621000 O.3       1 MAIN       -0.704100 
     10 O5          1.122000   -0.242000    1.090000 O.3       1 MAIN       -0.397000 
     11 O6          0.406000   -3.034000    0.391000 O.3       1 MAIN       -0.653800 
     12 N1          2.685000    1.457000    1.445000 N.am      1 MAIN       -1.014800 
     13 C7          2.817000    1.982000    2.726000 C.2       1 MAIN        0.963200 
     14 C8          4.215000    2.162000    3.247000 C.3       1 MAIN       -0.352200 
     15 O7          1.815000    2.266000    3.384000 O.2       1 MAIN       -0.714900 
     16 C9          4.251000    3.221000    4.354000 C.3       1 MAIN        0.225900 
     17 C10         5.688000    3.451000    4.831000 C.3       1 MAIN       -0.254800 
     18 H1          0.594055    1.735261    1.382125 H         1 MAIN        0.106200 
     19 H2          2.294460    1.199639   -1.080850 H         1 MAIN        0.104300 
     20 H3         -0.734901    1.386865   -1.182278 H         1 MAIN        0.084400 
     21 H4          0.937236   -1.161634   -1.304056 H         1 MAIN        0.077200 
     22 H5         -0.903494    0.020449    0.828367 H         1 MAIN        0.075500 
     23 H6         -1.505422   -2.305177    0.680517 H         1 MAIN        0.077200 
     24 H7         -0.386002   -2.137051    2.075266 H         1 MAIN        0.043500 
     25 H8          1.983486    3.368514   -0.296431 H         1 MAIN        0.498900 
     26 H9          0.513051    1.896720   -3.066150 H         1 MAIN        0.469300 
     27 H10        -0.994176   -1.179776   -2.565356 H         1 MAIN        0.446700 
     28 H11         0.170051   -3.905847    0.685467 H         1 MAIN        0.423300 
     29 H12         3.507648    1.283264    0.903637 H         1 MAIN        0.492300 
     30 H13         4.869150    2.480417    2.421971 H         1 MAIN        0.110300 
     31 H14         4.575031    1.204717    3.651921 H         1 MAIN        0.101800 
     32 H15         3.638768    2.879380    5.201610 H         1 MAIN       -0.016700 
     33 H16         3.843547    4.165592    3.964509 H         1 MAIN       -0.003700 
     34 H17         5.693456    4.213074    5.624230 H         1 MAIN        0.054800 
     35 H18         6.303729    3.795711    3.987183 H         1 MAIN        0.066700 
     36 H19         6.098949    2.509499    5.224284 H         1 MAIN        0.058300 
@<TRIPOS>BOND
     1    1   10 1    
     2    1    2 1    
     3    2    7 1    
     4    2    3 1    
     5    3    8 1    
     6    3    4 1    
     7    4    9 1    
     8    4    5 1    
     9   10    5 1    
    10    5    6 1    
    11    6   11 1    
    12    1   12 1    
    13   12   13 am   
    14   13   14 1    
    15   13   15 2    
    16   14   16 1    
    17   16   17 1    
    18    1   18 1    
    19    2   19 1    
    20    3   20 1    
    21    4   21 1    
    22    5   22 1    
    23    6   23 1    
    24    6   24 1    
    25    7   25 1    
    26    8   26 1    
    27    9   27 1    
    28   11   28 1    
    29   12   29 1    
    30   14   30 1    
    31   14   31 1    
    32   16   32 1    
    33   16   33 1    
    34   17   34 1    
    35   17   35 1    
    36   17   36 1    
@<TRIPOS>SUBSTRUCTURE
     1 MAIN        1 PERM              0 ****  ****    0 ROOT 
