#	Name:			42
#	Creating user name:	jeff
#	Creation time:		Tue Feb 17 18:13:40 2004

#	Modifying user name:	jeff
#	Modification time:	Tue Feb 17 18:13:40 2004

@<TRIPOS>MOLECULE
42
   29    29     1     0     0
SMALL
USER_CHARGES


@<TRIPOS>ATOM
      1 C1          1.434000    1.215000    0.903000 C.3       1 MAIN        0.250600 
      2 C2          1.429000    1.594000   -0.608000 C.3       1 MAIN        0.127700 
      3 C3          0.295000    0.909000   -1.410000 C.3       1 MAIN        0.095200 
      4 C4          0.118000   -0.553000   -0.988000 C.3       1 MAIN        0.338200 
      5 C5         -0.066000   -0.596000    0.528000 C.3       1 MAIN        0.043200 
      6 C6         -0.461000   -2.003000    0.993000 C.3       1 MAIN        0.100100 
      7 O2          1.339000    3.015000   -0.768000 O.3       1 MAIN       -0.710900 
      8 O3          0.524000    1.022000   -2.819000 O.3       1 MAIN       -0.701700 
      9 O4         -0.991000   -1.165000   -1.635000 O.3       1 MAIN       -0.700000 
     10 O5          1.146000   -0.172000    1.137000 O.3       1 MAIN       -0.389300 
     11 O6          0.392000   -2.978000    0.401000 O.3       1 MAIN       -0.650700 
     12 N1          2.759000    1.479000    1.508000 N.am      1 MAIN       -0.933600 
     13 C7          2.900000    1.864000    2.846000 C.2       1 MAIN        1.202500 
     14 C8          4.177000    1.749000    3.418000 N.am      1 MAIN       -1.266200 
     15 O7          1.921000    2.250000    3.498000 O.2       1 MAIN       -0.770400 
     16 H1          0.673586    1.826893    1.410278 H         1 MAIN        0.119600 
     17 H2          2.386467    1.260392   -1.034541 H         1 MAIN        0.095400 
     18 H3         -0.642357    1.436962   -1.180669 H         1 MAIN        0.085300 
     19 H4          1.027175   -1.110963   -1.256426 H         1 MAIN        0.087200 
     20 H5         -0.869152    0.100516    0.810467 H         1 MAIN        0.088200 
     21 H6         -1.501312   -2.203951    0.697460 H         1 MAIN        0.083300 
     22 H7         -0.373080   -2.061155    2.087926 H         1 MAIN        0.048400 
     23 H8          2.035135    3.433807   -0.275561 H         1 MAIN        0.485300 
     24 H9          0.629657    1.937356   -3.050214 H         1 MAIN        0.464400 
     25 H10        -0.865922   -1.132547   -2.576171 H         1 MAIN        0.446200 
     26 H11         0.136621   -3.843788    0.697130 H         1 MAIN        0.424100 
     27 H12         3.578291    1.379182    0.943370 H         1 MAIN        0.486200 
     28 H13         4.323413    2.012779    4.371406 H         1 MAIN        0.523900 
     29 H14         4.940151    1.403310    2.872008 H         1 MAIN        0.527800 
@<TRIPOS>BOND
     1    1   10 1    
     2    1    2 1    
     3    2    7 1    
     4    2    3 1    
     5    3    8 1    
     6    3    4 1    
     7    4    9 1    
     8    4    5 1    
     9    5   10 1    
    10    5    6 1    
    11    6   11 1    
    12    1   12 1    
    13   12   13 am   
    14   13   14 am   
    15   13   15 2    
    16    1   16 1    
    17    2   17 1    
    18    3   18 1    
    19    4   19 1    
    20    5   20 1    
    21    6   21 1    
    22    6   22 1    
    23    7   23 1    
    24    8   24 1    
    25    9   25 1    
    26   11   26 1    
    27   12   27 1    
    28   14   28 1    
    29   14   29 1    
@<TRIPOS>SUBSTRUCTURE
     1 MAIN        1 PERM              0 ****  ****    0 ROOT 
