#	Name:			43
#	Creating user name:	jeff
#	Creation time:		Tue Feb 17 18:13:40 2004

#	Modifying user name:	jeff
#	Modification time:	Tue Feb 17 18:13:40 2004

@<TRIPOS>MOLECULE
43
   32    32     1     0     0
SMALL
USER_CHARGES


@<TRIPOS>ATOM
      1 C1          1.282000    1.134000    0.841000 C.3       1 MAIN        0.603300 
      2 C2          1.368000    1.401000   -0.683000 C.3       1 MAIN        0.125700 
      3 C3          0.177000    0.814000   -1.450000 C.3       1 MAIN        0.014200 
      4 C4         -0.039000   -0.650000   -1.014000 C.3       1 MAIN        0.357700 
      5 C5         -0.217000   -0.695000    0.507000 C.3       1 MAIN       -0.067900 
      6 C6         -0.556000   -2.113000    0.973000 C.3       1 MAIN        0.156000 
      7 O2          1.521000    2.813000   -0.944000 O.3       1 MAIN       -0.716400 
      8 O3          0.397000    0.929000   -2.856000 O.3       1 MAIN       -0.686000 
      9 O4         -1.168000   -1.244000   -1.637000 O.3       1 MAIN       -0.687800 
     10 O5          0.967000   -0.238000    1.135000 O.3       1 MAIN       -0.407600 
     11 O6          0.373000   -3.039000    0.418000 O.3       1 MAIN       -0.643600 
     12 N1          2.600000    1.344000    1.417000 N.am      1 MAIN       -1.221500 
     13 C7          2.862000    1.773000    2.707000 C.2       1 MAIN        0.999300 
     14 O1          1.968000    2.038000    3.513000 O.2       1 MAIN       -0.693500 
     15 C8          4.326000    1.850000    2.998000 C.3       1 MAIN        0.123200 
     16 N2          4.592000    2.252000    4.389000 N.3       1 MAIN       -0.970700 
     17 H1          0.537472    1.804823    1.294486 H         1 MAIN        0.036100 
     18 H2          2.272448    0.896094   -1.053161 H         1 MAIN        0.103300 
     19 H3         -0.725996    1.388105   -1.195094 H         1 MAIN        0.098100 
     20 H4          0.854007   -1.230368   -1.289110 H         1 MAIN        0.082500 
     21 H5         -1.046097   -0.027873    0.785415 H         1 MAIN        0.107100 
     22 H6         -1.572321   -2.372857    0.642031 H         1 MAIN        0.073500 
     23 H7         -0.505006   -2.158458    2.070865 H         1 MAIN        0.041000 
     24 H8          2.264809    3.146420   -0.456066 H         1 MAIN        0.478200 
     25 H9          0.525087    1.842603   -3.082768 H         1 MAIN        0.467600 
     26 H10        -1.059698   -1.217161   -2.580425 H         1 MAIN        0.445600 
     27 H11         0.157984   -3.916951    0.710351 H         1 MAIN        0.416100 
     28 H12         3.388056    1.162330    0.828806 H         1 MAIN        0.518900 
     29 H13         4.784129    2.586770    2.321788 H         1 MAIN        0.094300 
     30 H14         4.775432    0.861555    2.822040 H         1 MAIN        0.001900 
     31 H15         5.658515    2.294400    4.553767 H         1 MAIN        0.385600 
     32 H16         4.152103    1.531334    5.062429 H         1 MAIN        0.365500 
@<TRIPOS>BOND
     1    1   10 1    
     2    1    2 1    
     3    2    7 1    
     4    2    3 1    
     5    3    8 1    
     6    3    4 1    
     7    4    9 1    
     8    4    5 1    
     9   10    5 1    
    10    5    6 1    
    11    6   11 1    
    12    1   12 1    
    13   12   13 am   
    14   13   14 2    
    15   13   15 1    
    16   15   16 1    
    17    1   17 1    
    18    2   18 1    
    19    3   19 1    
    20    4   20 1    
    21    5   21 1    
    22    6   22 1    
    23    6   23 1    
    24    7   24 1    
    25    8   25 1    
    26    9   26 1    
    27   11   27 1    
    28   12   28 1    
    29   15   29 1    
    30   15   30 1    
    31   16   31 1    
    32   16   32 1    
@<TRIPOS>SUBSTRUCTURE
     1 MAIN        1 PERM              0 ****  ****    0 ROOT 
