#	Name:			44
#	Creating user name:	jeff
#	Creation time:		Tue Feb 17 18:13:40 2004

#	Modifying user name:	jeff
#	Modification time:	Tue Feb 17 18:13:40 2004

@<TRIPOS>MOLECULE
44
   37    38     1     0     0
SMALL
USER_CHARGES


@<TRIPOS>ATOM
      1 C1          0.534000    1.169000    1.153000 C.3       1 MAIN       -0.295500 
      2 C2          1.015000    1.515000   -0.272000 C.3       1 MAIN        0.269700 
      3 C3          0.128000    0.756000   -1.291000 C.3       1 MAIN        0.057900 
      4 C4          0.004000   -0.733000   -0.898000 C.3       1 MAIN        0.338700 
      5 C5         -0.384000   -0.865000    0.587000 C.3       1 MAIN       -0.001700 
      6 C6         -0.621000   -2.324000    0.991000 C.3       1 MAIN        0.075600 
      7 O1          0.534000    2.765000    2.880000 O.2       1 MAIN       -0.648600 
      8 O2          0.964000    2.929000   -0.513000 O.3       1 MAIN       -0.702700 
      9 O3          0.594000    0.934000   -2.636000 O.3       1 MAIN       -0.702000 
     10 O4         -0.961000   -1.394000   -1.703000 O.3       1 MAIN       -0.701800 
     11 O5          0.585000   -0.229000    1.421000 O.3       1 MAIN       -0.328800 
     12 O6          0.391000   -3.162000    0.446000 O.3       1 MAIN       -0.647700 
     13 H12         1.205000    1.962000    2.233000 C.2       1 MAIN        0.929600 
     14 N1          2.607000    1.776000    2.455000 N.am      1 MAIN       -0.977700 
     15 C7          3.391163    2.348594    3.485670 C.ar      1 MAIN        0.545800 
     16 C8          2.848163    2.846594    4.676670 C.ar      1 MAIN       -0.357500 
     17 C9          3.663163    3.441594    5.632670 C.ar      1 MAIN       -0.056500 
     18 C10         5.038163    3.507594    5.430670 C.ar      1 MAIN       -0.242500 
     19 C11         5.591163    2.969594    4.272670 C.ar      1 MAIN       -0.036300 
     20 C12         4.775163    2.393594    3.301670 C.ar      1 MAIN       -0.414400 
     21 H1         -0.528775    1.450681    1.186769 H         1 MAIN        0.178400 
     22 H2          2.056670    1.180408   -0.385785 H         1 MAIN        0.074200 
     23 H3         -0.880488    1.192164   -1.239157 H         1 MAIN        0.111200 
     24 H4          0.980030   -1.216228   -1.052370 H         1 MAIN        0.090700 
     25 H5         -1.336353   -0.332339    0.725821 H         1 MAIN        0.119900 
     26 H6         -1.602007   -2.649238    0.614410 H         1 MAIN        0.098600 
     27 H7         -0.604682   -2.403201    2.088012 H         1 MAIN        0.055700 
     28 H8          1.512415    3.378001    0.119565 H         1 MAIN        0.452900 
     29 H9          0.653658    1.862017   -2.830229 H         1 MAIN        0.460600 
     30 H10        -0.719980   -1.311467   -2.618204 H         1 MAIN        0.454300 
     31 H11         0.230405   -4.061815    0.704926 H         1 MAIN        0.427200 
     32 H13         3.084361    1.176629    1.812436 H         1 MAIN        0.515800 
     33 H14         1.781837    2.767275    4.854752 H         1 MAIN        0.218100 
     34 H15         3.227498    3.854132    6.535479 H         1 MAIN        0.146600 
     35 H16         5.675615    3.975908    6.171881 H         1 MAIN        0.155800 
     36 H17         6.664671    2.998916    4.125101 H         1 MAIN        0.140900 
     37 H18         5.214988    1.979510    2.401590 H         1 MAIN        0.195700 
@<TRIPOS>BOND
     1    1   11 1    
     2   13    7 2    
     3    1    2 1    
     4    2    8 1    
     5    2    3 1    
     6    3    9 1    
     7    3    4 1    
     8    4   10 1    
     9    5    4 1    
    10   11    5 1    
    11    5    6 1    
    12    6   12 1    
    13    1   13 1    
    14   13   14 am   
    15   14   15 1    
    16   15   16 ar   
    17   16   17 ar   
    18   17   18 ar   
    19   18   19 ar   
    20   19   20 ar   
    21   15   20 ar   
    22    1   21 1    
    23    2   22 1    
    24    3   23 1    
    25    4   24 1    
    26    5   25 1    
    27    6   26 1    
    28    6   27 1    
    29    8   28 1    
    30    9   29 1    
    31   10   30 1    
    32   12   31 1    
    33   14   32 1    
    34   16   33 1    
    35   17   34 1    
    36   18   35 1    
    37   19   36 1    
    38   20   37 1    
@<TRIPOS>SUBSTRUCTURE
     1 MAIN        1 PERM              0 ****  ****    0 ROOT 
