#	Name:			45
#	Creating user name:	jeff
#	Creation time:		Tue Feb 17 18:13:40 2004

#	Modifying user name:	jeff
#	Modification time:	Tue Feb 17 18:13:40 2004

@<TRIPOS>MOLECULE
45
   35    35     1     0     0
SMALL
USER_CHARGES


@<TRIPOS>ATOM
      1 C1          1.209000    1.210000    0.916000 C.3       1 MAIN        0.315400 
      2 C2          1.295000    1.516000   -0.618000 C.3       1 MAIN        0.095400 
      3 C3          0.180000    0.828000   -1.438000 C.3       1 MAIN        0.059800 
      4 C4          0.032000   -0.640000   -1.010000 C.3       1 MAIN        0.399600 
      5 C5         -0.152000   -0.698000    0.507000 C.3       1 MAIN       -0.040100 
      6 C6         -0.479000   -2.119000    0.976000 C.3       1 MAIN        0.112300 
      7 O1         -0.289000    1.685000    2.757000 O.2       1 MAIN       -0.652200 
      8 O2          1.365000    2.925000   -0.903000 O.3       1 MAIN       -0.679900 
      9 O3          0.427000    0.956000   -2.843000 O.3       1 MAIN       -0.682000 
     10 O4         -1.066000   -1.277000   -1.648000 O.3       1 MAIN       -0.690800 
     11 O5          1.019000   -0.194000    1.144000 O.3       1 MAIN       -0.342800 
     12 O6          0.421000   -3.050000    0.386000 O.3       1 MAIN       -0.653100 
     13 N1         -0.639000    2.917000    0.920000 N.am      1 MAIN       -1.208900 
     14 N2          2.578000    1.431000    1.461000 N.am      1 MAIN       -1.022200 
     15 C7          3.067000    2.054000    2.621000 C.2       1 MAIN        1.210700 
     16 C1          0.064000    1.944000    1.613000 C.2       1 MAIN        0.882800 
     17 O7          2.412000    2.687000    3.455000 O.2       1 MAIN       -0.765300 
     18 O8          4.385481    1.946089    2.758342 O.3       1 MAIN       -0.490800 
     19 C8          5.010502    2.685479    3.810744 C.3       1 MAIN        0.019100 
     20 H1          2.245161    1.081799   -0.962438 H         1 MAIN        0.120800 
     21 H2         -0.768787    1.339215   -1.217915 H         1 MAIN        0.095300 
     22 H3          0.952014   -1.178381   -1.281466 H         1 MAIN        0.070400 
     23 H4         -0.998448   -0.049732    0.777646 H         1 MAIN        0.118600 
     24 H5         -1.508146   -2.371385    0.680815 H         1 MAIN        0.082700 
     25 H6         -0.388600   -2.170161    2.071073 H         1 MAIN        0.060700 
     26 H7          2.057528    3.318720   -0.385420 H         1 MAIN        0.465600 
     27 H8          0.512156    1.875262   -3.067068 H         1 MAIN        0.451200 
     28 H9         -0.949795   -1.239892   -2.590136 H         1 MAIN        0.437800 
     29 H10         0.209322   -3.927065    0.683405 H         1 MAIN        0.423400 
     30 H11        -0.376595    3.152331   -0.015822 H         1 MAIN        0.539900 
     31 H12        -1.408596    3.383655    1.355848 H         1 MAIN        0.503900 
     32 H13         3.300130    1.057415    0.878788 H         1 MAIN        0.500200 
     33 H14         6.094058    2.496405    3.798240 H         1 MAIN        0.076800 
     34 H15         4.594268    2.369052    4.778524 H         1 MAIN        0.105700 
     35 H16         4.824080    3.759713    3.664997 H         1 MAIN        0.080200 
@<TRIPOS>BOND
     1    1   11 1    
     2   16    7 2    
     3    1    2 1    
     4    2    8 1    
     5    2    3 1    
     6    3    9 1    
     7    3    4 1    
     8    4   10 1    
     9    5    4 1    
    10   11    5 1    
    11    5    6 1    
    12    6   12 1    
    13   16   13 am   
    14    1   14 1    
    15   14   15 am   
    16    1   16 1    
    17   15   17 2    
    18   15   18 1    
    19   18   19 1    
    20    2   20 1    
    21    3   21 1    
    22    4   22 1    
    23    5   23 1    
    24    6   24 1    
    25    6   25 1    
    26    8   26 1    
    27    9   27 1    
    28   10   28 1    
    29   12   29 1    
    30   13   30 1    
    31   13   31 1    
    32   14   32 1    
    33   19   33 1    
    34   19   34 1    
    35   19   35 1    
@<TRIPOS>SUBSTRUCTURE
     1 MAIN        1 PERM              0 ****  ****    0 ROOT 
