#	Name:			46
#	Creating user name:	jeff
#	Creation time:		Tue Feb 17 18:13:40 2004

#	Modifying user name:	jeff
#	Modification time:	Tue Feb 17 18:13:40 2004

@<TRIPOS>MOLECULE
46
   41    42     1     0     0
SMALL
USER_CHARGES


@<TRIPOS>ATOM
      1 C1          1.208401    1.174842    0.945362 C.3       1 MAIN        0.525600 
      2 C2          1.330401    1.564842   -0.552638 C.3       1 MAIN        0.073300 
      3 C3          0.257401    0.854842   -1.408638 C.3       1 MAIN        0.068500 
      4 C4          0.124401   -0.623158   -1.002638 C.3       1 MAIN        0.358600 
      5 C5         -0.091599   -0.699158    0.509362 C.3       1 MAIN       -0.056600 
      6 C6         -0.460599   -2.116158    0.956362 C.3       1 MAIN        0.124000 
      7 N1          2.344401    1.663842    1.737362 N.am      1 MAIN       -1.143600 
      8 O2          1.237401    2.988842   -0.717638 O.3       1 MAIN       -0.707500 
      9 O3          0.535401    0.997842   -2.807638 O.3       1 MAIN       -0.697600 
     10 O4         -0.946599   -1.265158   -1.676638 O.3       1 MAIN       -0.690800 
     11 O5          1.083401   -0.234158    1.147362 O.3       1 MAIN       -0.385100 
     12 O6          0.427401   -3.063158    0.379362 O.3       1 MAIN       -0.647600 
     13 C7          2.088401    2.188842    3.000362 C.2       1 MAIN        1.259300 
     14 O7          3.159210    2.619130    3.661512 O.3       1 MAIN       -0.522800 
     15 O1          0.948401    2.278842    3.470362 O.2       1 MAIN       -0.780500 
     16 C8          2.956000    3.269000    4.919000 C.3       1 MAIN        0.024300 
     17 C           4.301543    3.592418    5.559735 C.ar      1 MAIN        0.170700 
     18 C           4.364543    4.352418    6.726735 C.ar      1 MAIN       -0.282700 
     19 C           5.594543    4.646418    7.313735 C.ar      1 MAIN       -0.107400 
     20 C           6.770543    4.178418    6.734735 C.ar      1 MAIN       -0.156600 
     21 C           6.713543    3.416418    5.570735 C.ar      1 MAIN       -0.123000 
     22 C           5.485543    3.126418    4.984735 C.ar      1 MAIN       -0.227900 
     23 H1          0.295312    1.651976    1.330831 H         1 MAIN        0.056100 
     24 H2          2.319802    1.241576   -0.908390 H         1 MAIN        0.115300 
     25 H3         -0.707917    1.343357   -1.209923 H         1 MAIN        0.085700 
     26 H4          1.058693   -1.144077   -1.258993 H         1 MAIN        0.086400 
     27 H5         -0.923860   -0.032405    0.779095 H         1 MAIN        0.110100 
     28 H6         -1.488682   -2.341241    0.636427 H         1 MAIN        0.082200 
     29 H7         -0.395606   -2.179142    2.052620 H         1 MAIN        0.051700 
     30 H8          3.276848    1.620679    1.378630 H         1 MAIN        0.533500 
     31 H9          1.901408    3.413121   -0.186995 H         1 MAIN        0.478200 
     32 H10         0.610948    1.920065   -3.022808 H         1 MAIN        0.470300 
     33 H11        -0.806181   -1.214300   -2.614826 H         1 MAIN        0.442500 
     34 H12         0.187435   -3.936976    0.664595 H         1 MAIN        0.422700 
     35 H13         2.385321    2.604872    5.584758 H         1 MAIN        0.089500 
     36 H14         2.393818    4.201206    4.761146 H         1 MAIN        0.086300 
     37 H15         3.450561    4.717455    7.181092 H         1 MAIN        0.182200 
     38 H16         5.634929    5.239099    8.220462 H         1 MAIN        0.147700 
     39 H17         7.728113    4.406512    7.188704 H         1 MAIN        0.152100 
     40 H18         7.628128    3.048296    5.120095 H         1 MAIN        0.148900 
     41 H19         5.447696    2.535453    4.076779 H         1 MAIN        0.184000 
@<TRIPOS>BOND
     1    1   11 1    
     2    7    1 1    
     3    1    2 1    
     4    2    8 1    
     5    2    3 1    
     6    3    9 1    
     7    3    4 1    
     8    4   10 1    
     9    5    4 1    
    10   11    5 1    
    11    5    6 1    
    12    6   12 1    
    13   13    7 am   
    14   14   13 1    
    15   13   15 2    
    16   16   14 1    
    17   17   18 ar   
    18   17   22 ar   
    19   22   21 ar   
    20   21   20 ar   
    21   19   20 ar   
    22   18   19 ar   
    23   16   17 1    
    24    1   23 1    
    25    2   24 1    
    26    3   25 1    
    27    4   26 1    
    28    5   27 1    
    29    6   28 1    
    30    6   29 1    
    31    7   30 1    
    32    8   31 1    
    33    9   32 1    
    34   10   33 1    
    35   12   34 1    
    36   16   35 1    
    37   16   36 1    
    38   18   37 1    
    39   19   38 1    
    40   20   39 1    
    41   21   40 1    
    42   22   41 1    
@<TRIPOS>SUBSTRUCTURE
     1 MAIN        1 PERM              0 ****  ****    0 ROOT 
