#	Name:			47
#	Creating user name:	jeff
#	Creation time:		Tue Feb 17 18:13:40 2004

#	Modifying user name:	jeff
#	Modification time:	Tue Feb 17 18:13:40 2004

@<TRIPOS>MOLECULE
47
   37    37     1     0     0
SMALL
USER_CHARGES


@<TRIPOS>ATOM
      1 C1          1.356000    1.155000    0.862000 C.3       1 MAIN        0.300400 
      2 C2          1.341000    1.540000   -0.642000 C.3       1 MAIN        0.110400 
      3 C3          0.195000    0.862000   -1.429000 C.3       1 MAIN        0.069400 
      4 C4          0.030000   -0.606000   -1.007000 C.3       1 MAIN        0.369700 
      5 C5         -0.117000   -0.663000    0.512000 C.3       1 MAIN        0.065400 
      6 C6         -0.481000   -2.078000    0.977000 C.3       1 MAIN        0.105600 
      7 N1          2.674000    1.447000    1.446000 N.am      1 MAIN       -0.968000 
      8 O2          1.273000    2.965000   -0.788000 O.3       1 MAIN       -0.687000 
      9 O3          0.413000    0.980000   -2.840000 O.3       1 MAIN       -0.695200 
     10 O4         -1.090000   -1.222000   -1.626000 O.3       1 MAIN       -0.706200 
     11 O5          1.105000   -0.235000    1.092000 O.3       1 MAIN       -0.395200 
     12 O6          0.403000   -3.029000    0.393000 O.3       1 MAIN       -0.655200 
     13 C7          2.803000    1.987000    2.720000 C.2       1 MAIN        0.954200 
     14 C8          4.194000    2.105000    3.275000 C.3       1 MAIN       -0.236600 
     15 O1          1.802000    2.328000    3.352000 O.2       1 MAIN       -0.658700 
     16 N2          4.200000    2.932000    4.496000 N.am      1 MAIN       -0.758200 
     17 C9          5.351000    3.585000    4.921000 C.2       1 MAIN        0.915100 
     18 C10         5.254000    4.429000    6.159000 C.3       1 MAIN       -0.567200 
     19 O7          6.402000    3.458000    4.292000 O.2       1 MAIN       -0.648200 
     20 H1          0.585177    1.747074    1.377030 H         1 MAIN        0.110300 
     21 H2          2.289996    1.197835   -1.080525 H         1 MAIN        0.104000 
     22 H3         -0.740098    1.388262   -1.186894 H         1 MAIN        0.087500 
     23 H4          0.934486   -1.158736   -1.300876 H         1 MAIN        0.077700 
     24 H5         -0.919988    0.022522    0.820619 H         1 MAIN        0.075400 
     25 H6         -1.513113   -2.306421    0.672793 H         1 MAIN        0.079700 
     26 H7         -0.401090   -2.132431    2.072731 H         1 MAIN        0.046300 
     27 H8          3.497512    1.252160    0.913202 H         1 MAIN        0.499100 
     28 H9          1.981834    3.367470   -0.300073 H         1 MAIN        0.448600 
     29 H10         0.510998    1.896590   -3.069694 H         1 MAIN        0.463000 
     30 H11        -0.991399   -1.182652   -2.570050 H         1 MAIN        0.447300 
     31 H12         0.168915   -3.901384    0.687365 H         1 MAIN        0.427200 
     32 H13         4.845440    2.570336    2.520638 H         1 MAIN        0.146000 
     33 H14         4.572465    1.100970    3.517201 H         1 MAIN        0.173500 
     34 H15         3.358956    3.024844    5.028947 H         1 MAIN        0.422900 
     35 H16         6.234075    4.880433    6.372687 H         1 MAIN        0.167200 
     36 H17         4.946811    3.800684    7.008017 H         1 MAIN        0.162600 
     37 H18         4.510161    5.224257    6.003291 H         1 MAIN        0.147200 
@<TRIPOS>BOND
     1    1   11 1    
     2    1    7 1    
     3    1    2 1    
     4    2    8 1    
     5    2    3 1    
     6    3    9 1    
     7    3    4 1    
     8    4   10 1    
     9    4    5 1    
    10   11    5 1    
    11    5    6 1    
    12    6   12 1    
    13    7   13 am   
    14   13   14 1    
    15   13   15 2    
    16   14   16 1    
    17   16   17 am   
    18   17   18 1    
    19   17   19 2    
    20    1   20 1    
    21    2   21 1    
    22    3   22 1    
    23    4   23 1    
    24    5   24 1    
    25    6   25 1    
    26    6   26 1    
    27    7   27 1    
    28    8   28 1    
    29    9   29 1    
    30   10   30 1    
    31   12   31 1    
    32   14   32 1    
    33   14   33 1    
    34   16   34 1    
    35   18   35 1    
    36   18   36 1    
    37   18   37 1    
@<TRIPOS>SUBSTRUCTURE
     1 MAIN        1 PERM              0 ****  ****    0 ROOT 
