#	Name:			48
#	Creating user name:	jeff
#	Creation time:		Tue Feb 17 18:13:40 2004

#	Modifying user name:	jeff
#	Modification time:	Tue Feb 17 18:13:40 2004

@<TRIPOS>MOLECULE
48
   32    32     1     0     0
SMALL
USER_CHARGES


@<TRIPOS>ATOM
      1 C1          0.483000    1.259000    1.114000 C.3       1 MAIN       -0.510800 
      2 C2          0.930000    1.557000   -0.338000 C.3       1 MAIN        0.261000 
      3 C3          0.013000    0.807000   -1.328000 C.3       1 MAIN        0.106400 
      4 C4         -0.106000   -0.673000   -0.908000 C.3       1 MAIN        0.314400 
      5 C5         -0.502000   -0.778000    0.573000 C.3       1 MAIN        0.092000 
      6 C6         -0.678000   -2.239000    0.995000 C.3       1 MAIN        0.040700 
      7 O1          0.915000    2.694000    2.976000 O.2       1 MAIN       -0.679600 
      8 O2          0.945000    2.967000   -0.606000 O.3       1 MAIN       -0.678000 
      9 O3          0.467000    0.950000   -2.683000 O.3       1 MAIN       -0.703100 
     10 O4         -1.054000   -1.375000   -1.692000 O.3       1 MAIN       -0.708900 
     11 O5          0.477000   -0.140000    1.378000 O.3       1 MAIN       -0.346300 
     12 O6          0.363000   -3.038000    0.444000 O.3       1 MAIN       -0.656800 
     13 H12         1.360000    1.931000    2.116000 C.2       1 MAIN        0.987400 
     14 N1          2.746000    1.671000    2.038000 N.am      1 MAIN       -0.745900 
     15 N2          3.637000    2.370000    2.968000 N.pl3     1 MAIN       -0.550500 
     16 C7          4.984000    1.794000    2.943000 C.3       1 MAIN        0.036100 
     17 H1         -0.540855    1.641810    1.237092 H         1 MAIN        0.244600 
     18 H2          1.955113    1.179032   -0.465504 H         1 MAIN        0.075400 
     19 H3         -0.989444    1.255748   -1.267125 H         1 MAIN        0.100200 
     20 H4          0.876786   -1.147667   -1.045103 H         1 MAIN        0.102800 
     21 H5         -1.462266   -0.260311    0.713932 H         1 MAIN        0.104600 
     22 H6         -1.649203   -2.607415    0.633047 H         1 MAIN        0.103400 
     23 H7         -0.645970   -2.306736    2.092434 H         1 MAIN        0.058000 
     24 H8          1.515771    3.401621    0.016756 H         1 MAIN        0.440900 
     25 H9          0.526527    1.872663   -2.901289 H         1 MAIN        0.453600 
     26 H10        -0.814137   -1.313491   -2.609160 H         1 MAIN        0.453300 
     27 H11         0.244125   -3.941658    0.711901 H         1 MAIN        0.436000 
     28 H13         3.109927    1.026551    1.365504 H         1 MAIN        0.580400 
     29 H14         3.353451    3.162554    3.561605 H         1 MAIN        0.410100 
     30 H15         5.628494    2.337899    3.649259 H         1 MAIN        0.074700 
     31 H16         5.399822    1.877683    1.928079 H         1 MAIN        0.076200 
     32 H17         4.935005    0.734052    3.232973 H         1 MAIN        0.027400 
@<TRIPOS>BOND
     1    1   11 1    
     2   13    7 2    
     3    1    2 1    
     4    2    8 1    
     5    2    3 1    
     6    3    9 1    
     7    3    4 1    
     8    4   10 1    
     9    5    4 1    
    10   11    5 1    
    11    5    6 1    
    12    6   12 1    
    13    1   13 1    
    14   13   14 am   
    15   14   15 1    
    16   15   16 1    
    17    1   17 1    
    18    2   18 1    
    19    3   19 1    
    20    4   20 1    
    21    5   21 1    
    22    6   22 1    
    23    6   23 1    
    24    8   24 1    
    25    9   25 1    
    26   10   26 1    
    27   12   27 1    
    28   14   28 1    
    29   15   29 1    
    30   16   30 1    
    31   16   31 1    
    32   16   32 1    
@<TRIPOS>SUBSTRUCTURE
     1 MAIN        1 PERM              0 ****  ****    0 ROOT 
