#	Name:			49
#	Creating user name:	jeff
#	Creation time:		Tue Feb 17 18:13:40 2004

#	Modifying user name:	jeff
#	Modification time:	Tue Feb 17 18:13:40 2004

@<TRIPOS>MOLECULE
49
   34    34     1     0     0
SMALL
USER_CHARGES


@<TRIPOS>ATOM
      1 C1          0.357000    1.318000    1.163000 C.3       1 MAIN       -0.243100 
      2 C2          0.890000    1.598000   -0.267000 C.3       1 MAIN        0.202000 
      3 C3          0.027000    0.837000   -1.298000 C.3       1 MAIN        0.079700 
      4 C4         -0.096000   -0.641000   -0.879000 C.3       1 MAIN        0.349300 
      5 C5         -0.583000   -0.744000    0.574000 C.3       1 MAIN        0.014600 
      6 C6         -0.746000   -2.209000    0.991000 C.3       1 MAIN        0.058900 
      7 O1          0.749000    2.859000    2.954000 O.2       1 MAIN       -0.629000 
      8 O2          0.918000    3.003000   -0.560000 O.3       1 MAIN       -0.668800 
      9 O3          0.536000    0.979000   -2.634000 O.3       1 MAIN       -0.698400 
     10 O4         -0.979000   -1.361000   -1.719000 O.3       1 MAIN       -0.702200 
     11 O5          0.326000   -0.081000    1.435000 O.3       1 MAIN       -0.339300 
     12 O6          0.326000   -2.991000    0.473000 O.3       1 MAIN       -0.647200 
     13 H12         1.184000    1.966000    2.226000 C.2       1 MAIN        0.889900 
     14 N1          2.477000    1.487000    2.380000 N.am      1 MAIN       -1.048100 
     15 C7          3.371000    2.004000    3.429000 C.3       1 MAIN        0.318300 
     16 C8          4.822000    1.953000    2.953000 C.3       1 MAIN        0.282700 
     17 O7          5.705000    2.363000    3.991000 O.3       1 MAIN       -0.718500 
     18 H1         -0.666742    1.715566    1.225194 H         1 MAIN        0.169700 
     19 H2          1.920513    1.218450   -0.329918 H         1 MAIN        0.085500 
     20 H3         -0.981465    1.276025   -1.282803 H         1 MAIN        0.098900 
     21 H4          0.900777   -1.100755   -0.949959 H         1 MAIN        0.091800 
     22 H5         -1.562779   -0.249868    0.650438 H         1 MAIN        0.106600 
     23 H6         -1.698899   -2.594288    0.599195 H         1 MAIN        0.100200 
     24 H7         -0.746975   -2.276160    2.088936 H         1 MAIN        0.057500 
     25 H8          1.453076    3.450363    0.085027 H         1 MAIN        0.429500 
     26 H9          0.596607    1.901332   -2.853384 H         1 MAIN        0.455000 
     27 H10        -0.680741   -1.299451   -2.618863 H         1 MAIN        0.448500 
     28 H11         0.214180   -3.896468    0.737811 H         1 MAIN        0.429600 
     29 H13         2.809633    0.773340    1.763516 H         1 MAIN        0.524400 
     30 H14         3.263259    1.389109    4.334691 H         1 MAIN        0.050100 
     31 H15         3.099512    3.045045    3.658114 H         1 MAIN        0.040500 
     32 H16         4.942954    2.623886    2.089717 H         1 MAIN       -0.001100 
     33 H17         5.068498    0.923350    2.654615 H         1 MAIN       -0.011500 
     34 H18         6.601086    2.325113    3.677801 H         1 MAIN        0.424000 
@<TRIPOS>BOND
     1    1   11 1    
     2   13    7 2    
     3    1    2 1    
     4    2    8 1    
     5    2    3 1    
     6    3    9 1    
     7    3    4 1    
     8    4   10 1    
     9    5    4 1    
    10   11    5 1    
    11    5    6 1    
    12    6   12 1    
    13    1   13 1    
    14   13   14 am   
    15   14   15 1    
    16   15   16 1    
    17   16   17 1    
    18    1   18 1    
    19    2   19 1    
    20    3   20 1    
    21    4   21 1    
    22    5   22 1    
    23    6   23 1    
    24    6   24 1    
    25    8   25 1    
    26    9   26 1    
    27   10   27 1    
    28   12   28 1    
    29   14   29 1    
    30   15   30 1    
    31   15   31 1    
    32   16   32 1    
    33   16   33 1    
    34   17   34 1    
@<TRIPOS>SUBSTRUCTURE
     1 MAIN        1 PERM              0 ****  ****    0 ROOT 
