#	Name:			5
#	Creating user name:	jeff
#	Creation time:		Tue Feb 17 18:13:40 2004

#	Modifying user name:	jeff
#	Modification time:	Tue Feb 17 18:13:40 2004

@<TRIPOS>MOLECULE
5
   31    31     1     0     0
SMALL
USER_CHARGES


@<TRIPOS>ATOM
      1 C1          1.289000    1.403000    0.932000 C.3       1 MAIN        0.310200 
      2 C2          1.456000    1.670000   -0.587000 C.3       1 MAIN        0.160000 
      3 C3          0.354000    0.966000   -1.413000 C.3       1 MAIN        0.078600 
      4 C4          0.181000   -0.488000   -0.962000 C.3       1 MAIN        0.389400 
      5 C5         -0.047000   -0.506000    0.554000 C.3       1 MAIN       -0.025400 
      6 C6         -0.425000   -1.911000    1.043000 C.3       1 MAIN        0.108600 
      7 O2          1.448000    3.076000   -0.853000 O.3       1 MAIN       -0.667600 
      8 O3          0.612000    1.056000   -2.817000 O.3       1 MAIN       -0.697200 
      9 O4         -0.899000   -1.127000   -1.637000 O.3       1 MAIN       -0.696800 
     10 O5          1.113000    0.005000    1.215000 O.3       1 MAIN       -0.392100 
     11 O6          0.388000   -2.897000    0.413000 O.3       1 MAIN       -0.647500 
     12 O7          2.395000    1.928000    1.676000 O.3       1 MAIN       -0.535100 
     13 C7          2.003000    2.292000    3.008000 C.3       1 MAIN        0.211500 
     14 C8          3.208000    2.814000    3.810000 C.3       1 MAIN        0.294200 
     15 O8          2.795000    3.549000    4.965000 O.3       1 MAIN       -0.702700 
     16 H1          0.380850    1.928095    1.262930 H         1 MAIN        0.070300 
     17 H2          2.429574    1.264302   -0.899309 H         1 MAIN        0.093500 
     18 H3         -0.593605    1.489386   -1.217845 H         1 MAIN        0.085700 
     19 H4          1.104990   -1.039479   -1.190227 H         1 MAIN        0.079400 
     20 H5         -0.889594    0.163316    0.782094 H         1 MAIN        0.092400 
     21 H6         -1.480630   -2.105576    0.802667 H         1 MAIN        0.080100 
     22 H7         -0.280764   -1.965681    2.132119 H         1 MAIN        0.057800 
     23 H8          2.127689    3.498906   -0.341459 H         1 MAIN        0.426800 
     24 H9          0.713783    1.968094   -3.062408 H         1 MAIN        0.456500 
     25 H10        -0.742768   -1.107480   -2.573862 H         1 MAIN        0.438300 
     26 H11         0.140777   -3.758914    0.726822 H         1 MAIN        0.422800 
     27 H12         1.587587    1.408911    3.515504 H         1 MAIN        0.059500 
     28 H13         1.236556    3.079277    2.955731 H         1 MAIN        0.036400 
     29 H14         3.808163    3.471979    3.164366 H         1 MAIN       -0.009100 
     30 H15         3.819969    1.958457    4.131738 H         1 MAIN        0.000900 
     31 H16         3.561038    3.855818    5.435689 H         1 MAIN        0.420800 
@<TRIPOS>BOND
     1    2    1 1    
     2    1   10 1    
     3    2    3 1    
     4    2    7 1    
     5    3    4 1    
     6    3    8 1    
     7    4    5 1    
     8    4    9 1    
     9    5    6 1    
    10   10    5 1    
    11    6   11 1    
    12    1   12 1    
    13   12   13 1    
    14   13   14 1    
    15   14   15 1    
    16    1   16 1    
    17    2   17 1    
    18    3   18 1    
    19    4   19 1    
    20    5   20 1    
    21    6   21 1    
    22    6   22 1    
    23    7   23 1    
    24    8   24 1    
    25    9   25 1    
    26   11   26 1    
    27   13   27 1    
    28   13   28 1    
    29   14   29 1    
    30   14   30 1    
    31   15   31 1    
@<TRIPOS>SUBSTRUCTURE
     1 MAIN        1 PERM              0 ****  ****    0 ROOT 
