#	Name:			50
#	Creating user name:	jeff
#	Creation time:		Tue Feb 17 18:13:40 2004

#	Modifying user name:	jeff
#	Modification time:	Tue Feb 17 18:13:40 2004

@<TRIPOS>MOLECULE
50
   41    42     1     0     0
SMALL
USER_CHARGES


@<TRIPOS>ATOM
      1 C1          1.031000    1.268000    0.996000 C.3       1 MAIN        0.072700 
      2 C2          1.179000    1.576000   -0.516000 C.3       1 MAIN        0.088300 
      3 C3          0.107000    0.864000   -1.371000 C.3       1 MAIN        0.100900 
      4 C4         -0.032000   -0.603000   -0.935000 C.3       1 MAIN        0.314100 
      5 C5         -0.270000   -0.663000    0.578000 C.3       1 MAIN        0.179800 
      6 C6         -0.555000   -2.100000    1.026000 C.3       1 MAIN        0.155700 
      7 S1          2.516000    1.835000    1.865000 S.3       1 MAIN       -0.046800 
      8 O2          1.155000    2.991000   -0.741000 O.3       1 MAIN       -0.665700 
      9 O3          0.413000    0.971000   -2.768000 O.3       1 MAIN       -0.701000 
     10 O4         -1.084000   -1.269000   -1.621000 O.3       1 MAIN       -0.711500 
     11 O5          0.866000   -0.132000    1.252000 O.3       1 MAIN       -0.435600 
     12 O6          0.377000   -2.996000    0.427000 O.3       1 MAIN       -0.682900 
     13 C7          1.825000    2.289000    3.482000 C.3       1 MAIN       -0.549900 
     14 C8          2.902000    2.915000    4.329000 C.2       1 MAIN        1.061700 
     15 N1          2.511000    3.366000    5.630000 N.am      1 MAIN       -1.112000 
     16 O1          4.061000    3.003000    3.924000 O.2       1 MAIN       -0.568100 
     17 C           3.330070    3.923395    6.641677 C.ar      1 MAIN        0.554000 
     18 C           2.817070    3.911395    7.942677 C.ar      1 MAIN       -0.392100 
     19 C           3.565070    4.430395    8.995677 C.ar      1 MAIN       -0.056200 
     20 C           4.828070    4.972395    8.756677 C.ar      1 MAIN       -0.243700 
     21 C           5.343070    4.991395    7.460677 C.ar      1 MAIN       -0.037800 
     22 C           4.599070    4.468395    6.406677 C.ar      1 MAIN       -0.364900 
     23 H1          0.152220    1.805922    1.381177 H         1 MAIN        0.118400 
     24 H2          2.161313    1.199356   -0.837208 H         1 MAIN        0.136800 
     25 H3         -0.857443    1.363563   -1.197046 H         1 MAIN        0.088300 
     26 H4          0.909994   -1.122372   -1.164946 H         1 MAIN        0.088100 
     27 H5         -1.145655   -0.043855    0.822666 H         1 MAIN        0.019100 
     28 H6         -1.574575   -2.379835    0.722465 H         1 MAIN        0.059000 
     29 H7         -0.467866   -2.163415    2.120697 H         1 MAIN        0.037200 
     30 H8          1.820586    3.407937   -0.206530 H         1 MAIN        0.423700 
     31 H9          0.492275    1.887412   -3.005496 H         1 MAIN        0.463600 
     32 H10        -0.928152   -1.226745   -2.557176 H         1 MAIN        0.456700 
     33 H11         0.191061   -3.883128    0.711483 H         1 MAIN        0.439500 
     34 H12         1.441432    1.388056    3.983150 H         1 MAIN        0.206400 
     35 H13         1.004424    3.007967    3.341584 H         1 MAIN        0.177500 
     36 H14         1.540005    3.276423    5.851705 H         1 MAIN        0.479200 
     37 H15         1.833606    3.496519    8.131712 H         1 MAIN        0.184900 
     38 H16         3.165436    4.413364   10.003179 H         1 MAIN        0.142800 
     39 H17         5.408525    5.378307    9.577264 H         1 MAIN        0.157300 
     40 H18         6.323730    5.413864    7.273912 H         1 MAIN        0.146000 
     41 H19         5.002970    4.482902    5.400840 H         1 MAIN        0.216100 
@<TRIPOS>BOND
     1    1   11 1    
     2    7    1 1    
     3    1    2 1    
     4    2    8 1    
     5    2    3 1    
     6    3    9 1    
     7    3    4 1    
     8    4   10 1    
     9    5    4 1    
    10   11    5 1    
    11    5    6 1    
    12    6   12 1    
    13   13    7 1    
    14   14   13 1    
    15   15   14 ar   
    16   14   16 2    
    17   17   18 ar   
    18   17   22 ar   
    19   22   21 ar   
    20   21   20 ar   
    21   19   20 ar   
    22   18   19 ar   
    23   15   17 1    
    24    1   23 1    
    25    2   24 1    
    26    3   25 1    
    27    4   26 1    
    28    5   27 1    
    29    6   28 1    
    30    6   29 1    
    31    8   30 1    
    32    9   31 1    
    33   10   32 1    
    34   12   33 1    
    35   13   34 1    
    36   13   35 1    
    37   15   36 1    
    38   18   37 1    
    39   19   38 1    
    40   20   39 1    
    41   21   40 1    
    42   22   41 1    
@<TRIPOS>SUBSTRUCTURE
     1 MAIN        1 PERM              0 ****  ****    0 ROOT 
