#	Name:			51
#	Creating user name:	jeff
#	Creation time:		Tue Feb 17 18:13:40 2004

#	Modifying user name:	jeff
#	Modification time:	Tue Feb 17 18:13:40 2004

@<TRIPOS>MOLECULE
51
   38    39     1     0     0
SMALL
USER_CHARGES


@<TRIPOS>ATOM
      1 C1          0.547000    1.260000    1.183000 C.3       1 MAIN       -0.321300 
      2 C2          1.011000    1.596000   -0.263000 C.3       1 MAIN        0.283300 
      3 C3          0.126000    0.835000   -1.277000 C.3       1 MAIN        0.044600 
      4 C4          0.003000   -0.649000   -0.879000 C.3       1 MAIN        0.364900 
      5 C5         -0.408000   -0.768000    0.598000 C.3       1 MAIN        0.001300 
      6 C6         -0.620000   -2.231000    1.000000 C.3       1 MAIN        0.105800 
      7 O1          0.718000    2.820000    2.954000 O.2       1 MAIN       -0.647900 
      8 O2          0.962000    3.005000   -0.530000 O.3       1 MAIN       -0.698200 
      9 O3          0.589000    0.995000   -2.628000 O.3       1 MAIN       -0.697700 
     10 O4         -0.938000   -1.334000   -1.691000 O.3       1 MAIN       -0.704700 
     11 O5          0.564000   -0.144000    1.425000 O.3       1 MAIN       -0.310600 
     12 O6          0.391000   -3.051000    0.425000 O.3       1 MAIN       -0.654400 
     13 H12         1.300000    1.984000    2.264000 C.2       1 MAIN        0.898800 
     14 N1          2.689000    1.680000    2.437000 N.am      1 MAIN       -0.904400 
     15 C           3.605498    2.284540    3.331215 C.ar      1 MAIN        0.416900 
     16 C           4.961498    2.122540    3.033215 C.ar      1 MAIN       -0.320900 
     17 C           5.937498    2.766540    3.790215 C.ar      1 MAIN       -0.247700 
     18 C           5.562498    3.565540    4.869215 C.ar      1 MAIN        0.369600 
     19 C           4.213498    3.686540    5.218215 C.ar      1 MAIN       -0.367700 
     20 C           3.240498    3.053540    4.446215 C.ar      1 MAIN       -0.245900 
     21 O7          6.538381    4.257841    5.576654 O.3       1 MAIN       -0.612800 
     22 H1         -0.500045    1.589172    1.255924 H         1 MAIN        0.187700 
     23 H2          2.051738    1.259506   -0.379663 H         1 MAIN        0.071900 
     24 H3         -0.881677    1.273266   -1.227143 H         1 MAIN        0.111600 
     25 H4          0.986186   -1.124300   -1.010948 H         1 MAIN        0.079700 
     26 H5         -1.362895   -0.238587    0.731688 H         1 MAIN        0.107500 
     27 H6         -1.605402   -2.566282    0.644271 H         1 MAIN        0.091400 
     28 H7         -0.577181   -2.316423    2.095830 H         1 MAIN        0.044100 
     29 H8          1.507831    3.465205    0.096722 H         1 MAIN        0.450100 
     30 H9          0.651169    1.920329   -2.833918 H         1 MAIN        0.456300 
     31 H10        -0.682726   -1.259563   -2.603028 H         1 MAIN        0.452300 
     32 H11         0.249234   -3.954808    0.680995 H         1 MAIN        0.426400 
     33 H13         3.055700    0.953186    1.856241 H         1 MAIN        0.490800 
     34 H14         5.256629    1.489206    2.204456 H         1 MAIN        0.203500 
     35 H15         6.985629    2.646726    3.540975 H         1 MAIN        0.213700 
     36 H16         3.925803    4.270036    6.085290 H         1 MAIN        0.205600 
     37 H17         2.193997    3.156343    4.709509 H         1 MAIN        0.222100 
     38 H18         6.130197    4.753547    6.276769 H         1 MAIN        0.434400 
@<TRIPOS>BOND
     1    1   11 1    
     2   13    7 2    
     3    1    2 1    
     4    2    8 1    
     5    2    3 1    
     6    3    9 1    
     7    3    4 1    
     8    4   10 1    
     9    5    4 1    
    10   11    5 1    
    11    5    6 1    
    12    6   12 1    
    13   13    1 1    
    14   14   13 am   
    15   15   16 ar   
    16   15   20 ar   
    17   20   19 ar   
    18   19   18 ar   
    19   17   18 ar   
    20   16   17 ar   
    21   14   15 1    
    22   18   21 1    
    23    1   22 1    
    24    2   23 1    
    25    3   24 1    
    26    4   25 1    
    27    5   26 1    
    28    6   27 1    
    29    6   28 1    
    30    8   29 1    
    31    9   30 1    
    32   10   31 1    
    33   12   32 1    
    34   14   33 1    
    35   16   34 1    
    36   17   35 1    
    37   19   36 1    
    38   20   37 1    
    39   21   38 1    
@<TRIPOS>SUBSTRUCTURE
     1 MAIN        1 PERM              0 ****  ****    0 ROOT 
