#	Name:			52
#	Creating user name:	jeff
#	Creation time:		Tue Feb 17 18:13:40 2004

#	Modifying user name:	jeff
#	Modification time:	Tue Feb 17 18:13:40 2004

@<TRIPOS>MOLECULE
52
   41    42     1     0     0
SMALL
USER_CHARGES


@<TRIPOS>ATOM
      1 C1          1.061000    1.263000    0.974000 C.3       1 MAIN       -0.267800 
      2 C2          1.199000    1.574000   -0.537000 C.3       1 MAIN        0.167400 
      3 C3          0.120000    0.864000   -1.384000 C.3       1 MAIN        0.113600 
      4 C4         -0.021000   -0.602000   -0.948000 C.3       1 MAIN        0.371300 
      5 C5         -0.250000   -0.660000    0.566000 C.3       1 MAIN        0.015600 
      6 C6         -0.543000   -2.095000    1.018000 C.3       1 MAIN        0.105200 
      7 S1          2.550000    1.826000    1.838000 S.3       1 MAIN        0.012300 
      8 O2          1.171000    2.991000   -0.757000 O.3       1 MAIN       -0.646100 
      9 O3          0.416000    0.971000   -2.783000 O.3       1 MAIN       -0.700100 
     10 O4         -1.079000   -1.265000   -1.626000 O.3       1 MAIN       -0.702200 
     11 O5          0.894000   -0.136000    1.231000 O.3       1 MAIN       -0.237200 
     12 O6          0.382000   -2.998000    0.420000 O.3       1 MAIN       -0.661300 
     13 C7          1.849000    2.276000    3.449000 C.3       1 MAIN       -0.595300 
     14 C8          2.947000    2.726000    4.373000 C.2       1 MAIN        1.020500 
     15 N1          2.545000    3.467000    5.526000 N.am      1 MAIN       -0.854100 
     16 O1          4.122000    2.422000    4.174000 O.2       1 MAIN       -0.571300 
     17 C           3.368643    3.946405    6.573301 C.ar      1 MAIN        0.127600 
     18 C           2.830643    3.865405    7.862301 C.ar      1 MAIN       -0.204200 
     19 C           3.562643    4.302405    8.964301 C.ar      1 MAIN       -0.387300 
     20 C           4.840643    4.825405    8.765301 C.ar      1 MAIN        0.597400 
     21 C           5.407643    4.937405    7.496301 C.ar      1 MAIN       -0.566600 
     22 C           4.654643    4.497405    6.410301 C.ar      1 MAIN        0.472400 
     23 F17         5.538293    5.231956    9.822136 F         1 MAIN       -0.361100 
     24 F19         5.193684    4.640557    5.202889 F         1 MAIN       -0.287500 
     25 H1          0.185327    1.802059    1.364623 H         1 MAIN        0.194400 
     26 H2          2.179083    1.198946   -0.866766 H         1 MAIN        0.111900 
     27 H3         -0.841882    1.366038   -1.203127 H         1 MAIN        0.087000 
     28 H4          0.917867   -1.124432   -1.183727 H         1 MAIN        0.082300 
     29 H5         -1.119602   -0.034417    0.815827 H         1 MAIN        0.082500 
     30 H6         -1.564775   -2.369294    0.716814 H         1 MAIN        0.084900 
     31 H7         -0.454445   -2.156322    2.112702 H         1 MAIN        0.038700 
     32 H8          1.841153    3.406946   -0.227487 H         1 MAIN        0.433100 
     33 H9          0.496787    1.887311   -3.020377 H         1 MAIN        0.454600 
     34 H10        -0.929129   -1.224280   -2.563220 H         1 MAIN        0.441900 
     35 H11         0.190948   -3.883220    0.707027 H         1 MAIN        0.431000 
     36 H12         1.340997    1.402386    3.883403 H         1 MAIN        0.208900 
     37 H13         1.124688    3.093260    3.316968 H         1 MAIN        0.191200 
     38 H14         1.568975    3.670805    5.602470 H         1 MAIN        0.448400 
     39 H15         1.835794    3.459178    8.004818 H         1 MAIN        0.205900 
     40 H16         3.144968    4.236949    9.962459 H         1 MAIN        0.238700 
     41 H17         6.399718    5.352379    7.359774 H         1 MAIN        0.303300 
@<TRIPOS>BOND
     1    1   11 1    
     2    7    1 1    
     3    1    2 1    
     4    2    8 1    
     5    2    3 1    
     6    3    9 1    
     7    3    4 1    
     8    4   10 1    
     9    5    4 1    
    10   11    5 1    
    11    5    6 1    
    12    6   12 1    
    13   13    7 1    
    14   14   13 1    
    15   15   14 am   
    16   14   16 2    
    17   17   18 ar   
    18   17   22 ar   
    19   22   21 ar   
    20   21   20 ar   
    21   19   20 ar   
    22   18   19 ar   
    23   15   17 1    
    24   20   23 1    
    25   22   24 1    
    26    1   25 1    
    27    2   26 1    
    28    3   27 1    
    29    4   28 1    
    30    5   29 1    
    31    6   30 1    
    32    6   31 1    
    33    8   32 1    
    34    9   33 1    
    35   10   34 1    
    36   12   35 1    
    37   13   36 1    
    38   13   37 1    
    39   15   38 1    
    40   18   39 1    
    41   19   40 1    
    42   21   41 1    
@<TRIPOS>SUBSTRUCTURE
     1 MAIN        1 PERM              0 ****  ****    0 ROOT 
