#	Name:			53
#	Creating user name:	jeff
#	Creation time:		Tue Feb 17 18:13:40 2004

#	Modifying user name:	jeff
#	Modification time:	Tue Feb 17 18:13:40 2004

@<TRIPOS>MOLECULE
53
   33    33     1     0     0
SMALL
USER_CHARGES


@<TRIPOS>ATOM
      1 C1          0.162000    1.240000    1.044000 C.3       1 MAIN       -0.375900 
      2 C2          0.761000    1.525000   -0.349000 C.3       1 MAIN        0.330400 
      3 C3         -0.098000    0.731000   -1.363000 C.3       1 MAIN        0.032400 
      4 C4         -0.182000   -0.752000   -0.922000 C.3       1 MAIN        0.363800 
      5 C5         -0.551000   -0.875000    0.568000 C.3       1 MAIN        0.037300 
      6 C6         -0.602000   -2.335000    1.023000 C.3       1 MAIN        0.043500 
      7 O1          0.054000    2.896000    2.759000 O.2       1 MAIN       -0.617800 
      8 O2          0.800000    2.936000   -0.632000 O.3       1 MAIN       -0.686700 
      9 O3          0.363000    0.890000   -2.714000 O.3       1 MAIN       -0.692900 
     10 O4         -1.133000   -1.472000   -1.680000 O.3       1 MAIN       -0.708500 
     11 O5          0.349000   -0.128000    1.367000 O.3       1 MAIN       -0.342600 
     12 O6          0.432000   -3.083000    0.391000 O.3       1 MAIN       -0.646900 
     13 H12         0.732000    2.090000    2.132000 C.2       1 MAIN        0.904300 
     14 N1          2.081000    1.883000    2.375000 N.am      1 MAIN       -0.770000 
     15 C7          2.859000    2.611000    3.395000 C.3       1 MAIN       -0.428600 
     16 C8          4.204000    1.914000    3.555000 C.3       1 MAIN        1.490500 
     17 F1          4.937000    2.502000    4.584000 F         1 MAIN       -0.479400 
     18 F2          4.924000    1.956000    2.376000 F         1 MAIN       -0.443400 
     19 F16         3.902000    0.597000    3.833000 F         1 MAIN       -0.457400 
     20 H1         -0.917749    1.443432    0.991734 H         1 MAIN        0.193000 
     21 H2          1.792963    1.145649   -0.382473 H         1 MAIN        0.067700 
     22 H3         -1.117498    1.142288   -1.325048 H         1 MAIN        0.109900 
     23 H4          0.806695   -1.208399   -1.077425 H         1 MAIN        0.090700 
     24 H5         -1.556140   -0.448363    0.700853 H         1 MAIN        0.106800 
     25 H6         -1.578001   -2.765490    0.754533 H         1 MAIN        0.103800 
     26 H7         -0.468679   -2.380594    2.113927 H         1 MAIN        0.060300 
     27 H8          1.337816    3.374350    0.016925 H         1 MAIN        0.434000 
     28 H9          0.395238    1.814359   -2.930845 H         1 MAIN        0.451500 
     29 H10        -0.918313   -1.405357   -2.603021 H         1 MAIN        0.454300 
     30 H11         0.391050   -3.986934    0.680355 H         1 MAIN        0.433800 
     31 H13         2.556523    1.197066    1.824200 H         1 MAIN        0.501400 
     32 H14         2.318318    2.601188    4.352884 H         1 MAIN        0.212900 
     33 H15         3.014690    3.651039    3.072425 H         1 MAIN        0.227800 
@<TRIPOS>BOND
     1    1   11 1    
     2   13    7 2    
     3    1    2 1    
     4    2    8 1    
     5    2    3 1    
     6    3    9 1    
     7    3    4 1    
     8    4   10 1    
     9    5    4 1    
    10   11    5 1    
    11    5    6 1    
    12    6   12 1    
    13    1   13 1    
    14   13   14 am   
    15   14   15 1    
    16   15   16 1    
    17   16   17 1    
    18   16   18 1    
    19   16   19 1    
    20    1   20 1    
    21    2   21 1    
    22    3   22 1    
    23    4   23 1    
    24    5   24 1    
    25    6   25 1    
    26    6   26 1    
    27    8   27 1    
    28    9   28 1    
    29   10   29 1    
    30   12   30 1    
    31   14   31 1    
    32   15   32 1    
    33   15   33 1    
@<TRIPOS>SUBSTRUCTURE
     1 MAIN        1 PERM              0 ****  ****    0 ROOT 
