#	Name:			54
#	Creating user name:	jeff
#	Creation time:		Tue Feb 17 18:13:40 2004

#	Modifying user name:	jeff
#	Modification time:	Tue Feb 17 18:13:40 2004

@<TRIPOS>MOLECULE
54
   34    35     1     0     0
SMALL
USER_CHARGES


@<TRIPOS>ATOM
      1 C1          0.518000    1.317000    1.148000 C.3       1 MAIN       -0.077400 
      2 C2          1.014000    1.618000   -0.292000 C.3       1 MAIN        0.221300 
      3 C3          0.129000    0.862000   -1.312000 C.3       1 MAIN        0.041100 
      4 C4         -0.008000   -0.616000   -0.904000 C.3       1 MAIN        0.346700 
      5 C5         -0.481000   -0.714000    0.552000 C.3       1 MAIN        0.074600 
      6 C6         -0.696000   -2.174000    0.965000 C.3       1 MAIN        0.096300 
      7 O1          0.883000    2.718000    3.044000 O.2       1 MAIN       -0.657300 
      8 O2          1.002000    3.024000   -0.573000 O.3       1 MAIN       -0.706100 
      9 O3          0.609000    1.010000   -2.658000 O.3       1 MAIN       -0.703400 
     10 O4         -0.913000   -1.316000   -1.737000 O.3       1 MAIN       -0.715000 
     11 O5          0.465000   -0.087000    1.399000 O.3       1 MAIN       -0.447100 
     12 O6          0.349000   -2.993000    0.450000 O.3       1 MAIN       -0.642300 
     13 H12         1.358000    1.926000    2.230000 C.2       1 MAIN        0.806300 
     14 N1          2.680000    1.499000    2.318000 N.am      1 MAIN       -0.851600 
     15 C7          3.534000    1.736000    3.505000 C.3       1 MAIN        0.085600 
     16 C8          3.845000    3.138000    3.947000 C.3       1 MAIN       -0.244000 
     17 C9          4.904000    2.306000    3.285000 C.3       1 MAIN       -0.389300 
     18 H1         -0.498726    1.727864    1.234220 H         1 MAIN        0.128900 
     19 H2          2.048496    1.256122   -0.385999 H         1 MAIN        0.091000 
     20 H3         -0.875044    1.309774   -1.274995 H         1 MAIN        0.108000 
     21 H4          0.980677   -1.090611   -0.989068 H         1 MAIN        0.084800 
     22 H5         -1.440554   -0.184219    0.644540 H         1 MAIN        0.093100 
     23 H6         -1.660390   -2.524795    0.568931 H         1 MAIN        0.087900 
     24 H7         -0.703439   -2.243138    2.062788 H         1 MAIN        0.046200 
     25 H8          1.547807    3.477764    0.058421 H         1 MAIN        0.455200 
     26 H9          0.679063    1.933518   -2.869437 H         1 MAIN        0.464300 
     27 H10        -0.622788   -1.257194   -2.639673 H         1 MAIN        0.458500 
     28 H11         0.203758   -3.894251    0.712966 H         1 MAIN        0.419200 
     29 H13         3.072979    1.007526    1.540807 H         1 MAIN        0.525500 
     30 H14         3.365931    0.946917    4.252713 H         1 MAIN        0.152700 
     31 H15         3.920170    3.373029    5.018954 H         1 MAIN        0.134600 
     32 H16         3.404328    3.993423    3.414052 H         1 MAIN        0.156500 
     33 H17         5.755808    1.931769    3.871813 H         1 MAIN        0.170800 
     34 H18         5.239966    2.552164    2.266911 H         1 MAIN        0.184400 
@<TRIPOS>BOND
     1    1   11 1    
     2   13    7 2    
     3    1    2 1    
     4    2    8 1    
     5    2    3 1    
     6    3    9 1    
     7    3    4 1    
     8    4   10 1    
     9    5    4 1    
    10   11    5 1    
    11    5    6 1    
    12    6   12 1    
    13    1   13 1    
    14   13   14 am   
    15   14   15 1    
    16   15   16 1    
    17   16   17 1    
    18   17   15 1    
    19    1   18 1    
    20    2   19 1    
    21    3   20 1    
    22    4   21 1    
    23    5   22 1    
    24    6   23 1    
    25    6   24 1    
    26    8   25 1    
    27    9   26 1    
    28   10   27 1    
    29   12   28 1    
    30   14   29 1    
    31   15   30 1    
    32   16   31 1    
    33   16   32 1    
    34   17   33 1    
    35   17   34 1    
@<TRIPOS>SUBSTRUCTURE
     1 MAIN        1 PERM              0 ****  ****    0 ROOT 
