#	Name:			55
#	Creating user name:	jeff
#	Creation time:		Tue Feb 17 18:13:40 2004

#	Modifying user name:	jeff
#	Modification time:	Tue Feb 17 18:13:41 2004

@<TRIPOS>MOLECULE
55
   38    40     1     0     0
SMALL
USER_CHARGES


@<TRIPOS>ATOM
      1 C1          0.072000    1.383000    1.180000 C.3       1 MAIN        0.352800 
      2 C2          0.788000    1.710000   -0.155000 C.3       1 MAIN        0.088500 
      3 C3          0.087000    0.884000   -1.257000 C.3       1 MAIN        0.097300 
      4 C4          0.000000   -0.599000   -0.839000 C.3       1 MAIN        0.322000 
      5 C5         -0.575000   -0.734000    0.586000 C.3       1 MAIN        0.043300 
      6 C6         -0.699000   -2.203000    1.006000 C.3       1 MAIN        0.054500 
      7 C7          1.469428    2.323349    2.977611 C.2       1 MAIN        0.590100 
      8 O2          0.753000    3.105000   -0.467000 O.3       1 MAIN       -0.649700 
      9 O3          0.690000    1.052000   -2.550000 O.3       1 MAIN       -0.692000 
     10 O4         -0.800000   -1.343000   -1.742000 O.3       1 MAIN       -0.693700 
     11 O5          0.208000    0.008000    1.515000 O.3       1 MAIN       -0.445200 
     12 O6          0.360000   -2.973000    0.446000 O.3       1 MAIN       -0.653000 
     13 C8          1.626428    2.982349    4.160611 C.2       1 MAIN       -0.686200 
     14 C9          3.034428    2.998349    4.420611 C.ar      1 MAIN        0.156900 
     15 C10         3.799428    3.593349    5.442611 C.ar      1 MAIN       -0.213700 
     16 C11         5.182428    3.538349    5.354611 C.ar      1 MAIN       -0.196700 
     17 C12         5.817428    2.892349    4.273611 C.ar      1 MAIN       -0.127800 
     18 C13         5.075428    2.271349    3.278611 C.ar      1 MAIN       -0.256900 
     19 C14         3.680428    2.329349    3.379611 C.ar      1 MAIN        0.165600 
     20 N1          2.704428    1.823349    2.468611 N.pl3     1 MAIN       -0.724700 
     21 O1          0.327926    2.233077    2.301058 O.3       1 MAIN       -0.484600 
     22 H1         -0.996093    1.531587    0.963035 H         1 MAIN        0.121300 
     23 H2          1.840826    1.399897   -0.081725 H         1 MAIN        0.096500 
     24 H3         -0.943409    1.260508   -1.337454 H         1 MAIN        0.092700 
     25 H4          1.016881   -1.018351   -0.847506 H         1 MAIN        0.089200 
     26 H5         -1.587196   -0.303407    0.581081 H         1 MAIN        0.103400 
     27 H6         -1.661750   -2.600572    0.652412 H         1 MAIN        0.105100 
     28 H7         -0.654911   -2.270822    2.103010 H         1 MAIN        0.068000 
     29 H8          1.188133    3.594400    0.221220 H         1 MAIN        0.430500 
     30 H9          0.723119    1.976472   -2.766230 H         1 MAIN        0.460300 
     31 H10        -0.446684   -1.260506   -2.619988 H         1 MAIN        0.449300 
     32 H11         0.269030   -3.879505    0.715208 H         1 MAIN        0.432200 
     33 H12         0.840644    3.409781    4.781719 H         1 MAIN        0.292800 
     34 H13         3.317340    4.083995    6.280414 H         1 MAIN        0.180500 
     35 H14         5.784910    3.999206    6.129003 H         1 MAIN        0.151000 
     36 H15         6.899996    2.880700    4.219139 H         1 MAIN        0.146100 
     37 H16         5.558357    1.760225    2.453634 H         1 MAIN        0.174400 
     38 H17         2.856725    1.234411    1.637427 H         1 MAIN        0.559800 
@<TRIPOS>BOND
     1    1   11 1    
     2   21    7 1    
     3    1    2 1    
     4    2    8 1    
     5    2    3 1    
     6    3    9 1    
     7    3    4 1    
     8    4   10 1    
     9    5    4 1    
    10   11    5 1    
    11    5    6 1    
    12    6   12 1    
    13    7   13 2    
    14   13   14 1    
    15   14   15 ar   
    16   15   16 ar   
    17   17   16 ar   
    18   18   17 ar   
    19   19   18 ar   
    20    7   20 1    
    21   20   19 1    
    22   19   14 ar   
    23    1   21 1    
    24    1   22 1    
    25    2   23 1    
    26    3   24 1    
    27    4   25 1    
    28    5   26 1    
    29    6   27 1    
    30    6   28 1    
    31    8   29 1    
    32    9   30 1    
    33   10   31 1    
    34   12   32 1    
    35   13   33 1    
    36   15   34 1    
    37   16   35 1    
    38   17   36 1    
    39   18   37 1    
    40   20   38 1    
@<TRIPOS>SUBSTRUCTURE
     1 MAIN        1 PERM              0 ****  ****    0 ROOT 
