#	Name:			56
#	Creating user name:	jeff
#	Creation time:		Tue Feb 17 18:13:41 2004

#	Modifying user name:	jeff
#	Modification time:	Tue Feb 17 18:13:41 2004

@<TRIPOS>MOLECULE
56
   29    30     1     0     0
SMALL
USER_CHARGES


@<TRIPOS>ATOM
      1 C1          1.333000    1.076000    0.887000 C.3       1 MAIN        0.564100 
      2 C2          1.241000    1.538000   -0.598000 C.3       1 MAIN        0.068300 
      3 C3          0.119000    0.835000   -1.403000 C.3       1 MAIN        0.115500 
      4 C4         -0.004000   -0.648000   -1.010000 C.3       1 MAIN        0.303200 
      5 C5         -0.104000   -0.756000    0.510000 C.3       1 MAIN        0.068100 
      6 C6         -0.451000   -2.180000    0.953000 C.3       1 MAIN        0.097200 
      7 O2          1.152000    2.967000   -0.710000 O.3       1 MAIN       -0.651000 
      8 O3          0.350000    0.974000   -2.810000 O.3       1 MAIN       -0.692400 
      9 O4         -1.131000   -1.269000   -1.613000 O.3       1 MAIN       -0.681900 
     10 O5          1.129000   -0.328000    1.068000 O.3       1 MAIN       -0.441000 
     11 O6          0.447000   -3.109000    0.359000 O.3       1 MAIN       -0.657000 
     12 N1          2.677000    1.339000    1.419000 N.am      1 MAIN       -1.092200 
     13 C7          2.621000    1.893000    2.697000 C.2       1 MAIN        1.091800 
     14 N2          1.250000    2.180000    2.994000 N.am      1 MAIN       -0.988200 
     15 C8          0.462000    1.836000    1.857000 C.2       1 MAIN        0.769400 
     16 O1          3.579000    2.119000    3.445000 O.2       1 MAIN       -0.659400 
     17 O7         -0.724000    2.131000    1.744000 O.2       1 MAIN       -0.563300 
     18 H1          2.189843    1.243464   -1.070144 H         1 MAIN        0.095800 
     19 H2         -0.833743    1.329418   -1.162569 H         1 MAIN        0.099600 
     20 H3          0.901780   -1.173915   -1.346081 H         1 MAIN        0.087900 
     21 H4         -0.902526   -0.085115    0.859634 H         1 MAIN        0.087800 
     22 H5         -1.478886   -2.417630    0.641620 H         1 MAIN        0.086200 
     23 H6         -0.374315   -2.249234    2.048126 H         1 MAIN        0.058100 
     24 H7          1.851117    3.368170   -0.207210 H         1 MAIN        0.425400 
     25 H8          0.422466    1.895457   -3.029469 H         1 MAIN        0.453200 
     26 H9         -1.063356   -1.198742   -2.557980 H         1 MAIN        0.442500 
     27 H10         0.223869   -3.988771    0.639563 H         1 MAIN        0.428400 
     28 H11         3.525298    1.144996    0.926292 H         1 MAIN        0.539900 
     29 H12         0.904112    2.557553    3.852966 H         1 MAIN        0.544000 
@<TRIPOS>BOND
     1    1   12 1    
     2   12   13 am   
     3    1   10 1    
     4    1    2 1    
     5    2    7 1    
     6    2    3 1    
     7    3    8 1    
     8    3    4 1    
     9    4    9 1    
    10    4    5 1    
    11    5    6 1    
    12    5   10 1    
    13    6   11 1    
    14   13   14 am   
    15   14   15 am   
    16    1   15 1    
    17   13   16 2    
    18   15   17 2    
    19    2   18 1    
    20    3   19 1    
    21    4   20 1    
    22    5   21 1    
    23    6   22 1    
    24    6   23 1    
    25    7   24 1    
    26    8   25 1    
    27    9   26 1    
    28   11   27 1    
    29   12   28 1    
    30   14   29 1    
@<TRIPOS>SUBSTRUCTURE
     1 MAIN        1 PERM              0 ****  ****    0 ROOT 
