#	Name:			57
#	Creating user name:	jeff
#	Creation time:		Tue Feb 17 18:13:41 2004

#	Modifying user name:	jeff
#	Modification time:	Tue Feb 17 18:13:41 2004

@<TRIPOS>MOLECULE
57
   31    32     1     0     0
SMALL
USER_CHARGES


@<TRIPOS>ATOM
      1 C1          1.253000    1.106000    0.908000 C.3       1 MAIN        0.445100 
      2 C2          1.255000    1.524000   -0.590000 C.3       1 MAIN        0.174900 
      3 C3          0.141000    0.828000   -1.409000 C.3       1 MAIN        0.069600 
      4 C4          0.006000   -0.653000   -1.008000 C.3       1 MAIN        0.307200 
      5 C5         -0.145000   -0.752000    0.509000 C.3       1 MAIN        0.062300 
      6 C6         -0.478000   -2.180000    0.950000 C.3       1 MAIN        0.086800 
      7 O2          1.193000    2.951000   -0.740000 O.3       1 MAIN       -0.666500 
      8 O3          0.385000    0.968000   -2.814000 O.3       1 MAIN       -0.688900 
      9 O4         -1.101000   -1.280000   -1.638000 O.3       1 MAIN       -0.684300 
     10 O5          1.056000   -0.295000    1.114000 O.3       1 MAIN       -0.399000 
     11 O6          0.439000   -3.099000    0.369000 O.3       1 MAIN       -0.658700 
     12 N1          2.544000    1.405000    1.547000 N.am      1 MAIN       -1.133700 
     13 C7          2.353000    1.986000    2.803000 C.2       1 MAIN        1.030700 
     14 N2          0.953000    2.242000    2.966000 N.am      1 MAIN       -0.378300 
     15 C8          0.288000    1.893000    1.759000 C.2       1 MAIN        0.665800 
     16 O1          3.232000    2.269000    3.625000 O.2       1 MAIN       -0.643200 
     17 O7         -0.870000    2.214000    1.505000 O.2       1 MAIN       -0.518800 
     18 N2          0.345000    3.034000    4.041000 N.pl3     1 MAIN       -0.681600 
     19 H1          2.216009    1.194412   -1.011673 H         1 MAIN        0.080100 
     20 H2         -0.811825    1.327504   -1.179665 H         1 MAIN        0.113900 
     21 H3          0.922299   -1.180647   -1.311247 H         1 MAIN        0.089700 
     22 H4         -0.970052   -0.095938    0.823400 H         1 MAIN        0.101000 
     23 H5         -1.498828   -2.431630    0.626630 H         1 MAIN        0.089600 
     24 H6         -0.413731   -2.246299    2.046106 H         1 MAIN        0.060600 
     25 H7          1.885296    3.353484   -0.228891 H         1 MAIN        0.419600 
     26 H8          0.463575    1.889432   -3.031462 H         1 MAIN        0.448000 
     27 H9         -1.005660   -1.217616   -2.581143 H         1 MAIN        0.445800 
     28 H10         0.223573   -3.980923    0.648826 H         1 MAIN        0.430000 
     29 H11         3.437033    1.217757    1.137805 H         1 MAIN        0.569700 
     30 H12         0.885926    3.250360    4.890404 H         1 MAIN        0.387500 
     31 H13        -0.622767    3.373654    3.946286 H         1 MAIN        0.375300 
@<TRIPOS>BOND
     1    1   12 1    
     2   12   13 am   
     3    1   10 1    
     4    1    2 1    
     5    2    7 1    
     6    2    3 1    
     7    3    8 1    
     8    3    4 1    
     9    4    9 1    
    10    4    5 1    
    11    5    6 1    
    12    5   10 1    
    13    6   11 1    
    14   13   14 am   
    15   14   15 am   
    16    1   15 1    
    17   13   16 2    
    18   15   17 2    
    19   14   18 1    
    20    2   19 1    
    21    3   20 1    
    22    4   21 1    
    23    5   22 1    
    24    6   23 1    
    25    6   24 1    
    26    7   25 1    
    27    8   26 1    
    28    9   27 1    
    29   11   28 1    
    30   12   29 1    
    31   18   30 1    
    32   18   31 1    
@<TRIPOS>SUBSTRUCTURE
     1 MAIN        1 PERM              0 ****  ****    0 ROOT 
