#	Name:			58
#	Creating user name:	jeff
#	Creation time:		Tue Feb 17 18:13:41 2004

#	Modifying user name:	jeff
#	Modification time:	Tue Feb 17 18:13:41 2004

@<TRIPOS>MOLECULE
58
   32    33     1     0     0
SMALL
USER_CHARGES


@<TRIPOS>ATOM
      1 C1          1.313000    1.202000    0.923000 C.3       1 MAIN        0.560300 
      2 C2          1.345000    1.567000   -0.593000 C.3       1 MAIN        0.086800 
      3 C3          0.234000    0.883000   -1.422000 C.3       1 MAIN        0.063600 
      4 C4          0.066000   -0.586000   -1.005000 C.3       1 MAIN        0.249300 
      5 C5         -0.115000   -0.663000    0.509000 C.3       1 MAIN        0.043800 
      6 C6         -0.461000   -2.089000    0.951000 C.3       1 MAIN        0.049700 
      7 O2          1.328000    2.987000   -0.790000 O.3       1 MAIN       -0.627400 
      8 O3          0.512000    1.001000   -2.822000 O.3       1 MAIN       -0.676100 
      9 O4         -1.048000   -1.196000   -1.645000 O.3       1 MAIN       -0.669700 
     10 O5          1.067000   -0.190000    1.154000 O.3       1 MAIN       -0.414600 
     11 O6          0.443000   -3.016000    0.361000 O.3       1 MAIN       -0.657900 
     12 N1          2.673000    1.430000    1.443000 N.am      1 MAIN       -0.961200 
     13 C7          2.953000    1.899000    2.722000 C.2       1 MAIN        0.846000 
     14 N2          0.565000    2.458000    2.972000 N.am      1 MAIN       -0.694100 
     15 C8          0.293000    2.031000    1.674000 C.2       1 MAIN        0.590200 
     16 O1          4.128000    2.047000    3.059000 O.2       1 MAIN       -0.608700 
     17 O7         -0.781000    2.352000    1.171000 O.2       1 MAIN       -0.582800 
     18 C9          1.827000    2.175000    3.677000 C.3       1 MAIN       -0.174800 
     19 H1          2.304011    1.196890   -0.984524 H         1 MAIN        0.082900 
     20 H2         -0.713811    1.402844   -1.218551 H         1 MAIN        0.139400 
     21 H3          0.975852   -1.136266   -1.286695 H         1 MAIN        0.119100 
     22 H4         -0.950630   -0.006404    0.792862 H         1 MAIN        0.120500 
     23 H5         -1.486724   -2.329342    0.634613 H         1 MAIN        0.101300 
     24 H6         -0.389496   -2.157946    2.046495 H         1 MAIN        0.065500 
     25 H7          2.017194    3.386728   -0.272574 H         1 MAIN        0.411100 
     26 H8          0.610449    1.918196   -3.049066 H         1 MAIN        0.451200 
     27 H9         -0.936731   -1.148822   -2.587281 H         1 MAIN        0.444200 
     28 H10         0.220959   -3.896406    0.640434 H         1 MAIN        0.437100 
     29 H11         3.444245    1.234889    0.837095 H         1 MAIN        0.455800 
     30 H12        -0.135642    2.986090    3.451821 H         1 MAIN        0.439400 
     31 H13         2.091105    3.044980    4.296159 H         1 MAIN        0.161300 
     32 H14         1.684301    1.295543    4.322110 H         1 MAIN        0.148700 
@<TRIPOS>BOND
     1    1   12 1    
     2   12   13 am   
     3    1   10 1    
     4    1    2 1    
     5    2    7 1    
     6    2    3 1    
     7    3    8 1    
     8    3    4 1    
     9    4    9 1    
    10    5    4 1    
    11    5    6 1    
    12   10    5 1    
    13    6   11 1    
    14   13   18 1    
    15   15   14 am   
    16    1   15 1    
    17   13   16 2    
    18   15   17 2    
    19   14   18 1    
    20    2   19 1    
    21    3   20 1    
    22    4   21 1    
    23    5   22 1    
    24    6   23 1    
    25    6   24 1    
    26    7   25 1    
    27    8   26 1    
    28    9   27 1    
    29   11   28 1    
    30   12   29 1    
    31   14   30 1    
    32   18   31 1    
    33   18   32 1    
@<TRIPOS>SUBSTRUCTURE
     1 MAIN        1 PERM              0 ****  ****    0 ROOT 
