#	Name:			59
#	Creating user name:	jeff
#	Creation time:		Tue Feb 17 18:13:41 2004

#	Modifying user name:	jeff
#	Modification time:	Tue Feb 17 18:13:41 2004

@<TRIPOS>MOLECULE
59
   24    24     1     0     0
SMALL
USER_CHARGES


@<TRIPOS>ATOM
      1 C1          1.253000    1.485000    0.803000 C.3       1 MAIN        0.344500 
      2 C2          1.432000    1.682000   -0.712000 C.3       1 MAIN        0.155200 
      3 C3          0.310000    0.969000   -1.493000 C.3       1 MAIN        0.063200 
      4 C4          0.157000   -0.477000   -1.003000 C.3       1 MAIN        0.334100 
      5 C5         -0.037000   -0.460000    0.519000 C.3       1 MAIN        0.093400 
      6 C6         -0.387000   -1.857000    1.051000 C.3       1 MAIN        0.091700 
      7 H12         2.331000    2.095000    1.505000 O.3       1 MAIN       -0.657000 
      8 O2          1.466000    3.079000   -1.010000 O.3       1 MAIN       -0.680300 
      9 O3          0.538000    1.033000   -2.901000 O.3       1 MAIN       -0.696200 
     10 O4         -0.931000   -1.142000   -1.637000 O.3       1 MAIN       -0.699800 
     11 O5          1.121000    0.097000    1.149000 O.3       1 MAIN       -0.451000 
     12 O6          0.398000   -2.855000    0.405000 O.3       1 MAIN       -0.654800 
     13 H1          0.323723    1.992121    1.101744 H         1 MAIN        0.050300 
     14 H2          2.393311    1.238948   -1.011266 H         1 MAIN        0.103600 
     15 H3         -0.633348    1.495195   -1.285184 H         1 MAIN        0.093200 
     16 H4          1.080310   -1.026687   -1.238196 H         1 MAIN        0.088900 
     17 H5         -0.888242    0.199254    0.744267 H         1 MAIN        0.067200 
     18 H6         -1.451988   -2.058205    0.863137 H         1 MAIN        0.079400 
     19 H7         -0.192917   -1.889977    2.133229 H         1 MAIN        0.053800 
     20 H8          2.393439    3.009769    1.256406 H         1 MAIN        0.438400 
     21 H9          2.164956    3.491220   -0.516000 H         1 MAIN        0.445100 
     22 H10         0.627309    1.940804   -3.166360 H         1 MAIN        0.462100 
     23 H11        -0.796183   -1.144087   -2.577383 H         1 MAIN        0.447300 
     24 H13         0.166863   -3.710459    0.747440 H         1 MAIN        0.427900 
@<TRIPOS>BOND
     1    1   11 1    
     2    1    7 1    
     3    1    2 1    
     4    2    8 1    
     5    2    3 1    
     6    3    9 1    
     7    3    4 1    
     8    4   10 1    
     9    4    5 1    
    10   11    5 1    
    11    5    6 1    
    12    6   12 1    
    13    1   13 1    
    14    2   14 1    
    15    3   15 1    
    16    4   16 1    
    17    5   17 1    
    18    6   18 1    
    19    6   19 1    
    20    7   20 1    
    21    8   21 1    
    22    9   22 1    
    23   10   23 1    
    24   12   24 1    
@<TRIPOS>SUBSTRUCTURE
     1 MAIN        1 PERM              0 ****  ****    0 ROOT 
