#	Name:			6
#	Creating user name:	jeff
#	Creation time:		Tue Feb 17 18:13:41 2004

#	Modifying user name:	jeff
#	Modification time:	Tue Feb 17 18:13:41 2004

@<TRIPOS>MOLECULE
6
   28    28     1     0     0
SMALL
USER_CHARGES


@<TRIPOS>ATOM
      1 C1          1.223000    1.416000    0.886000 C.3       1 MAIN       -0.089900 
      2 C2          1.380000    1.639000   -0.638000 C.3       1 MAIN        0.174200 
      3 C3          0.264000    0.940000   -1.441000 C.3       1 MAIN        0.102500 
      4 C4          0.110000   -0.513000   -0.970000 C.3       1 MAIN        0.332700 
      5 C5         -0.106000   -0.525000    0.550000 C.3       1 MAIN        0.157800 
      6 C6         -0.443000   -1.937000    1.049000 C.3       1 MAIN        0.026900 
      7 C7          0.105000    2.287000    1.488000 C.3       1 MAIN        0.268400 
      8 O2          1.452000    3.037000   -0.943000 O.3       1 MAIN       -0.690000 
      9 O3          0.518000    1.016000   -2.848000 O.3       1 MAIN       -0.699100 
     10 O4         -0.963000   -1.176000   -1.629000 O.3       1 MAIN       -0.708600 
     11 O5          1.038000    0.027000    1.214000 O.3       1 MAIN       -0.426000 
     12 O6          0.389000   -2.903000    0.415000 O.3       1 MAIN       -0.655900 
     13 ****        0.373000    2.559000    2.878000 N.2       1 MAIN       -0.663800 
     14 N2          1.604153    2.192526    3.280089 N.2       1 MAIN        0.541500 
     15 N15         2.696478    1.866839    3.621928 N.1       1 MAIN       -0.174100 
     16 H1          2.166254    1.734391    1.353840 H         1 MAIN        0.136100 
     17 H2          2.334703    1.184450   -0.941152 H         1 MAIN        0.071500 
     18 H3         -0.681943    1.464605   -1.241108 H         1 MAIN        0.090700 
     19 H4          1.039953   -1.053793   -1.199574 H         1 MAIN        0.089800 
     20 H5         -0.967751    0.120456    0.775271 H         1 MAIN        0.096700 
     21 H6         -1.495509   -2.160046    0.819979 H         1 MAIN        0.084400 
     22 H7         -0.286676   -1.983177    2.136844 H         1 MAIN        0.078800 
     23 H8         -0.854505    1.756178    1.401094 H         1 MAIN        0.080300 
     24 H9          0.049531    3.237386    0.936942 H         1 MAIN        0.020700 
     25 H10         2.147034    3.436849   -0.433541 H         1 MAIN        0.431800 
     26 H11         0.607676    1.926210   -3.104856 H         1 MAIN        0.447000 
     27 H12        -0.816000   -1.160777   -2.567434 H         1 MAIN        0.444100 
     28 H13         0.167811   -3.769897    0.734477 H         1 MAIN        0.431400 
@<TRIPOS>BOND
     1    1    2 1    
     2    7    1 1    
     3    1   11 1    
     4    2    3 1    
     5    2    8 1    
     6    3    4 1    
     7    3    9 1    
     8    5    4 1    
     9    4   10 1    
    10    5    6 1    
    11   11    5 1    
    12    6   12 1    
    13   13   14 2    
    14   14   15 3    
    15   13    7 1    
    16    1   16 1    
    17    2   17 1    
    18    3   18 1    
    19    4   19 1    
    20    5   20 1    
    21    6   21 1    
    22    6   22 1    
    23    7   23 1    
    24    7   24 1    
    25    8   25 1    
    26    9   26 1    
    27   10   27 1    
    28   12   28 1    
@<TRIPOS>SUBSTRUCTURE
     1 MAIN        1 PERM              0 ****  ****    0 ROOT 
