#	Name:			60
#	Creating user name:	jeff
#	Creation time:		Tue Feb 17 18:13:41 2004

#	Modifying user name:	jeff
#	Modification time:	Tue Feb 17 18:13:41 2004

@<TRIPOS>MOLECULE
60
   36    36     1     0     0
SMALL
USER_CHARGES


@<TRIPOS>ATOM
      1 C1          0.433000    1.283000    1.154000 C.3       1 MAIN       -0.530300 
      2 C2          0.941000    1.590000   -0.279000 C.3       1 MAIN        0.412800 
      3 C3          0.070000    0.827000   -1.301000 C.3       1 MAIN        0.124400 
      4 C4         -0.050000   -0.654000   -0.891000 C.3       1 MAIN        0.246200 
      5 C5         -0.495000   -0.767000    0.576000 C.3       1 MAIN       -0.026200 
      6 C6         -0.676000   -2.230000    0.989000 C.3       1 MAIN        0.114100 
      7 O2          0.932000    2.998000   -0.557000 O.3       1 MAIN       -0.667900 
      8 O3          0.557000    0.980000   -2.644000 O.3       1 MAIN       -0.680100 
      9 O4         -0.965000   -1.357000   -1.712000 O.3       1 MAIN       -0.687600 
     10 O5          0.444000   -0.117000    1.418000 O.3       1 MAIN       -0.291000 
     11 O6          0.367000   -3.030000    0.441000 O.3       1 MAIN       -0.664700 
     12 C7          1.202000    1.989000    2.226000 C.2       1 MAIN        0.937700 
     13 N1          2.530000    1.630000    2.427000 N.am      1 MAIN       -0.923600 
     14 O1          0.684000    2.861000    2.924000 O.2       1 MAIN       -0.612600 
     15 C8          3.334000    2.314000    3.456000 C.3       1 MAIN        0.272900 
     16 C9          4.829000    2.100000    3.204000 C.3       1 MAIN       -0.514100 
     17 C10         5.684000    2.940000    4.168000 C.3       1 MAIN        1.393400 
     18 F1          7.022000    2.591000    4.018000 F         1 MAIN       -0.459400 
     19 F2          5.294000    2.713000    5.485000 F         1 MAIN       -0.447900 
     20 F3          5.534000    4.287000    3.872000 F         1 MAIN       -0.431000 
     21 H1         -0.608948    1.631189    1.209520 H         1 MAIN        0.233500 
     22 H2          1.977447    1.231504   -0.364052 H         1 MAIN        0.076200 
     23 H3         -0.939261    1.263316   -1.269449 H         1 MAIN        0.124300 
     24 H4          0.940463   -1.120744   -0.996390 H         1 MAIN        0.097500 
     25 H5         -1.465054   -0.259384    0.682281 H         1 MAIN        0.117900 
     26 H6         -1.645630   -2.594442    0.618898 H         1 MAIN        0.056400 
     27 H7         -0.651293   -2.303225    2.086270 H         1 MAIN        0.055500 
     28 H8          1.472004    3.450095    0.080578 H         1 MAIN        0.416000 
     29 H9         -0.003239    0.497881   -3.240819 H         1 MAIN        0.430500 
     30 H10        -1.012046   -2.262957   -1.429993 H         1 MAIN        0.437000 
     31 H11         0.243763   -3.934507    0.704019 H         1 MAIN        0.437400 
     32 H12         2.940661    0.906276    1.872392 H         1 MAIN        0.492800 
     33 H13         3.073113    1.910647    4.445555 H         1 MAIN        0.056700 
     34 H14         3.113801    3.391397    3.429475 H         1 MAIN        0.052700 
     35 H15         5.063506    2.392137    2.169767 H         1 MAIN        0.175900 
     36 H16         5.067913    1.035920    3.347624 H         1 MAIN        0.174500 
@<TRIPOS>BOND
     1    1    2 1    
     2    1   10 1    
     3   10    5 1    
     4    5    6 1    
     5    5    4 1    
     6    4    9 1    
     7    4    3 1    
     8    3    8 1    
     9    3    2 1    
    10    2    7 1    
    11    6   11 1    
    12    1   12 1    
    13   12   13 am   
    14   12   14 2    
    15   13   15 1    
    16   15   16 1    
    17   16   17 1    
    18   17   18 1    
    19   17   19 1    
    20   17   20 1    
    21    1   21 1    
    22    2   22 1    
    23    3   23 1    
    24    4   24 1    
    25    5   25 1    
    26    6   26 1    
    27    6   27 1    
    28    7   28 1    
    29    8   29 1    
    30    9   30 1    
    31   11   31 1    
    32   13   32 1    
    33   15   33 1    
    34   15   34 1    
    35   16   35 1    
    36   16   36 1    
@<TRIPOS>SUBSTRUCTURE
     1 MAIN        1 PERM              0 ****  ****    0 ROOT 
