#	Name:			61
#	Creating user name:	jeff
#	Creation time:		Tue Feb 17 18:13:41 2004

#	Modifying user name:	jeff
#	Modification time:	Tue Feb 17 18:13:41 2004

@<TRIPOS>MOLECULE
61
   25    25     1     0     0
SMALL
USER_CHARGES


@<TRIPOS>ATOM
      1 C1          0.921000    1.463000    0.980000 C.3       1 MAIN       -0.215400 
      2 C2          1.199000    1.687000   -0.535000 C.3       1 MAIN        0.252000 
      3 C3          0.184000    0.941000   -1.434000 C.3       1 MAIN       -0.030900 
      4 C4          0.078000   -0.520000   -0.972000 C.3       1 MAIN        0.409800 
      5 C5         -0.257000   -0.542000    0.522000 C.3       1 MAIN        0.104400 
      6 C6         -0.552000   -1.979000    0.992000 C.3       1 MAIN        0.097800 
      7 O2          1.261000    3.081000   -0.835000 O.3       1 MAIN       -0.781000 
      8 O3          0.543000    1.031000   -2.817000 O.3       1 MAIN       -0.724000 
      9 O4         -0.916000   -1.242000   -1.691000 O.3       1 MAIN       -0.727200 
     10 O5          0.781000    0.068000    1.292000 O.3       1 MAIN       -0.439600 
     11 O6          0.354000   -2.914000    0.397000 O.3       1 MAIN       -0.658500 
     12 C1         -0.208000    2.311000    1.568000 C.2       1 MAIN        0.838600 
     13 O1         -0.904000    3.141000    0.885000 O.co2     1 MAIN       -1.024000 
     14 O7         -0.370000    2.168000    2.817000 O.co2     1 MAIN       -0.903800 
     15 H1          1.832577    1.797771    1.496654 H         1 MAIN        0.141600 
     16 H2          2.190578    1.262445   -0.750639 H         1 MAIN        0.057900 
     17 H3         -0.800996    1.414663   -1.309898 H         1 MAIN        0.135300 
     18 H4          1.049583   -1.010353   -1.131859 H         1 MAIN        0.043800 
     19 H5         -1.171519    0.051094    0.669882 H         1 MAIN        0.108400 
     20 H6         -1.580672   -2.245529    0.707796 H         1 MAIN        0.043300 
     21 H7         -0.449773   -2.026860    2.086182 H         1 MAIN        0.056000 
     22 H8          1.893213    3.500161   -0.263064 H         1 MAIN        0.532400 
     23 H9          0.600072    1.944772   -3.070501 H         1 MAIN        0.444000 
     24 H10        -0.708614   -1.228650   -2.617991 H         1 MAIN        0.421500 
     25 H11         0.150800   -3.790211    0.702718 H         1 MAIN        0.395400 
@<TRIPOS>BOND
     1    1   10 1    
     2    1    2 1    
     3    2    7 1    
     4    2    3 1    
     5    3    8 1    
     6    3    4 1    
     7    4    9 1    
     8    4    5 1    
     9   10    5 1    
    10    5    6 1    
    11    6   11 1    
    12    1   12 1    
    13   12   13 2    
    14   12   14 1    
    15    1   15 1    
    16    2   16 1    
    17    3   17 1    
    18    4   18 1    
    19    5   19 1    
    20    6   20 1    
    21    6   21 1    
    22    7   22 1    
    23    8   23 1    
    24    9   24 1    
    25   11   25 1    
@<TRIPOS>SUBSTRUCTURE
     1 MAIN        1 PERM              0 ****  ****    0 ROOT 
