#	Name:			62
#	Creating user name:	jeff
#	Creation time:		Tue Feb 17 18:13:41 2004

#	Modifying user name:	jeff
#	Modification time:	Tue Feb 17 18:13:41 2004

@<TRIPOS>MOLECULE
62
   34    34     1     0     0
SMALL
USER_CHARGES


@<TRIPOS>ATOM
      1 C1          1.186000    1.285000    0.936000 C.3       1 MAIN       -0.383100 
      2 C2          1.319000    1.582000   -0.593000 C.3       1 MAIN        0.378500 
      3 C3          0.233000    0.868000   -1.432000 C.3       1 MAIN        0.079200 
      4 C4          0.098000   -0.599000   -0.994000 C.3       1 MAIN        0.355500 
      5 C5         -0.090000   -0.652000    0.528000 C.3       1 MAIN        0.090300 
      6 C6         -0.430000   -2.070000    1.001000 C.3       1 MAIN        0.097600 
      7 O2          1.372000    2.986000   -0.887000 O.3       1 MAIN       -0.721600 
      8 O3          0.500000    0.987000   -2.833000 O.3       1 MAIN       -0.708100 
      9 O4         -0.990000   -1.247000   -1.642000 O.3       1 MAIN       -0.704100 
     10 O5          1.069000   -0.125000    1.180000 O.3       1 MAIN       -0.356200 
     11 O6          0.432000   -3.018000    0.382000 O.3       1 MAIN       -0.657800 
     12 C7          0.052000    2.024000    1.620000 C.2       1 MAIN        0.920400 
     13 N1         -0.661000    2.927000    0.851000 N.am      1 MAIN       -1.123800 
     14 O1         -0.234000    1.852000    2.803000 O.2       1 MAIN       -0.603400 
     15 C8         -1.870000    3.637000    1.285000 C.3       1 MAIN        0.287700 
     16 C9         -3.061000    3.172000    0.444000 C.3       1 MAIN        0.267900 
     17 O7         -3.898000    4.280000    0.136000 O.3       1 MAIN       -0.708800 
     18 H1          2.119842    1.626627    1.406325 H         1 MAIN        0.217400 
     19 H2          2.285406    1.160400   -0.906509 H         1 MAIN        0.054600 
     20 H3         -0.727755    1.365817   -1.234253 H         1 MAIN        0.089600 
     21 H4          1.024582   -1.129910   -1.257732 H         1 MAIN        0.073200 
     22 H5         -0.941999   -0.005861    0.786024 H         1 MAIN        0.092400 
     23 H6         -1.472430   -2.300549    0.736121 H         1 MAIN        0.074900 
     24 H7         -0.307764   -2.127304    2.092673 H         1 MAIN        0.062600 
     25 H8          2.046417    3.395128   -0.357588 H         1 MAIN        0.422400 
     26 H9          0.576392    1.905342   -3.063895 H         1 MAIN        0.441100 
     27 H10        -0.865743   -1.209629   -2.583097 H         1 MAIN        0.445400 
     28 H11         0.210761   -3.891307    0.683475 H         1 MAIN        0.422900 
     29 H12        -0.326067    3.110206   -0.073264 H         1 MAIN        0.562800 
     30 H13        -1.727481    4.719646    1.152558 H         1 MAIN        0.052800 
     31 H14        -2.062577    3.419559    2.345947 H         1 MAIN        0.053900 
     32 H15        -3.637700    2.425435    1.009714 H         1 MAIN        0.014800 
     33 H16        -2.694231    2.721266   -0.489967 H         1 MAIN       -0.008000 
     34 H17        -4.634898    3.984751   -0.385833 H         1 MAIN        0.417100 
@<TRIPOS>BOND
     1    1   10 1    
     2    1    2 1    
     3    2    7 1    
     4    2    3 1    
     5    3    8 1    
     6    3    4 1    
     7    4    9 1    
     8    4    5 1    
     9   10    5 1    
    10    5    6 1    
    11    6   11 1    
    12    1   12 1    
    13   12   13 am   
    14   12   14 2    
    15   13   15 1    
    16   15   16 1    
    17   16   17 1    
    18    1   18 1    
    19    2   19 1    
    20    3   20 1    
    21    4   21 1    
    22    5   22 1    
    23    6   23 1    
    24    6   24 1    
    25    7   25 1    
    26    8   26 1    
    27    9   27 1    
    28   11   28 1    
    29   13   29 1    
    30   15   30 1    
    31   15   31 1    
    32   16   32 1    
    33   16   33 1    
    34   17   34 1    
@<TRIPOS>SUBSTRUCTURE
     1 MAIN        1 PERM              0 ****  ****    0 ROOT 
