#	Name:			63
#	Creating user name:	jeff
#	Creation time:		Tue Feb 17 18:13:41 2004

#	Modifying user name:	jeff
#	Modification time:	Tue Feb 17 18:13:41 2004

@<TRIPOS>MOLECULE
63
   40    41     1     0     0
SMALL
USER_CHARGES


@<TRIPOS>ATOM
      1 C1          1.051000    1.378000    0.980000 C.3       1 MAIN       -0.404300 
      2 C2          1.240000    1.652000   -0.539000 C.3       1 MAIN        0.380300 
      3 C3          0.195000    0.914000   -1.409000 C.3       1 MAIN       -0.049300 
      4 C4          0.061000   -0.548000   -0.954000 C.3       1 MAIN        0.424700 
      5 C5         -0.191000   -0.590000    0.560000 C.3       1 MAIN        0.048200 
      6 C6         -0.495000   -2.018000    1.030000 C.3       1 MAIN        0.079800 
      7 O2          1.288000    3.054000   -0.826000 O.3       1 MAIN       -0.711900 
      8 O3          0.517000    1.009000   -2.801000 O.3       1 MAIN       -0.686700 
      9 O4         -0.982000   -1.225000   -1.643000 O.3       1 MAIN       -0.711400 
     10 O5          0.925000   -0.025000    1.254000 O.3       1 MAIN       -0.323200 
     11 O6          0.392000   -2.945000    0.413000 O.3       1 MAIN       -0.659900 
     12 C7         -0.082000    2.157000    1.617000 C.2       1 MAIN        0.904700 
     13 N1         -0.904000    2.938000    0.813000 N.am      1 MAIN       -0.985100 
     14 O1         -0.287000    2.111000    2.830000 O.2       1 MAIN       -0.612000 
     15 C8         -2.037000    3.706000    1.352000 C.3       1 MAIN        0.185300 
     16 C          -3.296145    3.422692    0.539648 C.ar      1 MAIN       -0.333500 
     17 C          -3.347145    2.347692   -0.350352 C.ar      1 MAIN        0.001300 
     18 C          -4.495145    2.107692   -1.103352 C.ar      1 MAIN       -0.517700 
     19 C          -5.592145    2.959692   -0.955352 C.ar      1 MAIN        0.708800 
     20 C          -5.583145    4.039692   -0.072352 C.ar      1 MAIN       -0.675000 
     21 C          -4.419145    4.245692    0.664648 C.ar      1 MAIN        0.642400 
     22 F1         -4.372730    5.269793    1.511976 F         1 MAIN       -0.346000 
     23 F2         -6.683044    2.735183   -1.682288 F         1 MAIN       -0.365700 
     24 H1          1.975006    1.717617    1.470763 H         1 MAIN        0.213200 
     25 H2          2.222482    1.239988   -0.812772 H         1 MAIN        0.071000 
     26 H3         -0.778064    1.404223   -1.257995 H         1 MAIN        0.142200 
     27 H4          1.007457   -1.065794   -1.168669 H         1 MAIN        0.069500 
     28 H5         -1.074093    0.028821    0.777216 H         1 MAIN        0.103600 
     29 H6         -1.530557   -2.274620    0.762153 H         1 MAIN        0.081500 
     30 H7         -0.374220   -2.073238    2.121941 H         1 MAIN        0.068000 
     31 H8          1.939574    3.468364   -0.272598 H         1 MAIN        0.419800 
     32 H9          0.591934    1.923541   -3.046968 H         1 MAIN        0.438600 
     33 H10        -0.816600   -1.193182   -2.577949 H         1 MAIN        0.444700 
     34 H11         0.191309   -3.823500    0.713768 H         1 MAIN        0.426800 
     35 H12        -0.718200    2.979360   -0.168721 H         1 MAIN        0.552700 
     36 H13        -1.805407    4.780134    1.301259 H         1 MAIN        0.072100 
     37 H14        -2.207174    3.416642    2.399515 H         1 MAIN        0.115300 
     38 H15        -2.487874    1.695393   -0.456255 H         1 MAIN        0.221300 
     39 H16        -4.536090    1.272624   -1.793309 H         1 MAIN        0.259900 
     40 H17        -6.443833    4.689803    0.035485 H         1 MAIN        0.305500 
@<TRIPOS>BOND
     1    1   10 1    
     2    1    2 1    
     3    2    7 1    
     4    2    3 1    
     5    3    8 1    
     6    3    4 1    
     7    4    9 1    
     8    5    4 1    
     9   10    5 1    
    10    5    6 1    
    11    6   11 1    
    12   12    1 1    
    13   13   12 am   
    14   12   14 2    
    15   15   13 1    
    16   16   17 ar   
    17   16   21 ar   
    18   21   20 ar   
    19   20   19 ar   
    20   18   19 ar   
    21   17   18 ar   
    22   15   16 1    
    23   21   22 1    
    24   19   23 1    
    25    1   24 1    
    26    2   25 1    
    27    3   26 1    
    28    4   27 1    
    29    5   28 1    
    30    6   29 1    
    31    6   30 1    
    32    7   31 1    
    33    8   32 1    
    34    9   33 1    
    35   11   34 1    
    36   13   35 1    
    37   15   36 1    
    38   15   37 1    
    39   17   38 1    
    40   18   39 1    
    41   20   40 1    
@<TRIPOS>SUBSTRUCTURE
     1 MAIN        1 PERM              0 ****  ****    0 ROOT 
