#	Name:			64
#	Creating user name:	jeff
#	Creation time:		Tue Feb 17 18:13:41 2004

#	Modifying user name:	jeff
#	Modification time:	Tue Feb 17 18:13:41 2004

@<TRIPOS>MOLECULE
64
   31    31     1     0     0
SMALL
USER_CHARGES


@<TRIPOS>ATOM
      1 C1          1.369000    1.142000    0.854000 C.3       1 MAIN        0.533000 
      2 C2          1.340000    1.532000   -0.648000 C.3       1 MAIN        0.066300 
      3 C3          0.188000    0.856000   -1.428000 C.3       1 MAIN        0.062900 
      4 C4          0.024000   -0.612000   -1.006000 C.3       1 MAIN        0.365900 
      5 C5         -0.107000   -0.672000    0.515000 C.3       1 MAIN       -0.068100 
      6 C6         -0.472000   -2.086000    0.980000 C.3       1 MAIN        0.120600 
      7 O2          1.272000    2.958000   -0.790000 O.3       1 MAIN       -0.696500 
      8 O3          0.397000    0.975000   -2.840000 O.3       1 MAIN       -0.691000 
      9 O4         -1.105000   -1.224000   -1.615000 O.3       1 MAIN       -0.690000 
     10 O5          1.123000   -0.250000    1.081000 O.3       1 MAIN       -0.378000 
     11 O6          0.406000   -3.038000    0.389000 O.3       1 MAIN       -0.643700 
     12 N1          2.688000    1.449000    1.427000 N.am      1 MAIN       -1.129700 
     13 C7          2.818000    2.025000    2.691000 C.2       1 MAIN        1.240000 
     14 O1          1.849000    2.378000    3.373000 O.2       1 MAIN       -0.763600 
     15 O8          4.069590    2.179856    3.113424 O.3       1 MAIN       -0.509500 
     16 C9          4.294567    2.843739    4.359837 C.3       1 MAIN        0.032000 
     17 H1          0.597912    1.727370    1.376245 H         1 MAIN        0.052200 
     18 H2          2.285146    1.190978   -1.095636 H         1 MAIN        0.113200 
     19 H3         -0.744866    1.383191   -1.179392 H         1 MAIN        0.089300 
     20 H4          0.923869   -1.166555   -1.310433 H         1 MAIN        0.083600 
     21 H5         -0.903551    0.016184    0.834193 H         1 MAIN        0.111800 
     22 H6         -1.506547   -2.311237    0.681746 H         1 MAIN        0.083400 
     23 H7         -0.385543   -2.142383    2.075135 H         1 MAIN        0.052700 
     24 H8          1.984708    3.358716   -0.306291 H         1 MAIN        0.466700 
     25 H9          0.494577    1.891683   -3.069500 H         1 MAIN        0.465900 
     26 H10        -1.016251   -1.182760   -2.559946 H         1 MAIN        0.442000 
     27 H11         0.171612   -3.910331    0.683280 H         1 MAIN        0.420700 
     28 H12         3.510798    1.240084    0.898449 H         1 MAIN        0.519500 
     29 H13         5.374994    2.888818    4.561446 H         1 MAIN        0.111200 
     30 H14         3.793912    2.288461    5.166674 H         1 MAIN        0.067300 
     31 H15         3.887973    3.864616    4.310180 H         1 MAIN        0.069800 
@<TRIPOS>BOND
     1    1   12 1    
     2   12   13 am   
     3    1   10 1    
     4    1    2 1    
     5    2    7 1    
     6    2    3 1    
     7    3    8 1    
     8    3    4 1    
     9    4    9 1    
    10    4    5 1    
    11    5    6 1    
    12   10    5 1    
    13    6   11 1    
    14   13   15 1    
    15   15   16 1    
    16   13   14 2    
    17    1   17 1    
    18    2   18 1    
    19    3   19 1    
    20    4   20 1    
    21    5   21 1    
    22    6   22 1    
    23    6   23 1    
    24    7   24 1    
    25    8   25 1    
    26    9   26 1    
    27   11   27 1    
    28   12   28 1    
    29   16   29 1    
    30   16   30 1    
    31   16   31 1    
@<TRIPOS>SUBSTRUCTURE
     1 MAIN        1 PERM              0 ****  ****    0 ROOT 
