#	Name:			65
#	Creating user name:	jeff
#	Creation time:		Tue Feb 17 18:13:41 2004

#	Modifying user name:	jeff
#	Modification time:	Tue Feb 17 18:13:41 2004

@<TRIPOS>MOLECULE
65
   36    37     1     0     0
SMALL
USER_CHARGES


@<TRIPOS>ATOM
      1 C1          1.331000    1.128000    0.915000 C.3       1 MAIN        0.470900 
      2 C2          1.244000    1.581000   -0.574000 C.3       1 MAIN        0.153200 
      3 C3          0.134000    0.870000   -1.388000 C.3       1 MAIN        0.109500 
      4 C4          0.009000   -0.608000   -0.985000 C.3       1 MAIN        0.292000 
      5 C5         -0.125000   -0.702000    0.533000 C.3       1 MAIN        0.085400 
      6 C6         -0.473000   -2.128000    0.974000 C.3       1 MAIN        0.116000 
      7 O2          1.150000    3.007000   -0.698000 O.3       1 MAIN       -0.667000 
      8 O3          0.384000    0.993000   -2.794000 O.3       1 MAIN       -0.694300 
      9 O4         -1.098000   -1.243000   -1.612000 O.3       1 MAIN       -0.686200 
     10 O5          1.097000   -0.270000    1.114000 O.3       1 MAIN       -0.432100 
     11 O6          0.422000   -3.058000    0.375000 O.3       1 MAIN       -0.657800 
     12 N1          2.688000    1.345000    1.432000 N.am      1 MAIN       -1.097800 
     13 C7          2.680000    1.872000    2.724000 C.2       1 MAIN        0.979700 
     14 N2          1.323000    2.235000    3.033000 N.am      1 MAIN       -0.282800 
     15 C8          0.508000    1.922000    1.901000 C.2       1 MAIN        0.647300 
     16 O1          3.674000    1.981000    3.451000 O.2       1 MAIN       -0.611500 
     17 O7         -0.672000    2.252000    1.811000 O.2       1 MAIN       -0.512400 
     18 N3          0.709000    2.694000    4.292000 N.am      1 MAIN       -0.861500 
     19 C9          1.280000    3.540000    5.284000 C.2       1 MAIN        0.984500 
     20 C10         0.443000    3.731000    6.514000 C.3       1 MAIN       -0.510600 
     21 O8          2.374000    4.089000    5.153000 O.2       1 MAIN       -0.627500 
     22 H1          2.198007    1.288147   -1.036690 H         1 MAIN        0.076800 
     23 H2         -0.822524    1.365449   -1.165361 H         1 MAIN        0.100500 
     24 H3          0.926030   -1.131184   -1.293721 H         1 MAIN        0.089700 
     25 H4         -0.932885   -0.031651    0.861525 H         1 MAIN        0.083200 
     26 H5         -1.502217   -2.363233    0.665206 H         1 MAIN        0.081300 
     27 H6         -0.393106   -2.199851    2.068728 H         1 MAIN        0.047600 
     28 H7          1.841127    3.415259   -0.189898 H         1 MAIN        0.442400 
     29 H8          0.457997    1.911951   -3.023246 H         1 MAIN        0.454000 
     30 H9         -1.006555   -1.179846   -2.555477 H         1 MAIN        0.446600 
     31 H10         0.198059   -3.937936    0.654398 H         1 MAIN        0.426500 
     32 H11         3.520806    1.139129    0.918134 H         1 MAIN        0.561400 
     33 H12        -0.220801    2.372216    4.470697 H         1 MAIN        0.537100 
     34 H13         0.968082    4.396398    7.215095 H         1 MAIN        0.159800 
     35 H14         0.268804    2.756688    6.993944 H         1 MAIN        0.136200 
     36 H15        -0.521626    4.180056    6.235039 H         1 MAIN        0.159700 
@<TRIPOS>BOND
     1    1   12 1    
     2   12   13 am   
     3    1   10 1    
     4    1    2 1    
     5    2    7 1    
     6    2    3 1    
     7    3    8 1    
     8    3    4 1    
     9    4    9 1    
    10    4    5 1    
    11    5    6 1    
    12   10    5 1    
    13    6   11 1    
    14   13   14 am   
    15   14   18 1    
    16    1   15 1    
    17   13   16 2    
    18   15   17 2    
    19   15   14 am   
    20   18   19 am   
    21   19   20 1    
    22   19   21 2    
    23    2   22 1    
    24    3   23 1    
    25    4   24 1    
    26    5   25 1    
    27    6   26 1    
    28    6   27 1    
    29    7   28 1    
    30    8   29 1    
    31    9   30 1    
    32   11   31 1    
    33   12   32 1    
    34   18   33 1    
    35   20   34 1    
    36   20   35 1    
    37   20   36 1    
@<TRIPOS>SUBSTRUCTURE
     1 MAIN        1 PERM              0 ****  ****    0 ROOT 
