#	Name:			66
#	Creating user name:	jeff
#	Creation time:		Tue Feb 17 18:13:41 2004

#	Modifying user name:	jeff
#	Modification time:	Tue Feb 17 18:13:41 2004

@<TRIPOS>MOLECULE
66
   30    31     1     0     0
SMALL
USER_CHARGES


@<TRIPOS>ATOM
      1 C1          1.257000    1.089000    0.922000 C.3       1 MAIN        0.430500 
      2 C2          1.225000    1.505000   -0.575000 C.3       1 MAIN        0.143500 
      3 C3          0.101000    0.805000   -1.372000 C.3       1 MAIN        0.097100 
      4 C4         -0.007000   -0.672000   -0.962000 C.3       1 MAIN        0.311100 
      5 C5         -0.177000   -0.758000    0.553000 C.3       1 MAIN        0.051200 
      6 C6         -0.495000   -2.189000    0.991000 C.3       1 MAIN        0.118900 
      7 O2          1.172000    2.932000   -0.732000 O.3       1 MAIN       -0.664400 
      8 O3          0.324000    0.948000   -2.781000 O.3       1 MAIN       -0.695300 
      9 O4         -1.087000   -1.335000   -1.605000 O.3       1 MAIN       -0.683700 
     10 O5          1.019000   -0.298000    1.164000 O.3       1 MAIN       -0.407300 
     11 O6          0.419000   -3.101000    0.389000 O.3       1 MAIN       -0.659400 
     12 N1          2.589000    1.334000    1.488000 N.am      1 MAIN       -1.090600 
     13 C7          2.513000    1.975000    2.723000 C.2       1 MAIN        1.032300 
     14 N2          1.139000    2.303000    2.957000 N.am      1 MAIN       -0.538300 
     15 C8          0.371000    1.918000    1.819000 C.2       1 MAIN        0.767700 
     16 O1          3.456000    2.249000    3.470000 O.2       1 MAIN       -0.648500 
     17 O7         -0.806000    2.235000    1.652000 O.2       1 MAIN       -0.507300 
     18 O8          0.688421    3.303348    3.963679 O.3       1 MAIN       -0.314700 
     19 H1          2.176805    1.171007   -1.013737 H         1 MAIN        0.090600 
     20 H2         -0.852246    1.296236   -1.127084 H         1 MAIN        0.107200 
     21 H3          0.926684   -1.179859   -1.245352 H         1 MAIN        0.084800 
     22 H4         -1.009313   -0.106428    0.857439 H         1 MAIN        0.091400 
     23 H5         -1.519553   -2.444434    0.682748 H         1 MAIN        0.084600 
     24 H6         -0.412637   -2.261052    2.085532 H         1 MAIN        0.051800 
     25 H7          1.873523    3.331882   -0.231541 H         1 MAIN        0.425800 
     26 H8          0.385667    1.870398   -2.999812 H         1 MAIN        0.453500 
     27 H9         -0.977175   -1.279024   -2.546969 H         1 MAIN        0.445200 
     28 H10         0.213011   -3.985690    0.667196 H         1 MAIN        0.426000 
     29 H11         3.445341    1.073107    1.042328 H         1 MAIN        0.561700 
     30 H12         1.356205    3.402889    4.632003 H         1 MAIN        0.434500 
@<TRIPOS>BOND
     1    1   12 1    
     2   12   13 am   
     3    1   10 1    
     4    1    2 1    
     5    2    7 1    
     6    2    3 1    
     7    3    8 1    
     8    3    4 1    
     9    4    9 1    
    10    4    5 1    
    11    5    6 1    
    12   10    5 1    
    13    6   11 1    
    14   13   14 am   
    15   14   18 1    
    16    1   15 1    
    17   13   16 2    
    18   15   17 2    
    19   15   14 am   
    20    2   19 1    
    21    3   20 1    
    22    4   21 1    
    23    5   22 1    
    24    6   23 1    
    25    6   24 1    
    26    7   25 1    
    27    8   26 1    
    28    9   27 1    
    29   11   28 1    
    30   12   29 1    
    31   18   30 1    
@<TRIPOS>SUBSTRUCTURE
     1 MAIN        1 PERM              0 ****  ****    0 ROOT 
