#	Name:			7
#	Creating user name:	jeff
#	Creation time:		Tue Feb 17 18:13:41 2004

#	Modifying user name:	jeff
#	Modification time:	Tue Feb 17 18:13:41 2004

@<TRIPOS>MOLECULE
7
   28    28     1     0     0
SMALL
USER_CHARGES


@<TRIPOS>ATOM
      1 C1          1.109000    1.149000    0.934000 C.3       1 MAIN       -0.078800 
      2 C2          1.251000    1.390000   -0.576000 C.3       1 MAIN        0.124800 
      3 C3          0.118000    0.722000   -1.352000 C.3       1 MAIN        0.058700 
      4 C4         -0.038000   -0.722000   -0.896000 C.3       1 MAIN        0.359400 
      5 C5         -0.224000   -0.749000    0.611000 C.3       1 MAIN        0.024500 
      6 C6         -0.509000   -2.162000    1.089000 C.3       1 MAIN        0.103400 
      7 C7          2.327000    1.646000    1.683000 C.3       1 MAIN        0.189900 
      8 O2          1.291000    2.784000   -0.861000 O.3       1 MAIN       -0.646900 
      9 O3          0.323000    0.818000   -2.753000 O.3       1 MAIN       -0.683000 
     10 O4         -1.119000   -1.362000   -1.526000 O.3       1 MAIN       -0.690700 
     11 O5          0.921000   -0.224000    1.242000 O.3       1 MAIN       -0.330700 
     12 O6          0.370000   -3.080000    0.472000 O.3       1 MAIN       -0.659900 
     13 ****        1.972000    2.141000    2.976000 N.2       1 MAIN       -0.626200 
     14 N2          0.879748    2.411000    3.080814 N.2       1 MAIN        0.522800 
     15 N15        -0.183857    2.675132    3.175565 N.1       1 MAIN       -0.176100 
     16 H1          0.228663    1.707760    1.284383 H         1 MAIN        0.135100 
     17 H2          2.201018    0.943661   -0.904972 H         1 MAIN        0.105100 
     18 H3         -0.815592    1.253573   -1.115759 H         1 MAIN        0.103200 
     19 H4          0.881959   -1.268676   -1.150551 H         1 MAIN        0.087600 
     20 H5         -1.085836   -0.116073    0.869105 H         1 MAIN        0.078200 
     21 H6         -1.545934   -2.427608    0.835630 H         1 MAIN        0.079100 
     22 H7         -0.374407   -2.209220    2.179702 H         1 MAIN        0.055200 
     23 H8          2.797713    2.455431    1.105744 H         1 MAIN        0.037500 
     24 H9          3.039789    0.816367    1.799691 H         1 MAIN        0.121800 
     25 H10         1.999257    3.186855   -0.372553 H         1 MAIN        0.403900 
     26 H11         0.415451    1.731294   -2.997636 H         1 MAIN        0.439100 
     27 H12        -0.994613   -1.340536   -2.467577 H         1 MAIN        0.435000 
     28 H13         0.179091   -3.957813    0.781029 H         1 MAIN        0.427800 
@<TRIPOS>BOND
     1    1   11 1    
     2    1    2 1    
     3    7    1 1    
     4   13   14 2    
     5    2    8 1    
     6    2    3 1    
     7   14   15 3    
     8    3    9 1    
     9    3    4 1    
    10    7   13 1    
    11    4   10 1    
    12    4    5 1    
    13    5   11 1    
    14    5    6 1    
    15    6   12 1    
    16    1   16 1    
    17    2   17 1    
    18    3   18 1    
    19    4   19 1    
    20    5   20 1    
    21    6   21 1    
    22    6   22 1    
    23    7   23 1    
    24    7   24 1    
    25    8   25 1    
    26    9   26 1    
    27   10   27 1    
    28   12   28 1    
@<TRIPOS>SUBSTRUCTURE
     1 MAIN        1 PERM              0 ****  ****    0 ROOT 
