#	Name:			8
#	Creating user name:	jeff
#	Creation time:		Tue Feb 17 18:13:41 2004

#	Modifying user name:	jeff
#	Modification time:	Tue Feb 17 18:13:41 2004

@<TRIPOS>MOLECULE
8
   29    29     1     0     0
SMALL
USER_CHARGES


@<TRIPOS>ATOM
      1 C1          1.159000    1.484000    0.938000 C.3       1 MAIN        0.334100 
      2 C2          1.413000    1.629000   -0.587000 C.3       1 MAIN       -0.058000 
      3 C3          0.297000    0.967000   -1.416000 C.3       1 MAIN        0.111800 
      4 C4          0.089000   -0.467000   -0.928000 C.3       1 MAIN        0.207900 
      5 C5         -0.303000   -0.431000    0.553000 C.3       1 MAIN        0.085500 
      6 C6         -0.630000   -1.846000    1.051000 C.3       1 MAIN        0.095400 
      7 C7          2.477000    1.685000    1.697000 C.3       1 MAIN        0.183800 
      8 O2          1.561000    3.009000   -0.951000 O.3       1 MAIN       -0.626000 
      9 O3          0.585000    1.025000   -2.817000 O.3       1 MAIN       -0.665300 
     10 O4         -0.903000   -1.155000   -1.680000 O.3       1 MAIN       -0.654500 
     11 O5          0.742000    0.160000    1.332000 O.3       1 MAIN       -0.349200 
     12 O6          0.286000   -2.796000    0.508000 O.3       1 MAIN       -0.670800 
     13 H8          0.222000    2.487000    1.347000 O.3       1 MAIN       -0.641300 
     14 ****        2.245000    2.180000    3.034000 N.2       1 MAIN       -0.641500 
     15 N2          0.974559    2.560416    3.264171 N.2       1 MAIN        0.563400 
     16 N16        -0.152748    2.893743    3.449026 N.1       1 MAIN       -0.171700 
     17 H1          2.356171    1.113334   -0.820433 H         1 MAIN        0.143500 
     18 H2         -0.635769    1.524087   -1.244039 H         1 MAIN        0.110900 
     19 H3          1.038789   -1.011969   -1.032327 H         1 MAIN        0.129500 
     20 H4         -1.205103    0.189447    0.658974 H         1 MAIN        0.103700 
     21 H5         -1.651428   -2.111055    0.740509 H         1 MAIN        0.078300 
     22 H6         -0.563371   -1.866872    2.148770 H         1 MAIN        0.061300 
     23 H7          3.098155    2.409488    1.149956 H         1 MAIN        0.026200 
     24 H9          3.005027    0.721998    1.758558 H         1 MAIN        0.098800 
     25 H10         2.252416    3.401273   -0.430841 H         1 MAIN        0.415700 
     26 H11         0.706784    1.930285   -3.078012 H         1 MAIN        0.429400 
     27 H12        -0.651026   -1.171881   -2.595819 H         1 MAIN        0.428400 
     28 H13         0.068114   -3.663966    0.826844 H         1 MAIN        0.432800 
     29 H14         0.531568    3.341332    1.069900 H         1 MAIN        0.437900 
@<TRIPOS>BOND
     1    1   11 1    
     2    1    2 1    
     3    7    1 1    
     4    1   13 1    
     5   14   15 2    
     6    2    8 1    
     7    2    3 1    
     8   15   16 3    
     9    3    9 1    
    10    3    4 1    
    11    7   14 1    
    12    4   10 1    
    13    4    5 1    
    14    5   11 1    
    15    5    6 1    
    16    6   12 1    
    17    2   17 1    
    18    3   18 1    
    19    4   19 1    
    20    5   20 1    
    21    6   21 1    
    22    6   22 1    
    23    7   23 1    
    24    7   24 1    
    25    8   25 1    
    26    9   26 1    
    27   10   27 1    
    28   12   28 1    
    29   13   29 1    
@<TRIPOS>SUBSTRUCTURE
     1 MAIN        1 PERM              0 ****  ****    0 ROOT 
