#	Name:			9
#	Creating user name:	jeff
#	Creation time:		Tue Feb 17 18:13:41 2004

#	Modifying user name:	jeff
#	Modification time:	Tue Feb 17 18:13:41 2004

@<TRIPOS>MOLECULE
9
   27    27     1     0     0
SMALL
USER_CHARGES


@<TRIPOS>ATOM
      1 C1          1.093000    1.084000    1.000000 C.3       1 MAIN       -0.095800 
      2 C2          1.177000    1.495000   -0.501000 C.3       1 MAIN        0.217800 
      3 C3          0.114000    0.782000   -1.372000 C.3       1 MAIN        0.066400 
      4 C4          0.013000   -0.710000   -0.999000 C.3       1 MAIN        0.424500 
      5 C5         -0.104000   -0.847000    0.523000 C.3       1 MAIN        0.161900 
      6 C6         -0.416000   -2.281000    0.953000 C.3       1 MAIN        0.052800 
      7 O1         -0.097000    3.080000    1.732000 O.3       1 MAIN       -0.699800 
      8 O2          1.127000    2.920000   -0.673000 O.3       1 MAIN       -0.708800 
      9 O3          0.396000    0.953000   -2.769000 O.3       1 MAIN       -0.710800 
     10 O4         -1.101000   -1.333000   -1.623000 O.3       1 MAIN       -0.728300 
     11 O5          1.078000   -0.340000    1.139000 O.3       1 MAIN       -0.453800 
     12 O6          0.494000   -3.185000    0.341000 O.3       1 MAIN       -0.652100 
     13 H1         -0.135000    1.667000    1.725000 C.3       1 MAIN        0.307200 
     14 H2          1.993878    1.470942    1.498668 H         1 MAIN        0.169800 
     15 H3          2.160648    1.163247   -0.864802 H         1 MAIN        0.099200 
     16 H4         -0.860843    1.247981   -1.165800 H         1 MAIN        0.069100 
     17 H5          0.929598   -1.217522   -1.334029 H         1 MAIN        0.055500 
     18 H6         -0.946285   -0.220210    0.851124 H         1 MAIN        0.038200 
     19 H7         -1.441850   -2.536581    0.649216 H         1 MAIN        0.077000 
     20 H8         -0.326887   -2.360173    2.046510 H         1 MAIN        0.064800 
     21 H9         -0.862734    3.415113    2.183498 H         1 MAIN        0.432200 
     22 H10         1.788951    3.328212   -0.127396 H         1 MAIN        0.465000 
     23 H11         0.452506    1.879884   -2.969480 H         1 MAIN        0.461400 
     24 H12        -1.025179   -1.246172   -2.565980 H         1 MAIN        0.444100 
     25 H13         0.291451   -4.071916    0.614595 H         1 MAIN        0.428300 
     26 H14        -1.048102    1.334464    1.209598 H         1 MAIN       -0.003300 
     27 H15        -0.146281    1.302517    2.762786 H         1 MAIN        0.017500 
@<TRIPOS>BOND
     1    1   11 1    
     2   13    7 1    
     3    1    2 1    
     4    2    8 1    
     5    2    3 1    
     6    3    9 1    
     7    3    4 1    
     8    4   10 1    
     9    5    4 1    
    10   11    5 1    
    11    5    6 1    
    12    6   12 1    
    13    1   13 1    
    14    1   14 1    
    15    2   15 1    
    16    3   16 1    
    17    4   17 1    
    18    5   18 1    
    19    6   19 1    
    20    6   20 1    
    21    7   21 1    
    22    8   22 1    
    23    9   23 1    
    24   10   24 1    
    25   12   25 1    
    26   13   26 1    
    27   13   27 1    
@<TRIPOS>SUBSTRUCTURE
     1 MAIN        1 PERM              0 ****  ****    0 ROOT 
