#	Name:			1-1
#	Creating user name:	jeff
#	Creation time:		Fri Dec 13 09:43:11 2002

#	Modifying user name:	jeff
#	Modification time:	Fri Dec 13 09:43:13 2002

@<TRIPOS>MOLECULE
1-1
   39    41     1     0     1
SMALL
USER_CHARGES
****
From 3DB ct
@<TRIPOS>ATOM
      1 C          27.705000   22.040000   17.024000 C.ar      1 <1>         0.195200 
      2 N          26.440000   22.098000   16.432000 N.pl3     1 <1>        -0.204000 
      3 C          25.538000   21.442000   17.283000 C.ar      1 <1>        -0.199900 
      4 C          26.253000   20.975000   18.375000 C.ar      1 <1>        -0.187900 
      5 H          25.831000   20.435000   19.216000 H         1 <1>         0.207400 
      6 C          27.594000   21.361000   18.222000 C.ar      1 <1>        -0.397700 
      7 H          28.410000   21.148000   18.904000 H         1 <1>         0.245500 
      8 C          24.082000   21.367000   17.108000 C.ar      1 <1>         0.303200 
      9 C          23.410000   22.267000   16.267000 C.ar      1 <1>        -0.251600 
     10 H          23.963000   23.030000   15.721000 H         1 <1>         0.186800 
     11 C          22.022000   22.201000   16.120000 C.ar      1 <1>        -0.031400 
     12 H          21.521000   22.904000   15.457000 H         1 <1>         0.191400 
     13 C          21.298000   21.241000   16.831000 C.ar      1 <1>        -0.513200 
     14 C          21.951000   20.340000   17.675000 C.ar      1 <1>        -0.046600 
     15 H          21.396000   19.586000   18.229000 H         1 <1>         0.187200 
     16 C          23.340000   20.412000   17.817000 C.ar      1 <1>        -0.234400 
     17 H          23.840000   19.708000   18.482000 H         1 <1>         0.185800 
     18 S          19.533000   21.146000   16.631000 S.o2      1 <1>         2.200200 
     19 O          19.041000   22.485000   16.323000 O.2       1 <1>        -0.975700 
     20 O          18.987000   20.458000   17.797000 O.2       1 <1>        -0.975600 
     21 C          19.326000   20.115000   15.204000 C.3       1 <1>        -0.717500 
     22 H          18.256000   20.012000   15.013000 H         1 <1>         0.232500 
     23 H          19.763000   19.136000   15.405000 H         1 <1>         0.187700 
     24 H          19.811000   20.590000   14.349000 H         1 <1>         0.184700 
     25 C          26.132000   22.682000   15.163000 C.ar      1 <1>         0.218000 
     26 C          26.369000   24.046000   14.936000 C.ar      1 <1>        -0.153900 
     27 H          26.748000   24.696000   15.720000 H         1 <1>         0.196100 
     28 C          26.063000   24.612000   13.696000 C.ar      1 <1>        -0.352500 
     29 H          26.234000   25.670000   13.517000 H         1 <1>         0.232300 
     30 C          25.524000   23.818000   12.691000 C.ar      1 <1>         0.543700 
     31 C          25.282000   22.466000   12.901000 C.ar      1 <1>        -0.370000 
     32 H          24.866000   21.859000   12.102000 H         1 <1>         0.234600 
     33 C          25.585000   21.894000   14.139000 C.ar      1 <1>        -0.156600 
     34 H          25.419000   20.827000   14.270000 H         1 <1>         0.191800 
     35 F          25.231000   24.364000   11.503000 F         1 <1>        -0.360700 
     36 C          28.965000   22.544000   16.402000 C.3       1 <1>        -0.319500 
     37 H          29.834000   22.039000   16.840000 H         1 <1>         0.114200 
     38 H          29.087000   23.616000   16.586000 H         1 <1>         0.101200 
     39 H          28.995000   22.351000   15.326000 H         1 <1>         0.108900 
@<TRIPOS>BOND
     1    1    2 ar   
     2    2    3 ar   
     3    3    4 ar   
     4    4    5 1    
     5    4    6 ar   
     6    6    7 1    
     7    6    1 ar   
     8    3    8 1    
     9    8    9 ar   
    10    9   10 1    
    11    9   11 ar   
    12   11   12 1    
    13   11   13 ar   
    14   13   14 ar   
    15   14   15 1    
    16   14   16 ar   
    17   16   17 1    
    18   16    8 ar   
    19   13   18 1    
    20   18   19 2    
    21   18   20 2    
    22   18   21 1    
    23   21   22 1    
    24   21   23 1    
    25   21   24 1    
    26    2   25 1    
    27   25   26 ar   
    28   26   27 1    
    29   26   28 ar   
    30   28   29 1    
    31   28   30 ar   
    32   30   31 ar   
    33   31   32 1    
    34   31   33 ar   
    35   33   34 1    
    36   33   25 ar   
    37   30   35 1    
    38    1   36 1    
    39   36   37 1    
    40   36   38 1    
    41   36   39 1    
@<TRIPOS>SUBSTRUCTURE
     1 ****        1 TEMP              0 ****  ****    0 ROOT 
@<TRIPOS>SET
UNITY_3DHIT     STATIC     ATOMS    <user>   **** Atoms matching 3D or FLEX Search
0
