#	Name:			1-10
#	Creating user name:	jeff
#	Creation time:		Fri Dec 13 09:43:28 2002

#	Modifying user name:	jeff
#	Modification time:	Fri Dec 13 09:43:30 2002

@<TRIPOS>MOLECULE
1-10
   42    44     1     0     1
SMALL
USER_CHARGES
****
From 3DB ct
@<TRIPOS>ATOM
      1 N          26.449000   22.054000   16.413000 N.pl3     1 <1>        -0.174100 
      2 C          25.532000   21.543000   17.342000 C.ar      1 <1>        -0.183500 
      3 C          26.252000   21.035000   18.409000 C.ar      1 <1>        -0.209000 
      4 H          25.826000   20.549000   19.280000 H         1 <1>         0.207500 
      5 C          27.620000   21.221000   18.146000 C.ar      1 <1>        -0.325600 
      6 H          28.439000   20.930000   18.793000 H         1 <1>         0.228500 
      7 C          27.738000   21.881000   16.936000 C.ar      1 <1>         0.007800 
      8 C          28.991000   22.404000   16.281000 C.3       1 <1>         0.144900 
      9 H          28.769000   23.304000   15.698000 H         1 <1>         0.021100 
     10 H          29.382000   21.644000   15.596000 H         1 <1>         0.027100 
     11 C          30.084000   22.777000   17.276000 C.3       1 <1>        -0.265000 
     12 H          30.939000   23.212000   16.748000 H         1 <1>         0.061900 
     13 H          30.444000   21.900000   17.823000 H         1 <1>         0.078200 
     14 H          29.725000   23.512000   18.005000 H         1 <1>         0.073100 
     15 C          24.078000   21.448000   17.160000 C.ar      1 <1>         0.303900 
     16 C          23.406000   22.300000   16.271000 C.ar      1 <1>        -0.255500 
     17 H          23.955000   23.053000   15.707000 H         1 <1>         0.191300 
     18 C          22.024000   22.195000   16.094000 C.ar      1 <1>        -0.038800 
     19 H          21.521000   22.868000   15.403000 H         1 <1>         0.187400 
     20 C          21.309000   21.230000   16.807000 C.ar      1 <1>        -0.509800 
     21 C          21.967000   20.357000   17.677000 C.ar      1 <1>        -0.046800 
     22 H          21.419000   19.594000   18.226000 H         1 <1>         0.192200 
     23 C          23.350000   20.469000   17.850000 C.ar      1 <1>        -0.232700 
     24 H          23.854000   19.788000   18.534000 H         1 <1>         0.187300 
     25 S          19.552000   21.079000   16.574000 S.o2      1 <1>         2.198400 
     26 O          19.025000   22.405000   16.270000 O.2       1 <1>        -0.974900 
     27 O          19.005000   20.361000   17.721000 O.2       1 <1>        -0.976000 
     28 C          19.407000   20.055000   15.133000 C.3       1 <1>        -0.714000 
     29 H          18.344000   19.909000   14.927000 H         1 <1>         0.231800 
     30 H          19.882000   19.093000   15.331000 H         1 <1>         0.185700 
     31 H          19.883000   20.558000   14.289000 H         1 <1>         0.185500 
     32 C          26.125000   22.667000   15.163000 C.ar      1 <1>         0.212000 
     33 C          25.544000   21.908000   14.136000 C.ar      1 <1>        -0.155900 
     34 H          25.300000   20.857000   14.276000 H         1 <1>         0.189100 
     35 C          25.217000   22.512000   12.920000 C.ar      1 <1>        -0.363100 
     36 H          24.759000   21.932000   12.123000 H         1 <1>         0.231600 
     37 C          25.469000   23.866000   12.735000 C.ar      1 <1>         0.544000 
     38 C          26.043000   24.631000   13.743000 C.ar      1 <1>        -0.341600 
     39 H          26.238000   25.687000   13.578000 H         1 <1>         0.231100 
     40 C          26.372000   24.034000   14.962000 C.ar      1 <1>        -0.183600 
     41 H          26.850000   24.643000   15.726000 H         1 <1>         0.191400 
     42 F          25.153000   24.442000   11.568000 F         1 <1>        -0.363100 
@<TRIPOS>BOND
     1    1    2 ar   
     2    2    3 ar   
     3    3    4 1    
     4    3    5 ar   
     5    5    6 1    
     6    5    7 ar   
     7    7    1 ar   
     8    7    8 1    
     9    8    9 1    
    10    8   10 1    
    11    8   11 1    
    12   11   12 1    
    13   11   13 1    
    14   11   14 1    
    15    2   15 1    
    16   15   16 ar   
    17   16   17 1    
    18   16   18 ar   
    19   18   19 1    
    20   18   20 ar   
    21   20   21 ar   
    22   21   22 1    
    23   21   23 ar   
    24   23   24 1    
    25   23   15 ar   
    26   20   25 1    
    27   25   26 2    
    28   25   27 2    
    29   25   28 1    
    30   28   29 1    
    31   28   30 1    
    32   28   31 1    
    33    1   32 1    
    34   32   33 ar   
    35   33   34 1    
    36   33   35 ar   
    37   35   36 1    
    38   35   37 ar   
    39   37   38 ar   
    40   38   39 1    
    41   38   40 ar   
    42   40   41 1    
    43   40   32 ar   
    44   37   42 1    
@<TRIPOS>SUBSTRUCTURE
     1 ****        1 TEMP              0 ****  ****    0 ROOT 
@<TRIPOS>SET
UNITY_3DHIT     STATIC     ATOMS    <user>   **** Atoms matching 3D or FLEX Search
0
