#	Name:			1-16
#	Creating user name:	jeff
#	Creation time:		Fri Dec 13 09:43:30 2002

#	Modifying user name:	jeff
#	Modification time:	Fri Dec 13 09:43:33 2002

@<TRIPOS>MOLECULE
1-16
   42    44     1     0     1
SMALL
USER_CHARGES
****
From 3DB ct
@<TRIPOS>ATOM
      1 N          26.419000   22.034000   16.389000 N.pl3     1 <1>         0.021700 
      2 C          25.501000   21.564000   17.339000 C.ar      1 <1>        -0.260400 
      3 C          26.223000   21.152000   18.452000 C.ar      1 <1>        -0.159800 
      4 H          25.793000   20.741000   19.359000 H         1 <1>         0.200600 
      5 C          27.593000   21.291000   18.172000 C.ar      1 <1>        -0.284300 
      6 H          28.425000   21.039000   18.820000 H         1 <1>         0.223600 
      7 C          27.689000   21.800000   16.899000 C.ar      1 <1>        -0.240900 
      8 H          28.575000   22.070000   16.340000 H         1 <1>         0.251100 
      9 C          24.053000   21.420000   17.159000 C.ar      1 <1>         0.286200 
     10 C          23.338000   20.441000   17.864000 C.ar      1 <1>        -0.216900 
     11 H          23.853000   19.766000   18.547000 H         1 <1>         0.181000 
     12 C          21.955000   20.316000   17.702000 C.ar      1 <1>        -0.067200 
     13 H          21.420000   19.546000   18.254000 H         1 <1>         0.186600 
     14 C          21.282000   21.178000   16.833000 C.ar      1 <1>        -0.484800 
     15 C          21.976000   22.176000   16.144000 C.ar      1 <1>        -0.053000 
     16 H          21.458000   22.861000   15.477000 H         1 <1>         0.196400 
     17 C          23.359000   22.295000   16.311000 C.ar      1 <1>        -0.225600 
     18 H          23.893000   23.073000   15.766000 H         1 <1>         0.189300 
     19 S          19.520000   21.035000   16.636000 S.o2      1 <1>         2.182100 
     20 O          18.993000   22.364000   16.342000 O.2       1 <1>        -0.967600 
     21 O          18.994000   20.320000   17.794000 O.2       1 <1>        -0.970400 
     22 C          19.341000   20.012000   15.199000 C.3       1 <1>        -0.720400 
     23 H          18.274000   19.878000   15.009000 H         1 <1>         0.235300 
     24 H          19.810000   19.045000   15.390000 H         1 <1>         0.188800 
     25 H          19.810000   20.510000   14.347000 H         1 <1>         0.185100 
     26 C          26.168000   22.672000   15.129000 C.ar      1 <1>         0.170200 
     27 C          26.424000   24.044000   14.975000 C.ar      1 <1>        -0.138800 
     28 H          26.855000   24.632000   15.782000 H         1 <1>         0.206500 
     29 C          26.164000   24.672000   13.750000 C.ar      1 <1>        -0.467600 
     30 C          25.656000   23.949000   12.670000 C.ar      1 <1>        -0.046600 
     31 H          25.457000   24.430000   11.714000 H         1 <1>         0.190100 
     32 C          25.386000   22.591000   12.825000 C.ar      1 <1>        -0.149100 
     33 H          24.970000   22.022000   11.995000 H         1 <1>         0.176700 
     34 C          25.635000   21.957000   14.047000 C.ar      1 <1>        -0.153300 
     35 H          25.358000   20.910000   14.130000 H         1 <1>         0.174700 
     36 S          26.529000   26.403000   13.559000 S.o2      1 <1>         2.184600 
     37 O          26.592000   27.001000   14.889000 O.2       1 <1>        -0.963800 
     38 O          25.582000   26.954000   12.595000 O.2       1 <1>        -0.965100 
     39 C          28.153000   26.414000   12.848000 C.3       1 <1>        -0.704200 
     40 H          28.451000   27.454000   12.699000 H         1 <1>         0.234300 
     41 H          28.126000   25.895000   11.889000 H         1 <1>         0.185500 
     42 H          28.845000   25.924000   13.536000 H         1 <1>         0.189200 
@<TRIPOS>BOND
     1    1    2 ar   
     2    2    3 ar   
     3    3    4 1    
     4    3    5 ar   
     5    5    6 1    
     6    5    7 ar   
     7    7    8 1    
     8    7    1 ar   
     9    2    9 1    
    10    9   10 ar   
    11   10   11 1    
    12   10   12 ar   
    13   12   13 1    
    14   12   14 ar   
    15   14   15 ar   
    16   15   16 1    
    17   15   17 ar   
    18   17   18 1    
    19   17    9 ar   
    20   14   19 1    
    21   19   20 2    
    22   19   21 2    
    23   19   22 1    
    24   22   23 1    
    25   22   24 1    
    26   22   25 1    
    27    1   26 1    
    28   26   27 ar   
    29   27   28 1    
    30   27   29 ar   
    31   29   30 ar   
    32   30   31 1    
    33   30   32 ar   
    34   32   33 1    
    35   32   34 ar   
    36   34   35 1    
    37   34   26 ar   
    38   29   36 1    
    39   36   37 2    
    40   36   38 2    
    41   36   39 1    
    42   39   40 1    
    43   39   41 1    
    44   39   42 1    
@<TRIPOS>SUBSTRUCTURE
     1 ****        1 TEMP              0 ****  ****    0 ROOT 
@<TRIPOS>SET
UNITY_3DHIT     STATIC     ATOMS    <user>   **** Atoms matching 3D or FLEX Search
0
