#	Name:			1-17
#	Creating user name:	jeff
#	Creation time:		Fri Dec 13 09:43:33 2002

#	Modifying user name:	jeff
#	Modification time:	Fri Dec 13 09:43:35 2002

@<TRIPOS>MOLECULE
1-17
   45    47     1     0     1
SMALL
USER_CHARGES
****
From 3DB ct
@<TRIPOS>ATOM
      1 N          26.413000   22.040000   16.390000 N.pl3     1 <1>        -0.034500 
      2 C          25.498000   21.562000   17.338000 C.ar      1 <1>        -0.221000 
      3 C          26.224000   21.143000   18.447000 C.ar      1 <1>        -0.184300 
      4 H          25.797000   20.726000   19.352000 H         1 <1>         0.205000 
      5 C          27.593000   21.283000   18.162000 C.ar      1 <1>        -0.253600 
      6 H          28.427000   21.027000   18.805000 H         1 <1>         0.217900 
      7 C          27.684000   21.799000   16.891000 C.ar      1 <1>        -0.248000 
      8 H          28.568000   22.071000   16.329000 H         1 <1>         0.246900 
      9 C          24.049000   21.417000   17.159000 C.ar      1 <1>         0.279500 
     10 C          23.335000   20.437000   17.864000 C.ar      1 <1>        -0.226200 
     11 H          23.851000   19.764000   18.548000 H         1 <1>         0.184600 
     12 C          21.952000   20.312000   17.705000 C.ar      1 <1>        -0.055300 
     13 H          21.418000   19.543000   18.259000 H         1 <1>         0.188200 
     14 C          21.278000   21.175000   16.838000 C.ar      1 <1>        -0.494400 
     15 C          21.971000   22.173000   16.148000 C.ar      1 <1>        -0.039600 
     16 H          21.451000   22.858000   15.482000 H         1 <1>         0.192500 
     17 C          23.354000   22.292000   16.311000 C.ar      1 <1>        -0.231100 
     18 H          23.887000   23.070000   15.767000 H         1 <1>         0.189400 
     19 S          19.515000   21.035000   16.645000 S.o2      1 <1>         2.181400 
     20 O          18.989000   22.365000   16.353000 O.2       1 <1>        -0.968900 
     21 O          18.991000   20.321000   17.805000 O.2       1 <1>        -0.972000 
     22 C          19.332000   20.014000   15.208000 C.3       1 <1>        -0.717200 
     23 H          18.264000   19.883000   15.019000 H         1 <1>         0.234300 
     24 H          19.798000   19.045000   15.398000 H         1 <1>         0.189900 
     25 H          19.801000   20.510000   14.356000 H         1 <1>         0.192600 
     26 C          26.157000   22.691000   15.139000 C.ar      1 <1>         0.359300 
     27 C          25.661000   21.949000   14.053000 C.ar      1 <1>        -0.334800 
     28 H          25.426000   20.890000   14.142000 H         1 <1>         0.195000 
     29 C          25.409000   22.568000   12.823000 C.ar      1 <1>         0.071500 
     30 H          25.013000   21.976000   12.001000 H         1 <1>         0.181500 
     31 C          25.659000   23.932000   12.672000 C.ar      1 <1>        -0.602000 
     32 C          26.179000   24.677000   13.732000 C.ar      1 <1>         0.035500 
     33 H          26.403000   25.735000   13.615000 H         1 <1>         0.178100 
     34 C          26.427000   24.056000   14.962000 C.ar      1 <1>        -0.325600 
     35 H          26.875000   24.658000   15.747000 H         1 <1>         0.207000 
     36 S          25.359000   24.724000   11.105000 S.o2      1 <1>         2.129200 
     37 O          25.264000   26.160000   11.345000 O.2       1 <1>        -0.950200 
     38 O          24.227000   24.044000   10.483000 O.2       1 <1>        -0.959600 
     39 C          26.844000   24.379000   10.179000 C.3       1 <1>        -0.389300 
     40 H          26.952000   23.292000   10.119000 H         1 <1>         0.113200 
     41 H          27.687000   24.795000   10.738000 H         1 <1>         0.119600 
     42 C          26.790000   24.979000    8.788000 C.3       1 <1>        -0.075500 
     43 H          27.708000   24.749000    8.238000 H         1 <1>         0.065400 
     44 H          26.681000   26.067000    8.833000 H         1 <1>         0.061100 
     45 H          25.942000   24.582000    8.220000 H         1 <1>         0.064400 
@<TRIPOS>BOND
     1    1    2 ar   
     2    2    3 ar   
     3    3    4 1    
     4    3    5 ar   
     5    5    6 1    
     6    5    7 ar   
     7    7    8 1    
     8    7    1 ar   
     9    2    9 1    
    10    9   10 ar   
    11   10   11 1    
    12   10   12 ar   
    13   12   13 1    
    14   12   14 ar   
    15   14   15 ar   
    16   15   16 1    
    17   15   17 ar   
    18   17   18 1    
    19   17    9 ar   
    20   14   19 1    
    21   19   20 2    
    22   19   21 2    
    23   19   22 1    
    24   22   23 1    
    25   22   24 1    
    26   22   25 1    
    27    1   26 1    
    28   26   27 ar   
    29   27   28 1    
    30   27   29 ar   
    31   29   30 1    
    32   29   31 ar   
    33   31   32 ar   
    34   32   33 1    
    35   32   34 ar   
    36   34   35 1    
    37   34   26 ar   
    38   31   36 1    
    39   36   37 2    
    40   36   38 2    
    41   36   39 1    
    42   39   40 1    
    43   39   41 1    
    44   39   42 1    
    45   42   43 1    
    46   42   44 1    
    47   42   45 1    
@<TRIPOS>SUBSTRUCTURE
     1 ****        1 TEMP              0 ****  ****    0 ROOT 
@<TRIPOS>SET
UNITY_3DHIT     STATIC     ATOMS    <user>   **** Atoms matching 3D or FLEX Search
0
