#	Name:			1-19
#	Creating user name:	jeff
#	Creation time:		Fri Dec 13 09:43:35 2002

#	Modifying user name:	jeff
#	Modification time:	Fri Dec 13 09:43:38 2002

@<TRIPOS>MOLECULE
1-19
   42    44     1     0     1
SMALL
USER_CHARGES
****
From 3DB ct
@<TRIPOS>ATOM
      1 N          26.418000   22.032000   16.388000 N.pl3     1 <1>        -0.078600 
      2 C          25.500000   21.564000   17.339000 C.ar      1 <1>        -0.196500 
      3 C          26.222000   21.157000   18.454000 C.ar      1 <1>        -0.170200 
      4 H          25.792000   20.749000   19.362000 H         1 <1>         0.205000 
      5 C          27.592000   21.297000   18.173000 C.ar      1 <1>        -0.280100 
      6 H          28.423000   21.049000   18.824000 H         1 <1>         0.225000 
      7 C          27.688000   21.801000   16.899000 C.ar      1 <1>        -0.200700 
      8 H          28.574000   22.070000   16.340000 H         1 <1>         0.242000 
      9 C          24.052000   21.417000   17.158000 C.ar      1 <1>         0.267400 
     10 C          23.338000   20.437000   17.862000 C.ar      1 <1>        -0.234100 
     11 H          23.853000   19.763000   18.546000 H         1 <1>         0.183900 
     12 C          21.955000   20.312000   17.701000 C.ar      1 <1>        -0.038700 
     13 H          21.421000   19.541000   18.254000 H         1 <1>         0.187500 
     14 C          21.280000   21.175000   16.835000 C.ar      1 <1>        -0.506200 
     15 C          21.974000   22.173000   16.146000 C.ar      1 <1>        -0.038300 
     16 H          21.454000   22.859000   15.480000 H         1 <1>         0.193100 
     17 C          23.357000   22.292000   16.310000 C.ar      1 <1>        -0.233000 
     18 H          23.890000   23.070000   15.765000 H         1 <1>         0.192400 
     19 S          19.518000   21.037000   16.641000 S.o2      1 <1>         2.188400 
     20 O          18.995000   22.368000   16.351000 O.2       1 <1>        -0.967900 
     21 O          18.991000   20.322000   17.799000 O.2       1 <1>        -0.972300 
     22 C          19.332000   20.017000   15.203000 C.3       1 <1>        -0.716700 
     23 H          18.264000   19.880000   15.021000 H         1 <1>         0.235400 
     24 H          19.803000   19.050000   15.389000 H         1 <1>         0.191000 
     25 H          19.793000   20.517000   14.349000 H         1 <1>         0.191100 
     26 C          26.167000   22.666000   15.127000 C.ar      1 <1>         0.254300 
     27 C          26.420000   24.038000   14.968000 C.ar      1 <1>         0.040400 
     28 H          26.849000   24.622000   15.780000 H         1 <1>         0.111000 
     29 C          26.173000   24.686000   13.746000 C.ar      1 <1>        -0.484100 
     30 C          25.653000   23.960000   12.673000 C.ar      1 <1>        -0.179600 
     31 C          25.388000   22.592000   12.829000 C.ar      1 <1>        -0.128300 
     32 H          24.973000   22.004000   12.012000 H         1 <1>         0.218100 
     33 C          25.637000   21.952000   14.048000 C.ar      1 <1>        -0.199200 
     34 H          25.363000   20.904000   14.129000 H         1 <1>         0.185800 
     35 S          25.326000   24.705000   11.094000 S.o2      1 <1>         2.164900 
     36 O          25.583000   26.138000   11.212000 O.2       1 <1>        -0.969400 
     37 O          23.999000   24.292000   10.654000 O.2       1 <1>        -0.981600 
     38 C          26.557000   24.035000   10.006000 C.3       1 <1>        -0.708600 
     39 H          26.448000   24.525000    9.036000 H         1 <1>         0.249100 
     40 H          26.412000   22.962000    9.889000 H         1 <1>         0.173300 
     41 H          27.545000   24.251000   10.417000 H         1 <1>         0.193200 
     42 Cl         26.546000   26.373000   13.686000 Cl        1 <1>         0.191700 
@<TRIPOS>BOND
     1    1    2 ar   
     2    2    3 ar   
     3    3    4 1    
     4    3    5 ar   
     5    5    6 1    
     6    5    7 ar   
     7    7    8 1    
     8    7    1 ar   
     9    2    9 1    
    10    9   10 ar   
    11   10   11 1    
    12   10   12 ar   
    13   12   13 1    
    14   12   14 ar   
    15   14   15 ar   
    16   15   16 1    
    17   15   17 ar   
    18   17   18 1    
    19   17    9 ar   
    20   14   19 1    
    21   19   20 2    
    22   19   21 2    
    23   19   22 1    
    24   22   23 1    
    25   22   24 1    
    26   22   25 1    
    27    1   26 1    
    28   26   27 ar   
    29   27   28 1    
    30   27   29 ar   
    31   29   30 ar   
    32   30   31 ar   
    33   31   32 1    
    34   31   33 ar   
    35   33   34 1    
    36   33   26 ar   
    37   30   35 1    
    38   35   36 2    
    39   35   37 2    
    40   35   38 1    
    41   38   39 1    
    42   38   40 1    
    43   38   41 1    
    44   29   42 1    
@<TRIPOS>SUBSTRUCTURE
     1 ****        1 TEMP              0 ****  ****    0 ROOT 
@<TRIPOS>SET
UNITY_3DHIT     STATIC     ATOMS    <user>   **** Atoms matching 3D or FLEX Search
0
