#	Name:			1-20
#	Creating user name:	jeff
#	Creation time:		Fri Dec 13 09:43:38 2002

#	Modifying user name:	jeff
#	Modification time:	Fri Dec 13 09:43:39 2002

@<TRIPOS>MOLECULE
1-20
   35    37     1     0     1
SMALL
USER_CHARGES
****
From 3DB ct
@<TRIPOS>ATOM
      1 N          25.485000   21.554000   17.308000 N.pl3     1 <1>        -0.100200 
      2 C          26.442000   21.996000   16.383000 C.ar      1 <1>        -0.083700 
      3 C          27.695000   21.784000   16.944000 C.ar      1 <1>        -0.217400 
      4 H          28.641000   22.020000   16.469000 H         1 <1>         0.205800 
      5 C          27.522000   21.287000   18.248000 C.ar      1 <1>        -0.264300 
      6 H          28.297000   21.036000   18.963000 H         1 <1>         0.218300 
      7 C          26.168000   21.188000   18.459000 C.ar      1 <1>        -0.248000 
      8 H          25.640000   20.822000   19.330000 H         1 <1>         0.250400 
      9 C          26.179000   22.669000   15.107000 C.ar      1 <1>        -0.017900 
     10 C          25.625000   21.966000   14.027000 C.ar      1 <1>        -0.060100 
     11 H          25.395000   20.905000   14.117000 H         1 <1>         0.172800 
     12 C          25.357000   22.618000   12.822000 C.ar      1 <1>        -0.427100 
     13 H          24.933000   22.073000   11.983000 H         1 <1>         0.232600 
     14 C          25.632000   23.975000   12.701000 C.ar      1 <1>         0.603300 
     15 C          26.167000   24.693000   13.763000 C.ar      1 <1>        -0.433200 
     16 H          26.372000   25.754000   13.653000 H         1 <1>         0.235100 
     17 C          26.436000   24.042000   14.969000 C.ar      1 <1>        -0.030100 
     18 H          26.855000   24.611000   15.798000 H         1 <1>         0.163700 
     19 F          25.373000   24.600000   11.545000 F         1 <1>        -0.371400 
     20 C          24.064000   21.443000   17.151000 C.ar      1 <1>         0.453500 
     21 C          23.358000   20.451000   17.854000 C.ar      1 <1>        -0.387000 
     22 H          23.854000   19.783000   18.555000 H         1 <1>         0.211600 
     23 C          21.973000   20.324000   17.704000 C.ar      1 <1>         0.106500 
     24 H          21.440000   19.559000   18.266000 H         1 <1>         0.183200 
     25 C          21.287000   21.176000   16.837000 C.ar      1 <1>        -0.655700 
     26 C          21.976000   22.159000   16.125000 C.ar      1 <1>         0.098600 
     27 H          21.453000   22.822000   15.440000 H         1 <1>         0.188200 
     28 C          23.362000   22.287000   16.279000 C.ar      1 <1>        -0.361800 
     29 H          23.866000   23.028000   15.665000 H         1 <1>         0.205500 
     30 S          19.530000   21.022000   16.674000 S.o2      1 <1>         2.467300 
     31 O          18.953000   22.325000   16.392000 O.2       1 <1>        -1.000800 
     32 O          19.023000   20.214000   17.769000 O.2       1 <1>        -0.999600 
     33 N          19.383000   20.114000   15.275000 N.pl3     1 <1>        -1.300800 
     34 H          18.890000   20.636000   14.546000 H         1 <1>         0.481800 
     35 H          18.929000   19.217000   15.463000 H         1 <1>         0.481100 
@<TRIPOS>BOND
     1    1    2 ar   
     2    2    3 ar   
     3    3    4 1    
     4    3    5 ar   
     5    5    6 1    
     6    5    7 ar   
     7    7    8 1    
     8    7    1 ar   
     9    2    9 1    
    10    9   10 ar   
    11   10   11 1    
    12   10   12 ar   
    13   12   13 1    
    14   12   14 ar   
    15   14   15 ar   
    16   15   16 1    
    17   15   17 ar   
    18   17   18 1    
    19   17    9 ar   
    20   14   19 1    
    21    1   20 1    
    22   20   21 ar   
    23   21   22 1    
    24   21   23 ar   
    25   23   24 1    
    26   23   25 ar   
    27   25   26 ar   
    28   26   27 1    
    29   26   28 ar   
    30   28   29 1    
    31   28   20 ar   
    32   25   30 1    
    33   30   31 2    
    34   30   32 2    
    35   30   33 1    
    36   33   34 1    
    37   33   35 1    
@<TRIPOS>SUBSTRUCTURE
     1 ****        1 TEMP              0 ****  ****    0 ROOT 
@<TRIPOS>SET
UNITY_3DHIT     STATIC     ATOMS    <user>   **** Atoms matching 3D or FLEX Search
0
