#	Name:			1-21
#	Creating user name:	jeff
#	Creation time:		Fri Dec 13 09:43:40 2002

#	Modifying user name:	jeff
#	Modification time:	Fri Dec 13 09:43:42 2002

@<TRIPOS>MOLECULE
1-21
   44    46     1     0     1
SMALL
USER_CHARGES
****
From 3DB ct
@<TRIPOS>ATOM
      1 N          26.413000   22.040000   16.390000 N.pl3     1 <1>        -0.025300 
      2 C          25.498000   21.564000   17.339000 C.ar      1 <1>        -0.228500 
      3 C          26.224000   21.145000   18.447000 C.ar      1 <1>        -0.158500 
      4 H          25.796000   20.728000   19.353000 H         1 <1>         0.201800 
      5 C          27.593000   21.282000   18.162000 C.ar      1 <1>        -0.285100 
      6 H          28.427000   21.025000   18.806000 H         1 <1>         0.225000 
      7 C          27.685000   21.797000   16.891000 C.ar      1 <1>        -0.226400 
      8 H          28.568000   22.067000   16.327000 H         1 <1>         0.246500 
      9 C          24.050000   21.418000   17.158000 C.ar      1 <1>         0.264500 
     10 C          23.336000   20.437000   17.863000 C.ar      1 <1>        -0.220200 
     11 H          23.851000   19.763000   18.545000 H         1 <1>         0.181500 
     12 C          21.953000   20.312000   17.703000 C.ar      1 <1>        -0.051700 
     13 H          21.419000   19.543000   18.256000 H         1 <1>         0.186400 
     14 C          21.279000   21.176000   16.837000 C.ar      1 <1>        -0.491900 
     15 C          21.973000   22.173000   16.146000 C.ar      1 <1>        -0.054300 
     16 H          21.453000   22.858000   15.479000 H         1 <1>         0.197300 
     17 C          23.356000   22.292000   16.310000 C.ar      1 <1>        -0.223700 
     18 H          23.889000   23.069000   15.764000 H         1 <1>         0.184500 
     19 S          19.517000   21.036000   16.645000 S.o2      1 <1>         2.195600 
     20 O          18.990000   22.365000   16.354000 O.2       1 <1>        -0.971800 
     21 O          18.994000   20.321000   17.806000 O.2       1 <1>        -0.975800 
     22 C          19.333000   20.014000   15.208000 C.3       1 <1>        -0.719500 
     23 H          18.265000   19.886000   15.018000 H         1 <1>         0.234700 
     24 H          19.796000   19.044000   15.399000 H         1 <1>         0.188200 
     25 H          19.804000   20.509000   14.357000 H         1 <1>         0.190600 
     26 C          26.156000   22.690000   15.139000 C.ar      1 <1>         0.298000 
     27 C          25.658000   21.948000   14.054000 C.ar      1 <1>        -0.263100 
     28 H          25.422000   20.890000   14.143000 H         1 <1>         0.191200 
     29 C          25.403000   22.569000   12.825000 C.ar      1 <1>        -0.048000 
     30 H          25.001000   21.979000   12.004000 H         1 <1>         0.197700 
     31 C          25.654000   23.933000   12.674000 C.ar      1 <1>        -0.415500 
     32 C          26.177000   24.676000   13.735000 C.ar      1 <1>        -0.069700 
     33 H          26.398000   25.735000   13.616000 H         1 <1>         0.211400 
     34 C          26.427000   24.055000   14.963000 C.ar      1 <1>        -0.266300 
     35 H          26.876000   24.657000   15.748000 H         1 <1>         0.197800 
     36 S          25.342000   24.735000   11.124000 S.o2      1 <1>         2.228200 
     37 O          25.567000   26.164000   11.270000 O.2       1 <1>        -0.886400 
     38 O          24.072000   24.256000   10.604000 O.2       1 <1>        -0.927600 
     39 N          26.549000   24.133000   10.113000 N.pl3     1 <1>        -1.055700 
     40 H          26.335000   23.185000    9.788000 H         1 <1>         0.465400 
     41 C          27.948000   24.335000   10.511000 C.3       1 <1>         0.087200 
     42 H          28.229000   23.634000   11.301000 H         1 <1>         0.022800 
     43 H          28.127000   25.363000   10.837000 H         1 <1>         0.092900 
     44 H          28.588000   24.141000    9.645000 H         1 <1>         0.075500 
@<TRIPOS>BOND
     1    1    2 ar   
     2    2    3 ar   
     3    3    4 1    
     4    3    5 ar   
     5    5    6 1    
     6    5    7 ar   
     7    7    8 1    
     8    7    1 ar   
     9    2    9 1    
    10    9   10 ar   
    11   10   11 1    
    12   10   12 ar   
    13   12   13 1    
    14   12   14 ar   
    15   14   15 ar   
    16   15   16 1    
    17   15   17 ar   
    18   17   18 1    
    19   17    9 ar   
    20   14   19 1    
    21   19   20 2    
    22   19   21 2    
    23   19   22 1    
    24   22   23 1    
    25   22   24 1    
    26   22   25 1    
    27    1   26 1    
    28   26   27 ar   
    29   27   28 1    
    30   27   29 ar   
    31   29   30 1    
    32   29   31 ar   
    33   31   32 ar   
    34   32   33 1    
    35   32   34 ar   
    36   34   35 1    
    37   34   26 ar   
    38   31   36 1    
    39   36   37 2    
    40   36   38 2    
    41   36   39 1    
    42   39   40 1    
    43   39   41 1    
    44   41   42 1    
    45   41   43 1    
    46   41   44 1    
@<TRIPOS>SUBSTRUCTURE
     1 ****        1 TEMP              0 ****  ****    0 ROOT 
@<TRIPOS>SET
UNITY_3DHIT     STATIC     ATOMS    <user>   **** Atoms matching 3D or FLEX Search
0
