#	Name:			1-22
#	Creating user name:	jeff
#	Creation time:		Fri Dec 13 09:43:42 2002

#	Modifying user name:	jeff
#	Modification time:	Fri Dec 13 09:43:45 2002

@<TRIPOS>MOLECULE
1-22
   47    49     1     0     1
SMALL
USER_CHARGES
****
From 3DB ct
@<TRIPOS>ATOM
      1 N          26.415000   22.037000   16.390000 N.pl3     1 <1>        -0.010900 
      2 C          25.500000   21.567000   17.343000 C.ar      1 <1>        -0.240600 
      3 C          26.227000   21.145000   18.449000 C.ar      1 <1>        -0.159600 
      4 H          25.801000   20.732000   19.356000 H         1 <1>         0.198700 
      5 C          27.597000   21.274000   18.157000 C.ar      1 <1>        -0.274100 
      6 H          28.432000   21.012000   18.796000 H         1 <1>         0.221500 
      7 C          27.686000   21.784000   16.884000 C.ar      1 <1>        -0.239800 
      8 H          28.569000   22.045000   16.314000 H         1 <1>         0.248200 
      9 C          24.050000   21.428000   17.163000 C.ar      1 <1>         0.280500 
     10 C          23.335000   20.450000   17.869000 C.ar      1 <1>        -0.211100 
     11 H          23.848000   19.777000   18.555000 H         1 <1>         0.178900 
     12 C          21.952000   20.324000   17.704000 C.ar      1 <1>        -0.070400 
     13 H          21.415000   19.557000   18.259000 H         1 <1>         0.188600 
     14 C          21.281000   21.183000   16.831000 C.ar      1 <1>        -0.489000 
     15 C          21.975000   22.180000   16.141000 C.ar      1 <1>        -0.047300 
     16 H          21.459000   22.862000   15.470000 H         1 <1>         0.196900 
     17 C          23.358000   22.301000   16.311000 C.ar      1 <1>        -0.227000 
     18 H          23.892000   23.077000   15.765000 H         1 <1>         0.184500 
     19 S          19.521000   21.021000   16.637000 S.o2      1 <1>         2.196100 
     20 O          18.972000   22.339000   16.334000 O.2       1 <1>        -0.971900 
     21 O          19.012000   20.308000   17.805000 O.2       1 <1>        -0.975900 
     22 C          19.348000   19.990000   15.205000 C.3       1 <1>        -0.716300 
     23 H          18.282000   19.856000   15.012000 H         1 <1>         0.234200 
     24 H          19.814000   19.023000   15.402000 H         1 <1>         0.188800 
     25 H          19.821000   20.483000   14.354000 H         1 <1>         0.187800 
     26 C          26.154000   22.687000   15.140000 C.ar      1 <1>         0.302200 
     27 C          25.651000   21.949000   14.056000 C.ar      1 <1>        -0.276500 
     28 H          25.417000   20.890000   14.143000 H         1 <1>         0.188100 
     29 C          25.390000   22.573000   12.831000 C.ar      1 <1>        -0.044700 
     30 H          24.991000   21.984000   12.008000 H         1 <1>         0.205200 
     31 C          25.633000   23.940000   12.683000 C.ar      1 <1>        -0.426200 
     32 C          26.171000   24.676000   13.740000 C.ar      1 <1>        -0.038700 
     33 H          26.401000   25.733000   13.625000 H         1 <1>         0.193000 
     34 C          26.428000   24.051000   14.965000 C.ar      1 <1>        -0.280200 
     35 H          26.884000   24.650000   15.748000 H         1 <1>         0.197200 
     36 S          25.337000   24.730000   11.118000 S.o2      1 <1>         2.161900 
     37 O          25.372000   26.171000   11.314000 O.2       1 <1>        -0.894400 
     38 O          24.155000   24.134000   10.516000 O.2       1 <1>        -0.898500 
     39 N          26.688000   24.303000   10.162000 N.pl3     1 <1>        -0.663000 
     40 C          26.803000   22.871000    9.790000 C.3       1 <1>        -0.200200 
     41 H          27.506000   22.768000    8.958000 H         1 <1>         0.160500 
     42 H          25.843000   22.477000    9.447000 H         1 <1>         0.145200 
     43 H          27.167000   22.272000   10.630000 H         1 <1>         0.093400 
     44 C          27.993000   24.861000   10.592000 C.3       1 <1>        -0.201100 
     45 H          28.728000   24.732000    9.791000 H         1 <1>         0.153400 
     46 H          28.363000   24.354000   11.488000 H         1 <1>         0.101000 
     47 H          27.914000   25.935000   10.782000 H         1 <1>         0.151500 
@<TRIPOS>BOND
     1    1    2 ar   
     2    2    3 ar   
     3    3    4 1    
     4    3    5 ar   
     5    5    6 1    
     6    5    7 ar   
     7    7    8 1    
     8    7    1 ar   
     9    2    9 1    
    10    9   10 ar   
    11   10   11 1    
    12   10   12 ar   
    13   12   13 1    
    14   12   14 ar   
    15   14   15 ar   
    16   15   16 1    
    17   15   17 ar   
    18   17   18 1    
    19   17    9 ar   
    20   14   19 1    
    21   19   20 2    
    22   19   21 2    
    23   19   22 1    
    24   22   23 1    
    25   22   24 1    
    26   22   25 1    
    27    1   26 1    
    28   26   27 ar   
    29   27   28 1    
    30   27   29 ar   
    31   29   30 1    
    32   29   31 ar   
    33   31   32 ar   
    34   32   33 1    
    35   32   34 ar   
    36   34   35 1    
    37   34   26 ar   
    38   31   36 1    
    39   36   37 2    
    40   36   38 2    
    41   36   39 1    
    42   39   40 1    
    43   40   41 1    
    44   40   42 1    
    45   40   43 1    
    46   39   44 1    
    47   44   45 1    
    48   44   46 1    
    49   44   47 1    
@<TRIPOS>SUBSTRUCTURE
     1 ****        1 TEMP              0 ****  ****    0 ROOT 
@<TRIPOS>SET
UNITY_3DHIT     STATIC     ATOMS    <user>   **** Atoms matching 3D or FLEX Search
0
