#	Name:			1-27
#	Creating user name:	jeff
#	Creation time:		Fri Dec 13 09:43:45 2002

#	Modifying user name:	jeff
#	Modification time:	Fri Dec 13 09:43:47 2002

@<TRIPOS>MOLECULE
1-27
   39    41     1     0     1
SMALL
USER_CHARGES
****
From 3DB ct
@<TRIPOS>ATOM
      1 N          26.453000   22.046000   16.409000 N.pl3     1 <1>         0.055200 
      2 C          25.536000   21.539000   17.341000 C.ar      1 <1>        -0.078700 
      3 C          26.256000   21.054000   18.420000 C.ar      1 <1>        -0.268100 
      4 H          25.829000   20.582000   19.299000 H         1 <1>         0.221800 
      5 C          27.621000   21.250000   18.157000 C.ar      1 <1>        -0.094900 
      6 H          28.450000   20.989000   18.808000 H         1 <1>         0.225700 
      7 C          27.732000   21.881000   16.931000 C.ar      1 <1>        -0.559800 
      8 C          28.965000   22.401000   16.294000 C.3       1 <1>         1.600900 
      9 F          29.433000   21.578000   15.317000 F         1 <1>        -0.464200 
     10 F          29.984000   22.523000   17.195000 F         1 <1>        -0.468300 
     11 F          28.812000   23.634000   15.743000 F         1 <1>        -0.465600 
     12 C          24.083000   21.442000   17.154000 C.ar      1 <1>         0.238000 
     13 C          23.412000   22.298000   16.267000 C.ar      1 <1>        -0.219900 
     14 H          23.961000   23.051000   15.704000 H         1 <1>         0.178000 
     15 C          22.029000   22.196000   16.091000 C.ar      1 <1>        -0.038500 
     16 H          21.528000   22.873000   15.402000 H         1 <1>         0.195300 
     17 C          21.313000   21.231000   16.802000 C.ar      1 <1>        -0.500500 
     18 C          21.970000   20.354000   17.669000 C.ar      1 <1>        -0.054900 
     19 H          21.421000   19.591000   18.216000 H         1 <1>         0.192600 
     20 C          23.353000   20.462000   17.841000 C.ar      1 <1>        -0.207900 
     21 H          23.856000   19.779000   18.524000 H         1 <1>         0.184300 
     22 S          19.555000   21.086000   16.573000 S.o2      1 <1>         2.199600 
     23 O          19.033000   22.415000   16.266000 O.2       1 <1>        -0.970500 
     24 O          19.007000   20.374000   17.723000 O.2       1 <1>        -0.971300 
     25 C          19.404000   20.059000   15.135000 C.3       1 <1>        -0.719400 
     26 H          18.340000   19.919000   14.930000 H         1 <1>         0.238000 
     27 H          19.874000   19.095000   15.336000 H         1 <1>         0.189900 
     28 H          19.883000   20.557000   14.290000 H         1 <1>         0.185300 
     29 C          26.120000   22.660000   15.164000 C.ar      1 <1>         0.024200 
     30 C          25.532000   21.906000   14.140000 C.ar      1 <1>        -0.084600 
     31 H          25.271000   20.860000   14.276000 H         1 <1>         0.171900 
     32 C          25.203000   22.518000   12.927000 C.ar      1 <1>        -0.381800 
     33 H          24.737000   21.944000   12.131000 H         1 <1>         0.235100 
     34 C          25.460000   23.872000   12.746000 C.ar      1 <1>         0.583500 
     35 C          26.038000   24.631000   13.756000 C.ar      1 <1>        -0.377900 
     36 H          26.234000   25.688000   13.595000 H         1 <1>         0.242300 
     37 C          26.369000   24.028000   14.971000 C.ar      1 <1>        -0.061100 
     38 H          26.845000   24.633000   15.740000 H         1 <1>         0.188100 
     39 F          25.142000   24.453000   11.582000 F         1 <1>        -0.361600 
@<TRIPOS>BOND
     1    1    2 ar   
     2    2    3 ar   
     3    3    4 1    
     4    3    5 ar   
     5    5    6 1    
     6    5    7 ar   
     7    7    1 ar   
     8    7    8 1    
     9    8    9 1    
    10    8   10 1    
    11    8   11 1    
    12    2   12 1    
    13   12   13 ar   
    14   13   14 1    
    15   13   15 ar   
    16   15   16 1    
    17   15   17 ar   
    18   17   18 ar   
    19   18   19 1    
    20   18   20 ar   
    21   20   21 1    
    22   20   12 ar   
    23   17   22 1    
    24   22   23 2    
    25   22   24 2    
    26   22   25 1    
    27   25   26 1    
    28   25   27 1    
    29   25   28 1    
    30    1   29 1    
    31   29   30 ar   
    32   30   31 1    
    33   30   32 ar   
    34   32   33 1    
    35   32   34 ar   
    36   34   35 ar   
    37   35   36 1    
    38   35   37 ar   
    39   37   38 1    
    40   37   29 ar   
    41   34   39 1    
@<TRIPOS>SUBSTRUCTURE
     1 ****        1 TEMP              0 ****  ****    0 ROOT 
@<TRIPOS>SET
UNITY_3DHIT     STATIC     ATOMS    <user>   **** Atoms matching 3D or FLEX Search
0
