#	Name:			1-28
#	Creating user name:	jeff
#	Creation time:		Fri Dec 13 09:43:47 2002

#	Modifying user name:	jeff
#	Modification time:	Fri Dec 13 09:43:49 2002

@<TRIPOS>MOLECULE
1-28
   44    46     1     0     1
SMALL
USER_CHARGES
****
From 3DB ct
@<TRIPOS>ATOM
      1 N          26.447000   22.059000   16.418000 N.pl3     1 <1>        -0.059200 
      2 C          25.531000   21.543000   17.338000 C.ar      1 <1>        -0.318500 
      3 C          26.253000   21.021000   18.397000 C.ar      1 <1>        -0.109500 
      4 H          25.802000   20.521000   19.248000 H         1 <1>         0.222400 
      5 C          27.639000   21.200000   18.154000 C.ar      1 <1>        -0.307700 
      6 C          27.734000   21.893000   16.945000 C.ar      1 <1>         0.103500 
      7 C          28.962000   22.470000   16.305000 C.3       1 <1>        -0.243800 
      8 H          29.679000   22.795000   17.065000 H         1 <1>         0.112400 
      9 H          28.742000   23.359000   15.708000 H         1 <1>         0.106300 
     10 H          29.449000   21.722000   15.673000 H         1 <1>         0.104600 
     11 C          28.762000   20.763000   19.011000 C.2       1 <1>         0.387200 
     12 O          28.551000   20.151000   20.068000 O.2       1 <1>        -0.412200 
     13 C          30.181000   21.115000   18.554000 C.3       1 <1>         1.327800 
     14 F          30.418000   22.464000   18.520000 F         1 <1>        -0.437600 
     15 F          31.152000   20.596000   19.373000 F         1 <1>        -0.454800 
     16 F          30.479000   20.652000   17.299000 F         1 <1>        -0.437900 
     17 C          24.078000   21.447000   17.156000 C.ar      1 <1>         0.354200 
     18 C          23.406000   22.300000   16.268000 C.ar      1 <1>        -0.269200 
     19 H          23.954000   23.052000   15.703000 H         1 <1>         0.189800 
     20 C          22.023000   22.197000   16.094000 C.ar      1 <1>        -0.020400 
     21 H          21.520000   22.872000   15.405000 H         1 <1>         0.194000 
     22 C          21.308000   21.232000   16.808000 C.ar      1 <1>        -0.487700 
     23 C          21.968000   20.357000   17.675000 C.ar      1 <1>        -0.080200 
     24 H          21.420000   19.593000   18.223000 H         1 <1>         0.194000 
     25 C          23.351000   20.467000   17.846000 C.ar      1 <1>        -0.233500 
     26 H          23.856000   19.785000   18.528000 H         1 <1>         0.192700 
     27 S          19.550000   21.081000   16.581000 S.o2      1 <1>         2.192800 
     28 O          19.023000   22.410000   16.292000 O.2       1 <1>        -0.969700 
     29 O          19.008000   20.352000   17.724000 O.2       1 <1>        -0.967200 
     30 C          19.398000   20.069000   15.133000 C.3       1 <1>        -0.744600 
     31 H          18.335000   19.924000   14.931000 H         1 <1>         0.243500 
     32 H          19.875000   19.105000   15.321000 H         1 <1>         0.199500 
     33 H          19.870000   20.578000   14.291000 H         1 <1>         0.189900 
     34 C          26.127000   22.668000   15.165000 C.ar      1 <1>         0.211900 
     35 C          25.549000   21.904000   14.140000 C.ar      1 <1>        -0.160900 
     36 H          25.308000   20.853000   14.283000 H         1 <1>         0.193900 
     37 C          25.223000   22.503000   12.921000 C.ar      1 <1>        -0.364400 
     38 H          24.767000   21.921000   12.125000 H         1 <1>         0.240500 
     39 C          25.473000   23.857000   12.731000 C.ar      1 <1>         0.548200 
     40 C          26.044000   24.627000   13.738000 C.ar      1 <1>        -0.311800 
     41 H          26.237000   25.683000   13.570000 H         1 <1>         0.230200 
     42 C          26.372000   24.034000   14.959000 C.ar      1 <1>        -0.211500 
     43 H          26.847000   24.647000   15.722000 H         1 <1>         0.218800 
     44 F          25.159000   24.429000   11.561000 F         1 <1>        -0.355700 
@<TRIPOS>BOND
     1    1    2 ar   
     2    2    3 ar   
     3    3    4 1    
     4    3    5 ar   
     5    5    6 ar   
     6    6    1 ar   
     7    6    7 1    
     8    7    8 1    
     9    7    9 1    
    10    7   10 1    
    11    5   11 1    
    12   11   12 2    
    13   11   13 1    
    14   13   14 1    
    15   13   15 1    
    16   13   16 1    
    17    2   17 1    
    18   17   18 ar   
    19   18   19 1    
    20   18   20 ar   
    21   20   21 1    
    22   20   22 ar   
    23   22   23 ar   
    24   23   24 1    
    25   23   25 ar   
    26   25   26 1    
    27   25   17 ar   
    28   22   27 1    
    29   27   28 2    
    30   27   29 2    
    31   27   30 1    
    32   30   31 1    
    33   30   32 1    
    34   30   33 1    
    35    1   34 1    
    36   34   35 ar   
    37   35   36 1    
    38   35   37 ar   
    39   37   38 1    
    40   37   39 ar   
    41   39   40 ar   
    42   40   41 1    
    43   40   42 ar   
    44   42   43 1    
    45   42   34 ar   
    46   39   44 1    
@<TRIPOS>SUBSTRUCTURE
     1 ****        1 TEMP              0 ****  ****    0 ROOT 
@<TRIPOS>SET
UNITY_3DHIT     STATIC     ATOMS    <user>   **** Atoms matching 3D or FLEX Search
0
