#	Name:			1-29
#	Creating user name:	jeff
#	Creation time:		Fri Dec 13 09:43:49 2002

#	Modifying user name:	jeff
#	Modification time:	Fri Dec 13 09:43:52 2002

@<TRIPOS>MOLECULE
1-29
   44    46     1     0     1
SMALL
USER_CHARGES
****
From 3DB ct
@<TRIPOS>ATOM
      1 N          26.447000   22.059000   16.418000 N.pl3     1 <1>        -0.221700 
      2 C          25.531000   21.543000   17.338000 C.ar      1 <1>        -0.199600 
      3 C          26.253000   21.020000   18.396000 C.ar      1 <1>        -0.147700 
      4 H          25.809000   20.519000   19.249000 H         1 <1>         0.222500 
      5 C          27.638000   21.201000   18.151000 C.ar      1 <1>        -0.516200 
      6 C          27.733000   21.895000   16.946000 C.ar      1 <1>         0.297900 
      7 C          28.962000   22.470000   16.309000 C.3       1 <1>        -0.343700 
      8 H          29.682000   22.788000   17.069000 H         1 <1>         0.111500 
      9 H          28.745000   23.363000   15.716000 H         1 <1>         0.116200 
     10 H          29.447000   21.724000   15.672000 H         1 <1>         0.122400 
     11 C          28.751000   20.764000   19.010000 C.2       1 <1>         0.874500 
     12 O          28.565000   20.152000   20.066000 O.2       1 <1>        -0.582100 
     13 C          30.157000   21.104000   18.576000 C.3       1 <1>        -0.496800 
     14 H          30.872000   20.666000   19.280000 H         1 <1>         0.123200 
     15 H          30.295000   22.188000   18.571000 H         1 <1>         0.127600 
     16 H          30.355000   20.690000   17.584000 H         1 <1>         0.132700 
     17 C          24.078000   21.447000   17.155000 C.ar      1 <1>         0.322200 
     18 C          23.405000   22.300000   16.268000 C.ar      1 <1>        -0.262100 
     19 H          23.953000   23.054000   15.704000 H         1 <1>         0.188700 
     20 C          22.022000   22.196000   16.094000 C.ar      1 <1>        -0.022600 
     21 H          21.519000   22.871000   15.405000 H         1 <1>         0.192700 
     22 C          21.308000   21.231000   16.808000 C.ar      1 <1>        -0.504400 
     23 C          21.968000   20.356000   17.675000 C.ar      1 <1>        -0.066800 
     24 H          21.421000   19.593000   18.224000 H         1 <1>         0.191600 
     25 C          23.351000   20.466000   17.845000 C.ar      1 <1>        -0.235300 
     26 H          23.857000   19.784000   18.527000 H         1 <1>         0.192100 
     27 S          19.550000   21.082000   16.582000 S.o2      1 <1>         2.201900 
     28 O          19.025000   22.411000   16.283000 O.2       1 <1>        -0.973800 
     29 O          19.007000   20.363000   17.730000 O.2       1 <1>        -0.972100 
     30 C          19.398000   20.061000   15.140000 C.3       1 <1>        -0.730300 
     31 H          18.334000   19.918000   14.938000 H         1 <1>         0.236400 
     32 H          19.872000   19.098000   15.335000 H         1 <1>         0.192800 
     33 H          19.872000   20.565000   14.296000 H         1 <1>         0.186900 
     34 C          26.127000   22.669000   15.165000 C.ar      1 <1>         0.226600 
     35 C          25.549000   21.904000   14.140000 C.ar      1 <1>        -0.154900 
     36 H          25.310000   20.852000   14.283000 H         1 <1>         0.192500 
     37 C          25.223000   22.503000   12.921000 C.ar      1 <1>        -0.365400 
     38 H          24.767000   21.919000   12.126000 H         1 <1>         0.237200 
     39 C          25.473000   23.856000   12.731000 C.ar      1 <1>         0.546100 
     40 C          26.044000   24.627000   13.737000 C.ar      1 <1>        -0.335800 
     41 H          26.238000   25.682000   13.568000 H         1 <1>         0.231900 
     42 C          26.372000   24.035000   14.959000 C.ar      1 <1>        -0.182000 
     43 H          26.848000   24.648000   15.721000 H         1 <1>         0.203500 
     44 F          25.159000   24.427000   11.561000 F         1 <1>        -0.358500 
@<TRIPOS>BOND
     1    1    2 ar   
     2    2    3 ar   
     3    3    4 1    
     4    3    5 ar   
     5    5    6 ar   
     6    6    1 ar   
     7    6    7 1    
     8    7    8 1    
     9    7    9 1    
    10    7   10 1    
    11    5   11 1    
    12   11   12 2    
    13   11   13 1    
    14   13   14 1    
    15   13   15 1    
    16   13   16 1    
    17    2   17 1    
    18   17   18 ar   
    19   18   19 1    
    20   18   20 ar   
    21   20   21 1    
    22   20   22 ar   
    23   22   23 ar   
    24   23   24 1    
    25   23   25 ar   
    26   25   26 1    
    27   25   17 ar   
    28   22   27 1    
    29   27   28 2    
    30   27   29 2    
    31   27   30 1    
    32   30   31 1    
    33   30   32 1    
    34   30   33 1    
    35    1   34 1    
    36   34   35 ar   
    37   35   36 1    
    38   35   37 ar   
    39   37   38 1    
    40   37   39 ar   
    41   39   40 ar   
    42   40   41 1    
    43   40   42 ar   
    44   42   43 1    
    45   42   34 ar   
    46   39   44 1    
@<TRIPOS>SUBSTRUCTURE
     1 ****        1 TEMP              0 ****  ****    0 ROOT 
@<TRIPOS>SET
UNITY_3DHIT     STATIC     ATOMS    <user>   **** Atoms matching 3D or FLEX Search
0
