#	Name:			1-3
#	Creating user name:	jeff
#	Creation time:		Fri Dec 13 09:43:13 2002

#	Modifying user name:	jeff
#	Modification time:	Fri Dec 13 09:43:15 2002

@<TRIPOS>MOLECULE
1-3
   36    38     1     0     1
SMALL
USER_CHARGES
****
From 3DB ct
@<TRIPOS>ATOM
      1 N          25.485000   21.540000   17.307000 N.pl3     1 <1>        -0.045200 
      2 C          26.431000   22.007000   16.384000 C.ar      1 <1>        -0.126200 
      3 C          27.690000   21.814000   16.941000 C.ar      1 <1>        -0.201700 
      4 H          28.630000   22.072000   16.465000 H         1 <1>         0.202400 
      5 C          27.529000   21.302000   18.240000 C.ar      1 <1>        -0.273000 
      6 H          28.311000   21.060000   18.951000 H         1 <1>         0.220600 
      7 C          26.178000   21.176000   18.453000 C.ar      1 <1>        -0.256500 
      8 H          25.660000   20.792000   19.322000 H         1 <1>         0.255300 
      9 C          26.154000   22.687000   15.115000 C.ar      1 <1>         0.022700 
     10 C          26.431000   24.053000   14.958000 C.ar      1 <1>        -0.042000 
     11 H          26.842000   24.633000   15.784000 H         1 <1>         0.167100 
     12 C          26.186000   24.689000   13.739000 C.ar      1 <1>        -0.428700 
     13 H          26.396000   25.748000   13.617000 H         1 <1>         0.236200 
     14 C          25.674000   23.956000   12.675000 C.ar      1 <1>         0.598000 
     15 C          25.405000   22.599000   12.805000 C.ar      1 <1>        -0.424400 
     16 H          25.010000   22.040000   11.962000 H         1 <1>         0.232600 
     17 C          25.651000   21.962000   14.024000 C.ar      1 <1>        -0.083700 
     18 H          25.440000   20.898000   14.118000 H         1 <1>         0.174800 
     19 F          25.440000   24.566000   11.505000 F         1 <1>        -0.370300 
     20 C          24.066000   21.403000   17.154000 C.ar      1 <1>         0.353400 
     21 C          23.365000   22.281000   16.309000 C.ar      1 <1>        -0.298900 
     22 H          23.876000   23.042000   15.723000 H         1 <1>         0.197000 
     23 C          21.979000   22.169000   16.158000 C.ar      1 <1>         0.015000 
     24 H          21.459000   22.849000   15.487000 H         1 <1>         0.191800 
     25 C          21.282000   21.189000   16.866000 C.ar      1 <1>        -0.544100 
     26 C          21.962000   20.314000   17.714000 C.ar      1 <1>         0.025000 
     27 H          21.428000   19.550000   18.276000 H         1 <1>         0.189000 
     28 C          23.350000   20.427000   17.862000 C.ar      1 <1>        -0.330500 
     29 H          23.832000   19.763000   18.574000 H         1 <1>         0.201800 
     30 S          19.523000   21.038000   16.658000 S.o2      1 <1>         2.188100 
     31 O          18.978000   22.373000   16.432000 O.2       1 <1>        -0.970500 
     32 O          19.006000   20.259000   17.779000 O.2       1 <1>        -0.970800 
     33 C          19.354000   20.091000   15.169000 C.3       1 <1>        -0.716100 
     34 H          18.288000   19.957000   14.971000 H         1 <1>         0.235300 
     35 H          19.831000   19.119000   15.308000 H         1 <1>         0.187300 
     36 H          19.819000   20.637000   14.346000 H         1 <1>         0.189400 
@<TRIPOS>BOND
     1    1    2 ar   
     2    2    3 ar   
     3    3    4 1    
     4    3    5 ar   
     5    5    6 1    
     6    5    7 ar   
     7    7    8 1    
     8    7    1 ar   
     9    2    9 1    
    10    9   10 ar   
    11   10   11 1    
    12   10   12 ar   
    13   12   13 1    
    14   12   14 ar   
    15   14   15 ar   
    16   15   16 1    
    17   15   17 ar   
    18   17   18 1    
    19   17    9 ar   
    20   14   19 1    
    21    1   20 1    
    22   20   21 ar   
    23   21   22 1    
    24   21   23 ar   
    25   23   24 1    
    26   23   25 ar   
    27   25   26 ar   
    28   26   27 1    
    29   26   28 ar   
    30   28   29 1    
    31   28   20 ar   
    32   25   30 1    
    33   30   31 2    
    34   30   32 2    
    35   30   33 1    
    36   33   34 1    
    37   33   35 1    
    38   33   36 1    
@<TRIPOS>SUBSTRUCTURE
     1 ****        1 TEMP              0 ****  ****    0 ROOT 
@<TRIPOS>SET
UNITY_3DHIT     STATIC     ATOMS    <user>   **** Atoms matching 3D or FLEX Search
0
