#	Name:			1-31
#	Creating user name:	jeff
#	Creation time:		Fri Dec 13 09:43:52 2002

#	Modifying user name:	jeff
#	Modification time:	Fri Dec 13 09:43:54 2002

@<TRIPOS>MOLECULE
1-31
   45    47     1     0     1
SMALL
USER_CHARGES
****
From 3DB ct
@<TRIPOS>ATOM
      1 N          26.449000   22.053000   16.415000 N.pl3     1 <1>        -0.136300 
      2 C          25.532000   21.543000   17.342000 C.ar      1 <1>        -0.194800 
      3 C          26.251000   21.035000   18.410000 C.ar      1 <1>        -0.186800 
      4 H          25.818000   20.544000   19.275000 H         1 <1>         0.257700 
      5 C          27.627000   21.220000   18.151000 C.ar      1 <1>        -0.525500 
      6 C          27.741000   21.886000   16.934000 C.ar      1 <1>         0.235200 
      7 C          28.970000   22.430000   16.271000 C.3       1 <1>        -0.270200 
      8 H          29.735000   22.675000   17.015000 H         1 <1>         0.106600 
      9 H          28.769000   23.358000   15.728000 H         1 <1>         0.099500 
     10 H          29.395000   21.691000   15.585000 H         1 <1>         0.134100 
     11 S          28.894000   20.699000   19.238000 S.o2      1 <1>         1.884100 
     12 O          30.012000   20.386000   18.346000 O.2       1 <1>        -0.782800 
     13 O          28.272000   19.607000   19.990000 O.2       1 <1>        -0.781700 
     14 C          29.201000   22.167000   20.272000 C.3       1 <1>         0.687400 
     15 F          29.607000   23.262000   19.550000 F         1 <1>        -0.311200 
     16 F          28.095000   22.571000   20.979000 F         1 <1>        -0.339600 
     17 F          30.183000   21.956000   21.210000 F         1 <1>        -0.309600 
     18 C          24.079000   21.446000   17.157000 C.ar      1 <1>         0.325100 
     19 C          23.407000   22.299000   16.269000 C.ar      1 <1>        -0.287000 
     20 H          23.956000   23.052000   15.705000 H         1 <1>         0.195200 
     21 C          22.025000   22.196000   16.093000 C.ar      1 <1>        -0.010200 
     22 H          21.523000   22.872000   15.404000 H         1 <1>         0.192600 
     23 C          21.310000   21.230000   16.805000 C.ar      1 <1>        -0.473200 
     24 C          21.968000   20.355000   17.672000 C.ar      1 <1>        -0.084900 
     25 H          21.420000   19.591000   18.220000 H         1 <1>         0.194800 
     26 C          23.351000   20.465000   17.845000 C.ar      1 <1>        -0.228800 
     27 H          23.855000   19.782000   18.528000 H         1 <1>         0.205000 
     28 S          19.552000   21.082000   16.576000 S.o2      1 <1>         2.178600 
     29 O          19.027000   22.411000   16.278000 O.2       1 <1>        -0.966600 
     30 O          19.006000   20.361000   17.721000 O.2       1 <1>        -0.962000 
     31 C          19.402000   20.062000   15.133000 C.3       1 <1>        -0.725300 
     32 H          18.339000   19.925000   14.925000 H         1 <1>         0.241100 
     33 H          19.870000   19.096000   15.329000 H         1 <1>         0.194100 
     34 H          19.883000   20.563000   14.291000 H         1 <1>         0.185100 
     35 C          26.123000   22.666000   15.165000 C.ar      1 <1>         0.171600 
     36 C          25.542000   21.906000   14.139000 C.ar      1 <1>        -0.114300 
     37 H          25.299000   20.855000   14.279000 H         1 <1>         0.183700 
     38 C          25.213000   22.510000   12.923000 C.ar      1 <1>        -0.380200 
     39 H          24.753000   21.931000   12.127000 H         1 <1>         0.243200 
     40 C          25.465000   23.864000   12.737000 C.ar      1 <1>         0.575000 
     41 C          26.041000   24.629000   13.744000 C.ar      1 <1>        -0.343600 
     42 H          26.236000   25.685000   13.578000 H         1 <1>         0.237300 
     43 C          26.370000   24.032000   14.963000 C.ar      1 <1>        -0.172700 
     44 H          26.848000   24.642000   15.727000 H         1 <1>         0.216800 
     45 F          25.148000   24.440000   11.570000 F         1 <1>        -0.356100 
@<TRIPOS>BOND
     1    1    2 ar   
     2    2    3 ar   
     3    3    4 1    
     4    3    5 ar   
     5    5    6 ar   
     6    6    1 ar   
     7    6    7 1    
     8    7    8 1    
     9    7    9 1    
    10    7   10 1    
    11    5   11 1    
    12   11   12 2    
    13   11   13 2    
    14   11   14 1    
    15   14   15 1    
    16   14   16 1    
    17   14   17 1    
    18    2   18 1    
    19   18   19 ar   
    20   19   20 1    
    21   19   21 ar   
    22   21   22 1    
    23   21   23 ar   
    24   23   24 ar   
    25   24   25 1    
    26   24   26 ar   
    27   26   27 1    
    28   26   18 ar   
    29   23   28 1    
    30   28   29 2    
    31   28   30 2    
    32   28   31 1    
    33   31   32 1    
    34   31   33 1    
    35   31   34 1    
    36    1   35 1    
    37   35   36 ar   
    38   36   37 1    
    39   36   38 ar   
    40   38   39 1    
    41   38   40 ar   
    42   40   41 ar   
    43   41   42 1    
    44   41   43 ar   
    45   43   44 1    
    46   43   35 ar   
    47   40   45 1    
@<TRIPOS>SUBSTRUCTURE
     1 ****        1 TEMP              0 ****  ****    0 ROOT 
@<TRIPOS>SET
UNITY_3DHIT     STATIC     ATOMS    <user>   **** Atoms matching 3D or FLEX Search
0
