#	Name:			1-32
#	Creating user name:	jeff
#	Creation time:		Fri Dec 13 09:43:54 2002

#	Modifying user name:	jeff
#	Modification time:	Fri Dec 13 09:43:56 2002

@<TRIPOS>MOLECULE
1-32
   41    43     1     0     1
SMALL
USER_CHARGES
****
From 3DB ct
@<TRIPOS>ATOM
      1 N          26.448000   22.058000   16.417000 N.pl3     1 <1>        -0.140500 
      2 C          25.530000   21.543000   17.340000 C.ar      1 <1>        -0.300100 
      3 C          26.252000   21.026000   18.401000 C.ar      1 <1>        -0.208200 
      4 H          25.819000   20.529000   19.262000 H         1 <1>         0.239500 
      5 C          27.633000   21.209000   18.151000 C.ar      1 <1>        -0.205100 
      6 C          27.735000   21.890000   16.942000 C.ar      1 <1>         0.109600 
      7 C          28.968000   22.449000   16.301000 C.3       1 <1>        -0.320400 
      8 H          29.705000   22.736000   17.057000 H         1 <1>         0.127400 
      9 H          28.761000   23.358000   15.728000 H         1 <1>         0.117800 
     10 H          29.428000   21.705000   15.645000 H         1 <1>         0.117100 
     11 C          28.715000   20.775000   19.027000 C.2       1 <1>         0.574500 
     12 H          29.729000   21.035000   18.676000 H         1 <1>        -0.004700 
     13 O          28.558000   20.173000   20.090000 O.2       1 <1>        -0.536000 
     14 C          24.078000   21.445000   17.155000 C.ar      1 <1>         0.408400 
     15 C          23.406000   22.299000   16.269000 C.ar      1 <1>        -0.293600 
     16 H          23.954000   23.053000   15.705000 H         1 <1>         0.188400 
     17 C          22.023000   22.196000   16.094000 C.ar      1 <1>        -0.011400 
     18 H          21.520000   22.872000   15.406000 H         1 <1>         0.192600 
     19 C          21.308000   21.230000   16.807000 C.ar      1 <1>        -0.504200 
     20 C          21.968000   20.354000   17.673000 C.ar      1 <1>        -0.057700 
     21 H          21.421000   19.590000   18.221000 H         1 <1>         0.189400 
     22 C          23.351000   20.463000   17.844000 C.ar      1 <1>        -0.273900 
     23 H          23.856000   19.781000   18.526000 H         1 <1>         0.202600 
     24 S          19.551000   21.083000   16.581000 S.o2      1 <1>         2.193300 
     25 O          19.026000   22.412000   16.285000 O.2       1 <1>        -0.971800 
     26 O          19.007000   20.362000   17.728000 O.2       1 <1>        -0.969500 
     27 C          19.398000   20.065000   15.138000 C.3       1 <1>        -0.744000 
     28 H          18.334000   19.922000   14.935000 H         1 <1>         0.242200 
     29 H          19.871000   19.101000   15.331000 H         1 <1>         0.197600 
     30 H          19.872000   20.569000   14.294000 H         1 <1>         0.189500 
     31 C          26.127000   22.668000   15.165000 C.ar      1 <1>         0.270300 
     32 C          25.549000   21.905000   14.139000 C.ar      1 <1>        -0.185700 
     33 H          25.307000   20.854000   14.281000 H         1 <1>         0.196400 
     34 C          25.221000   22.505000   12.921000 C.ar      1 <1>        -0.357100 
     35 H          24.765000   21.922000   12.126000 H         1 <1>         0.238400 
     36 C          25.472000   23.859000   12.732000 C.ar      1 <1>         0.540200 
     37 C          26.044000   24.628000   13.738000 C.ar      1 <1>        -0.324700 
     38 H          26.238000   25.683000   13.570000 H         1 <1>         0.231100 
     39 C          26.372000   24.035000   14.960000 C.ar      1 <1>        -0.207300 
     40 H          26.848000   24.647000   15.722000 H         1 <1>         0.207200 
     41 F          25.157000   24.431000   11.562000 F         1 <1>        -0.357300 
@<TRIPOS>BOND
     1    1    2 ar   
     2    2    3 ar   
     3    3    4 1    
     4    3    5 ar   
     5    5    6 ar   
     6    6    1 ar   
     7    6    7 1    
     8    7    8 1    
     9    7    9 1    
    10    7   10 1    
    11    5   11 1    
    12   11   12 1    
    13   11   13 2    
    14    2   14 1    
    15   14   15 ar   
    16   15   16 1    
    17   15   17 ar   
    18   17   18 1    
    19   17   19 ar   
    20   19   20 ar   
    21   20   21 1    
    22   20   22 ar   
    23   22   23 1    
    24   22   14 ar   
    25   19   24 1    
    26   24   25 2    
    27   24   26 2    
    28   24   27 1    
    29   27   28 1    
    30   27   29 1    
    31   27   30 1    
    32    1   31 1    
    33   31   32 ar   
    34   32   33 1    
    35   32   34 ar   
    36   34   35 1    
    37   34   36 ar   
    38   36   37 ar   
    39   37   38 1    
    40   37   39 ar   
    41   39   40 1    
    42   39   31 ar   
    43   36   41 1    
@<TRIPOS>SUBSTRUCTURE
     1 ****        1 TEMP              0 ****  ****    0 ROOT 
@<TRIPOS>SET
UNITY_3DHIT     STATIC     ATOMS    <user>   **** Atoms matching 3D or FLEX Search
0
