#	Name:			1-33
#	Creating user name:	jeff
#	Creation time:		Fri Dec 13 09:43:56 2002

#	Modifying user name:	jeff
#	Modification time:	Fri Dec 13 09:43:59 2002

@<TRIPOS>MOLECULE
1-33
   40    42     1     0     1
SMALL
USER_CHARGES
****
From 3DB ct
@<TRIPOS>ATOM
      1 N          26.448000   22.047000   16.410000 N.pl3     1 <1>        -0.169600 
      2 C          25.529000   21.545000   17.341000 C.ar      1 <1>        -0.247700 
      3 C          26.248000   21.056000   18.419000 C.ar      1 <1>        -0.175400 
      4 H          25.816000   20.584000   19.296000 H         1 <1>         0.229500 
      5 C          27.618000   21.240000   18.157000 C.ar      1 <1>        -0.195500 
      6 C          27.735000   21.869000   16.928000 C.ar      1 <1>         0.220600 
      7 C          28.983000   22.370000   16.273000 C.3       1 <1>        -0.334700 
      8 H          29.771000   22.541000   17.014000 H         1 <1>         0.132800 
      9 H          28.822000   23.326000   15.766000 H         1 <1>         0.117700 
     10 H          29.362000   21.636000   15.555000 H         1 <1>         0.118400 
     11 C          28.698000   20.864000   19.021000 C.1       1 <1>         0.237000 
     12 N          29.575000   20.559000   19.723000 N.1       1 <1>        -0.329400 
     13 C          24.076000   21.446000   17.157000 C.ar      1 <1>         0.341900 
     14 C          23.402000   22.298000   16.269000 C.ar      1 <1>        -0.266500 
     15 H          23.949000   23.051000   15.704000 H         1 <1>         0.189800 
     16 C          22.019000   22.193000   16.095000 C.ar      1 <1>        -0.017700 
     17 H          21.516000   22.868000   15.407000 H         1 <1>         0.192500 
     18 C          21.307000   21.227000   16.808000 C.ar      1 <1>        -0.495300 
     19 C          21.967000   20.353000   17.675000 C.ar      1 <1>        -0.064900 
     20 H          21.421000   19.588000   18.224000 H         1 <1>         0.189300 
     21 C          23.350000   20.465000   17.846000 C.ar      1 <1>        -0.249400 
     22 H          23.855000   19.783000   18.529000 H         1 <1>         0.194200 
     23 S          19.549000   21.074000   16.584000 S.o2      1 <1>         2.192200 
     24 O          19.017000   22.406000   16.314000 O.2       1 <1>        -0.971100 
     25 O          19.011000   20.328000   17.717000 O.2       1 <1>        -0.970400 
     26 C          19.398000   20.082000   15.121000 C.3       1 <1>        -0.728800 
     27 H          18.334000   19.938000   14.918000 H         1 <1>         0.238900 
     28 H          19.877000   19.116000   15.296000 H         1 <1>         0.194200 
     29 H          19.868000   20.604000   14.286000 H         1 <1>         0.186100 
     30 C          26.127000   22.666000   15.161000 C.ar      1 <1>         0.202100 
     31 C          25.550000   21.913000   14.128000 C.ar      1 <1>        -0.150400 
     32 H          25.301000   20.863000   14.260000 H         1 <1>         0.194800 
     33 C          25.229000   22.523000   12.913000 C.ar      1 <1>        -0.372900 
     34 H          24.772000   21.948000   12.112000 H         1 <1>         0.238800 
     35 C          25.484000   23.878000   12.735000 C.ar      1 <1>         0.562300 
     36 C          26.055000   24.637000   13.749000 C.ar      1 <1>        -0.352100 
     37 H          26.253000   25.693000   13.588000 H         1 <1>         0.236100 
     38 C          26.377000   24.033000   14.967000 C.ar      1 <1>        -0.157100 
     39 H          26.852000   24.639000   15.735000 H         1 <1>         0.199200 
     40 F          25.174000   24.460000   11.569000 F         1 <1>        -0.359800 
@<TRIPOS>BOND
     1    1    2 ar   
     2    2    3 ar   
     3    3    4 1    
     4    3    5 ar   
     5    5    6 ar   
     6    6    1 ar   
     7    6    7 1    
     8    7    8 1    
     9    7    9 1    
    10    7   10 1    
    11    5   11 1    
    12   11   12 3    
    13    2   13 1    
    14   13   14 ar   
    15   14   15 1    
    16   14   16 ar   
    17   16   17 1    
    18   16   18 ar   
    19   18   19 ar   
    20   19   20 1    
    21   19   21 ar   
    22   21   22 1    
    23   21   13 ar   
    24   18   23 1    
    25   23   24 2    
    26   23   25 2    
    27   23   26 1    
    28   26   27 1    
    29   26   28 1    
    30   26   29 1    
    31    1   30 1    
    32   30   31 ar   
    33   31   32 1    
    34   31   33 ar   
    35   33   34 1    
    36   33   35 ar   
    37   35   36 ar   
    38   36   37 1    
    39   36   38 ar   
    40   38   39 1    
    41   38   30 ar   
    42   35   40 1    
@<TRIPOS>SUBSTRUCTURE
     1 ****        1 TEMP              0 ****  ****    0 ROOT 
@<TRIPOS>SET
UNITY_3DHIT     STATIC     ATOMS    <user>   **** Atoms matching 3D or FLEX Search
0
