#	Name:			1-34
#	Creating user name:	jeff
#	Creation time:		Fri Dec 13 09:43:59 2002

#	Modifying user name:	jeff
#	Modification time:	Fri Dec 13 09:44:01 2002

@<TRIPOS>MOLECULE
1-34
   39    41     1     0     1
SMALL
USER_CHARGES
****
From 3DB ct
@<TRIPOS>ATOM
      1 N          26.449000   22.048000   16.410000 N.pl3     1 <1>        -0.282600 
      2 C          25.530000   21.546000   17.344000 C.ar      1 <1>        -0.048700 
      3 C          26.249000   21.054000   18.421000 C.ar      1 <1>         0.141700 
      4 H          25.819000   20.582000   19.297000 H         1 <1>         0.147400 
      5 C          27.607000   21.240000   18.143000 C.ar      1 <1>        -1.068900 
      6 C          27.738000   21.867000   16.924000 C.ar      1 <1>         0.644200 
      7 C          28.986000   22.363000   16.270000 C.3       1 <1>        -0.360100 
      8 H          29.769000   22.553000   17.011000 H         1 <1>         0.107000 
      9 H          28.823000   23.311000   15.747000 H         1 <1>         0.103900 
     10 H          29.372000   21.622000   15.565000 H         1 <1>         0.111100 
     11 Br         28.969000   20.711000   19.323000 Br        1 <1>         0.284900 
     12 C          24.077000   21.447000   17.160000 C.ar      1 <1>         0.107300 
     13 C          23.404000   22.299000   16.273000 C.ar      1 <1>        -0.190500 
     14 H          23.952000   23.053000   15.709000 H         1 <1>         0.185400 
     15 C          22.022000   22.193000   16.096000 C.ar      1 <1>        -0.032700 
     16 H          21.519000   22.867000   15.406000 H         1 <1>         0.187300 
     17 C          21.308000   21.227000   16.808000 C.ar      1 <1>        -0.490100 
     18 C          21.967000   20.354000   17.676000 C.ar      1 <1>        -0.079600 
     19 H          21.420000   19.589000   18.224000 H         1 <1>         0.190700 
     20 C          23.350000   20.465000   17.849000 C.ar      1 <1>        -0.146000 
     21 H          23.855000   19.784000   18.532000 H         1 <1>         0.162800 
     22 S          19.551000   21.075000   16.575000 S.o2      1 <1>         2.199200 
     23 O          19.021000   22.403000   16.284000 O.2       1 <1>        -0.974100 
     24 O          19.006000   20.345000   17.716000 O.2       1 <1>        -0.975200 
     25 C          19.406000   20.064000   15.125000 C.3       1 <1>        -0.707100 
     26 H          18.343000   19.923000   14.916000 H         1 <1>         0.230800 
     27 H          19.879000   19.099000   15.315000 H         1 <1>         0.186100 
     28 H          19.885000   20.574000   14.287000 H         1 <1>         0.181700 
     29 C          26.125000   22.666000   15.161000 C.ar      1 <1>         0.027700 
     30 C          25.546000   21.912000   14.130000 C.ar      1 <1>        -0.050100 
     31 H          25.297000   20.862000   14.263000 H         1 <1>         0.176500 
     32 C          25.222000   22.522000   12.915000 C.ar      1 <1>        -0.412300 
     33 H          24.764000   21.947000   12.116000 H         1 <1>         0.239400 
     34 C          25.477000   23.877000   12.736000 C.ar      1 <1>         0.601300 
     35 C          26.050000   24.636000   13.749000 C.ar      1 <1>        -0.424100 
     36 H          26.247000   25.692000   13.588000 H         1 <1>         0.245500 
     37 C          26.375000   24.033000   14.966000 C.ar      1 <1>        -0.017900 
     38 H          26.852000   24.639000   15.732000 H         1 <1>         0.164100 
     39 F          25.166000   24.458000   11.570000 F         1 <1>        -0.365800 
@<TRIPOS>BOND
     1    1    2 ar   
     2    2    3 ar   
     3    3    4 1    
     4    3    5 ar   
     5    5    6 ar   
     6    6    1 ar   
     7    6    7 1    
     8    7    8 1    
     9    7    9 1    
    10    7   10 1    
    11    5   11 1    
    12    2   12 1    
    13   12   13 ar   
    14   13   14 1    
    15   13   15 ar   
    16   15   16 1    
    17   15   17 ar   
    18   17   18 ar   
    19   18   19 1    
    20   18   20 ar   
    21   20   21 1    
    22   20   12 ar   
    23   17   22 1    
    24   22   23 2    
    25   22   24 2    
    26   22   25 1    
    27   25   26 1    
    28   25   27 1    
    29   25   28 1    
    30    1   29 1    
    31   29   30 ar   
    32   30   31 1    
    33   30   32 ar   
    34   32   33 1    
    35   32   34 ar   
    36   34   35 ar   
    37   35   36 1    
    38   35   37 ar   
    39   37   38 1    
    40   37   29 ar   
    41   34   39 1    
@<TRIPOS>SUBSTRUCTURE
     1 ****        1 TEMP              0 ****  ****    0 ROOT 
@<TRIPOS>SET
UNITY_3DHIT     STATIC     ATOMS    <user>   **** Atoms matching 3D or FLEX Search
0
