#	Name:			1-37
#	Creating user name:	jeff
#	Creation time:		Fri Dec 13 09:44:03 2002

#	Modifying user name:	jeff
#	Modification time:	Fri Dec 13 09:44:06 2002

@<TRIPOS>MOLECULE
1-37
   48    50     1     0     1
SMALL
USER_CHARGES
****
From 3DB ct
@<TRIPOS>ATOM
      1 N          26.447000   22.043000   16.408000 N.pl3     1 <1>        -0.224000 
      2 C          25.530000   21.548000   17.342000 C.ar      1 <1>        -0.239100 
      3 C          26.249000   21.068000   18.423000 C.ar      1 <1>        -0.207700 
      4 H          25.814000   20.607000   19.303000 H         1 <1>         0.228900 
      5 C          27.629000   21.240000   18.167000 C.ar      1 <1>        -0.305000 
      6 C          27.733000   21.858000   16.927000 C.ar      1 <1>         0.281100 
      7 C          28.983000   22.348000   16.265000 C.3       1 <1>        -0.453800 
      8 H          29.777000   22.507000   17.004000 H         1 <1>         0.171600 
      9 H          28.830000   23.306000   15.761000 H         1 <1>         0.137100 
     10 H          29.351000   21.611000   15.546000 H         1 <1>         0.134800 
     11 C          28.742000   20.848000   19.091000 C.3       1 <1>         0.315600 
     12 H          29.635000   20.600000   18.504000 H         1 <1>         0.020400 
     13 H          28.447000   19.965000   19.671000 H         1 <1>         0.050900 
     14 O          29.037000   21.927000   19.988000 O.3       1 <1>        -0.530800 
     15 C          30.052000   21.669000   20.855000 C.2       1 <1>         0.957000 
     16 C          30.288000   22.854000   21.739000 C.3       1 <1>        -0.513000 
     17 H          31.108000   22.634000   22.429000 H         1 <1>         0.140200 
     18 H          29.390000   23.067000   22.324000 H         1 <1>         0.158200 
     19 H          30.567000   23.719000   21.132000 H         1 <1>         0.153100 
     20 O          30.687000   20.622000   20.913000 O.2       1 <1>        -0.668600 
     21 C          24.077000   21.447000   17.158000 C.ar      1 <1>         0.365000 
     22 C          23.404000   22.299000   16.271000 C.ar      1 <1>        -0.269800 
     23 H          23.951000   23.053000   15.707000 H         1 <1>         0.188800 
     24 C          22.021000   22.193000   16.095000 C.ar      1 <1>        -0.013800 
     25 H          21.518000   22.868000   15.406000 H         1 <1>         0.190100 
     26 C          21.308000   21.225000   16.807000 C.ar      1 <1>        -0.521100 
     27 C          21.969000   20.352000   17.674000 C.ar      1 <1>        -0.041200 
     28 H          21.422000   19.588000   18.222000 H         1 <1>         0.188400 
     29 C          23.351000   20.464000   17.847000 C.ar      1 <1>        -0.277800 
     30 H          23.857000   19.784000   18.530000 H         1 <1>         0.195000 
     31 S          19.551000   21.072000   16.581000 S.o2      1 <1>         2.204400 
     32 O          19.019000   22.404000   16.312000 O.2       1 <1>        -0.974300 
     33 O          19.013000   20.325000   17.713000 O.2       1 <1>        -0.975000 
     34 C          19.402000   20.082000   15.117000 C.3       1 <1>        -0.733200 
     35 H          18.339000   19.939000   14.912000 H         1 <1>         0.236900 
     36 H          19.881000   19.116000   15.292000 H         1 <1>         0.193100 
     37 H          19.875000   20.605000   14.284000 H         1 <1>         0.188900 
     38 C          26.125000   22.663000   15.160000 C.ar      1 <1>         0.235000 
     39 C          25.546000   21.914000   14.126000 C.ar      1 <1>        -0.170800 
     40 H          25.294000   20.864000   14.256000 H         1 <1>         0.200700 
     41 C          25.225000   22.528000   12.913000 C.ar      1 <1>        -0.368000 
     42 H          24.768000   21.956000   12.110000 H         1 <1>         0.235700 
     43 C          25.483000   23.883000   12.738000 C.ar      1 <1>         0.554300 
     44 C          26.055000   24.639000   13.753000 C.ar      1 <1>        -0.358800 
     45 H          26.254000   25.695000   13.597000 H         1 <1>         0.235200 
     46 C          26.378000   24.031000   14.968000 C.ar      1 <1>        -0.154500 
     47 H          26.856000   24.633000   15.738000 H         1 <1>         0.201200 
     48 F          25.173000   24.468000   11.573000 F         1 <1>        -0.361000 
@<TRIPOS>BOND
     1    1    2 ar   
     2    2    3 ar   
     3    3    4 1    
     4    3    5 ar   
     5    5    6 ar   
     6    6    1 ar   
     7    6    7 1    
     8    7    8 1    
     9    7    9 1    
    10    7   10 1    
    11    5   11 1    
    12   11   12 1    
    13   11   13 1    
    14   11   14 1    
    15   14   15 1    
    16   15   16 1    
    17   16   17 1    
    18   16   18 1    
    19   16   19 1    
    20   15   20 2    
    21    2   21 1    
    22   21   22 ar   
    23   22   23 1    
    24   22   24 ar   
    25   24   25 1    
    26   24   26 ar   
    27   26   27 ar   
    28   27   28 1    
    29   27   29 ar   
    30   29   30 1    
    31   29   21 ar   
    32   26   31 1    
    33   31   32 2    
    34   31   33 2    
    35   31   34 1    
    36   34   35 1    
    37   34   36 1    
    38   34   37 1    
    39    1   38 1    
    40   38   39 ar   
    41   39   40 1    
    42   39   41 ar   
    43   41   42 1    
    44   41   43 ar   
    45   43   44 ar   
    46   44   45 1    
    47   44   46 ar   
    48   46   47 1    
    49   46   38 ar   
    50   43   48 1    
@<TRIPOS>SUBSTRUCTURE
     1 ****        1 TEMP              0 ****  ****    0 ROOT 
@<TRIPOS>SET
UNITY_3DHIT     STATIC     ATOMS    <user>   **** Atoms matching 3D or FLEX Search
0
