#	Name:			1-38
#	Creating user name:	jeff
#	Creation time:		Fri Dec 13 09:44:06 2002

#	Modifying user name:	jeff
#	Modification time:	Fri Dec 13 09:44:08 2002

@<TRIPOS>MOLECULE
1-38
   43    45     1     0     1
SMALL
USER_CHARGES
****
From 3DB ct
@<TRIPOS>ATOM
      1 N          26.447000   22.047000   16.410000 N.pl3     1 <1>        -0.266100 
      2 C          25.530000   21.546000   17.341000 C.ar      1 <1>        -0.187000 
      3 C          26.250000   21.061000   18.419000 C.ar      1 <1>        -0.305800 
      4 H          25.817000   20.593000   19.297000 H         1 <1>         0.235600 
      5 C          27.631000   21.237000   18.166000 C.ar      1 <1>        -0.233100 
      6 C          27.733000   21.865000   16.930000 C.ar      1 <1>         0.306400 
      7 C          28.980000   22.368000   16.274000 C.3       1 <1>        -0.461300 
      8 H          29.769000   22.533000   17.016000 H         1 <1>         0.160600 
      9 H          28.820000   23.328000   15.773000 H         1 <1>         0.149700 
     10 H          29.357000   21.638000   15.552000 H         1 <1>         0.132300 
     11 C          28.741000   20.835000   19.082000 C.3       1 <1>         0.405200 
     12 H          29.643000   20.590000   18.511000 H         1 <1>        -0.043800 
     13 H          28.456000   19.953000   19.665000 H         1 <1>        -0.004400 
     14 O          29.050000   21.891000   19.990000 O.3       1 <1>        -0.671600 
     15 H          29.775000   21.538000   20.547000 H         1 <1>         0.399200 
     16 C          24.077000   21.445000   17.157000 C.ar      1 <1>         0.377000 
     17 C          23.403000   22.298000   16.270000 C.ar      1 <1>        -0.268100 
     18 H          23.950000   23.052000   15.706000 H         1 <1>         0.191300 
     19 C          22.020000   22.192000   16.095000 C.ar      1 <1>        -0.028600 
     20 H          21.516000   22.868000   15.407000 H         1 <1>         0.191400 
     21 C          21.307000   21.225000   16.808000 C.ar      1 <1>        -0.533500 
     22 C          21.968000   20.351000   17.674000 C.ar      1 <1>        -0.025400 
     23 H          21.422000   19.586000   18.222000 H         1 <1>         0.187900 
     24 C          23.351000   20.462000   17.844000 C.ar      1 <1>        -0.283800 
     25 H          23.857000   19.780000   18.526000 H         1 <1>         0.194100 
     26 S          19.549000   21.076000   16.583000 S.o2      1 <1>         2.210200 
     27 O          19.020000   22.407000   16.306000 O.2       1 <1>        -0.976400 
     28 O          19.010000   20.337000   17.721000 O.2       1 <1>        -0.978300 
     29 C          19.396000   20.077000   15.126000 C.3       1 <1>        -0.718600 
     30 H          18.333000   19.937000   14.921000 H         1 <1>         0.231400 
     31 H          19.870000   19.110000   15.306000 H         1 <1>         0.187500 
     32 H          19.871000   20.593000   14.289000 H         1 <1>         0.186300 
     33 C          26.126000   22.665000   15.161000 C.ar      1 <1>         0.234000 
     34 C          25.549000   21.913000   14.128000 C.ar      1 <1>        -0.161200 
     35 H          25.299000   20.863000   14.261000 H         1 <1>         0.190500 
     36 C          25.228000   22.523000   12.913000 C.ar      1 <1>        -0.368500 
     37 H          24.771000   21.949000   12.112000 H         1 <1>         0.234800 
     38 C          25.484000   23.878000   12.735000 C.ar      1 <1>         0.542100 
     39 C          26.055000   24.637000   13.750000 C.ar      1 <1>        -0.349400 
     40 H          26.253000   25.693000   13.590000 H         1 <1>         0.232900 
     41 C          26.376000   24.033000   14.967000 C.ar      1 <1>        -0.159100 
     42 H          26.852000   24.638000   15.736000 H         1 <1>         0.203700 
     43 F          25.174000   24.460000   11.569000 F         1 <1>        -0.360300 
@<TRIPOS>BOND
     1    1    2 ar   
     2    2    3 ar   
     3    3    4 1    
     4    3    5 ar   
     5    5    6 ar   
     6    6    1 ar   
     7    6    7 1    
     8    7    8 1    
     9    7    9 1    
    10    7   10 1    
    11    5   11 1    
    12   11   12 1    
    13   11   13 1    
    14   11   14 1    
    15   14   15 1    
    16    2   16 1    
    17   16   17 ar   
    18   17   18 1    
    19   17   19 ar   
    20   19   20 1    
    21   19   21 ar   
    22   21   22 ar   
    23   22   23 1    
    24   22   24 ar   
    25   24   25 1    
    26   24   16 ar   
    27   21   26 1    
    28   26   27 2    
    29   26   28 2    
    30   26   29 1    
    31   29   30 1    
    32   29   31 1    
    33   29   32 1    
    34    1   33 1    
    35   33   34 ar   
    36   34   35 1    
    37   34   36 ar   
    38   36   37 1    
    39   36   38 ar   
    40   38   39 ar   
    41   39   40 1    
    42   39   41 ar   
    43   41   42 1    
    44   41   33 ar   
    45   38   43 1    
@<TRIPOS>SUBSTRUCTURE
     1 ****        1 TEMP              0 ****  ****    0 ROOT 
@<TRIPOS>SET
UNITY_3DHIT     STATIC     ATOMS    <user>   **** Atoms matching 3D or FLEX Search
0
