#	Name:			1-4
#	Creating user name:	jeff
#	Creation time:		Fri Dec 13 09:43:15 2002

#	Modifying user name:	jeff
#	Modification time:	Fri Dec 13 09:43:17 2002

@<TRIPOS>MOLECULE
1-4
   36    38     1     0     1
SMALL
USER_CHARGES
****
From 3DB ct
@<TRIPOS>ATOM
      1 N          26.412000   22.040000   16.389000 N.pl3     1 <1>         0.076900 
      2 C          25.497000   21.562000   17.337000 C.ar      1 <1>        -0.285300 
      3 C          26.222000   21.144000   18.446000 C.ar      1 <1>        -0.166900 
      4 H          25.794000   20.728000   19.352000 H         1 <1>         0.198400 
      5 C          27.591000   21.284000   18.163000 C.ar      1 <1>        -0.282400 
      6 H          28.425000   21.029000   18.807000 H         1 <1>         0.220800 
      7 C          27.683000   21.799000   16.892000 C.ar      1 <1>        -0.260600 
      8 H          28.567000   22.070000   16.330000 H         1 <1>         0.253100 
      9 C          24.048000   21.416000   17.158000 C.ar      1 <1>         0.327900 
     10 C          23.335000   20.436000   17.865000 C.ar      1 <1>        -0.231900 
     11 H          23.852000   19.762000   18.547000 H         1 <1>         0.185900 
     12 C          21.952000   20.311000   17.707000 C.ar      1 <1>        -0.064400 
     13 H          21.419000   19.541000   18.261000 H         1 <1>         0.189000 
     14 C          21.276000   21.174000   16.841000 C.ar      1 <1>        -0.503200 
     15 C          21.969000   22.171000   16.149000 C.ar      1 <1>        -0.031900 
     16 H          21.448000   22.856000   15.484000 H         1 <1>         0.190700 
     17 C          23.352000   22.290000   16.312000 C.ar      1 <1>        -0.253100 
     18 H          23.884000   23.069000   15.766000 H         1 <1>         0.191100 
     19 S          19.514000   21.035000   16.649000 S.o2      1 <1>         2.195400 
     20 O          18.989000   22.367000   16.364000 O.2       1 <1>        -0.973700 
     21 O          18.989000   20.315000   17.805000 O.2       1 <1>        -0.974700 
     22 C          19.327000   20.019000   15.207000 C.3       1 <1>        -0.721500 
     23 H          18.259000   19.882000   15.025000 H         1 <1>         0.233600 
     24 H          19.800000   19.052000   15.390000 H         1 <1>         0.190600 
     25 H          19.788000   20.522000   14.355000 H         1 <1>         0.185600 
     26 C          26.158000   22.692000   15.138000 C.ar      1 <1>         0.093100 
     27 C          25.666000   21.952000   14.049000 C.ar      1 <1>        -0.139700 
     28 H          25.427000   20.894000   14.134000 H         1 <1>         0.178100 
     29 C          25.423000   22.574000   12.820000 C.ar      1 <1>        -0.363200 
     30 H          25.031000   22.004000   11.983000 H         1 <1>         0.233300 
     31 C          25.682000   23.930000   12.674000 C.ar      1 <1>         0.555500 
     32 C          26.184000   24.676000   13.732000 C.ar      1 <1>        -0.347400 
     33 H          26.397000   25.733000   13.597000 H         1 <1>         0.232800 
     34 C          26.426000   24.058000   14.963000 C.ar      1 <1>        -0.153500 
     35 H          26.867000   24.664000   15.749000 H         1 <1>         0.188700 
     36 F          25.451000   24.525000   11.497000 F         1 <1>        -0.367000 
@<TRIPOS>BOND
     1    1    2 ar   
     2    2    3 ar   
     3    3    4 1    
     4    3    5 ar   
     5    5    6 1    
     6    5    7 ar   
     7    7    8 1    
     8    7    1 ar   
     9    2    9 1    
    10    9   10 ar   
    11   10   11 1    
    12   10   12 ar   
    13   12   13 1    
    14   12   14 ar   
    15   14   15 ar   
    16   15   16 1    
    17   15   17 ar   
    18   17   18 1    
    19   17    9 ar   
    20   14   19 1    
    21   19   20 2    
    22   19   21 2    
    23   19   22 1    
    24   22   23 1    
    25   22   24 1    
    26   22   25 1    
    27    1   26 1    
    28   26   27 ar   
    29   27   28 1    
    30   27   29 ar   
    31   29   30 1    
    32   29   31 ar   
    33   31   32 ar   
    34   32   33 1    
    35   32   34 ar   
    36   34   35 1    
    37   34   26 ar   
    38   31   36 1    
@<TRIPOS>SUBSTRUCTURE
     1 ****        1 TEMP              0 ****  ****    0 ROOT 
@<TRIPOS>SET
UNITY_3DHIT     STATIC     ATOMS    <user>   **** Atoms matching 3D or FLEX Search
0
