#	Name:			1-41
#	Creating user name:	jeff
#	Creation time:		Fri Dec 13 09:44:08 2002

#	Modifying user name:	jeff
#	Modification time:	Fri Dec 13 09:44:10 2002

@<TRIPOS>MOLECULE
1-41
   46    48     1     0     1
SMALL
USER_CHARGES
****
From 3DB ct
@<TRIPOS>ATOM
      1 N          26.448000   22.049000   16.412000 N.pl3     1 <1>        -0.204700 
      2 C          25.530000   21.546000   17.340000 C.ar      1 <1>        -0.250600 
      3 C          26.250000   21.049000   18.412000 C.ar      1 <1>        -0.234700 
      4 H          25.813000   20.568000   19.280000 H         1 <1>         0.244700 
      5 C          27.635000   21.233000   18.168000 C.ar      1 <1>        -0.010200 
      6 C          27.735000   21.874000   16.935000 C.ar      1 <1>         0.099500 
      7 C          28.975000   22.386000   16.268000 C.3       1 <1>        -0.282200 
      8 H          29.762000   22.581000   17.003000 H         1 <1>         0.098500 
      9 H          28.799000   23.334000   15.750000 H         1 <1>         0.107700 
     10 H          29.362000   21.649000   15.559000 H         1 <1>         0.117500 
     11 C          28.738000   20.803000   19.114000 C.3       1 <1>        -0.188400 
     12 H          29.611000   20.482000   18.538000 H         1 <1>         0.163600 
     13 C          29.153000   21.913000   20.109000 C.3       1 <1>         1.327900 
     14 F          28.127000   22.309000   20.906000 F         1 <1>        -0.414500 
     15 F          30.139000   21.471000   20.939000 F         1 <1>        -0.439200 
     16 F          29.636000   23.022000   19.494000 F         1 <1>        -0.439300 
     17 O          28.235000   19.691000   19.896000 O.3       1 <1>        -0.537400 
     18 H          28.972000   19.442000   20.493000 H         1 <1>         0.408500 
     19 C          24.078000   21.447000   17.157000 C.ar      1 <1>         0.374000 
     20 C          23.404000   22.299000   16.270000 C.ar      1 <1>        -0.296600 
     21 H          23.951000   23.053000   15.706000 H         1 <1>         0.195800 
     22 C          22.021000   22.194000   16.095000 C.ar      1 <1>        -0.003900 
     23 H          21.517000   22.868000   15.406000 H         1 <1>         0.189900 
     24 C          21.308000   21.227000   16.807000 C.ar      1 <1>        -0.491300 
     25 C          21.968000   20.354000   17.675000 C.ar      1 <1>        -0.077300 
     26 H          21.421000   19.590000   18.223000 H         1 <1>         0.189200 
     27 C          23.351000   20.466000   17.846000 C.ar      1 <1>        -0.250200 
     28 H          23.856000   19.785000   18.530000 H         1 <1>         0.200300 
     29 S          19.550000   21.076000   16.581000 S.o2      1 <1>         2.184900 
     30 O          19.020000   22.407000   16.300000 O.2       1 <1>        -0.971400 
     31 O          19.010000   20.340000   17.721000 O.2       1 <1>        -0.968200 
     32 C          19.400000   20.073000   15.127000 C.3       1 <1>        -0.731400 
     33 H          18.337000   19.929000   14.922000 H         1 <1>         0.239200 
     34 H          19.878000   19.108000   15.309000 H         1 <1>         0.194900 
     35 H          19.873000   20.588000   14.289000 H         1 <1>         0.185500 
     36 C          26.125000   22.665000   15.162000 C.ar      1 <1>         0.273400 
     37 C          25.547000   21.910000   14.131000 C.ar      1 <1>        -0.168900 
     38 H          25.300000   20.860000   14.267000 H         1 <1>         0.194900 
     39 C          25.226000   22.518000   12.915000 C.ar      1 <1>        -0.367800 
     40 H          24.770000   21.941000   12.115000 H         1 <1>         0.239200 
     41 C          25.481000   23.872000   12.734000 C.ar      1 <1>         0.546400 
     42 C          26.051000   24.634000   13.747000 C.ar      1 <1>        -0.329600 
     43 H          26.248000   25.690000   13.585000 H         1 <1>         0.231800 
     44 C          26.374000   24.032000   14.966000 C.ar      1 <1>        -0.208800 
     45 H          26.849000   24.639000   15.733000 H         1 <1>         0.218200 
     46 F          25.172000   24.451000   11.566000 F         1 <1>        -0.358400 
@<TRIPOS>BOND
     1    1    2 ar   
     2    2    3 ar   
     3    3    4 1    
     4    3    5 ar   
     5    5    6 ar   
     6    6    1 ar   
     7    6    7 1    
     8    7    8 1    
     9    7    9 1    
    10    7   10 1    
    11    5   11 1    
    12   11   12 1    
    13   11   13 1    
    14   13   14 1    
    15   13   15 1    
    16   13   16 1    
    17   11   17 1    
    18   17   18 1    
    19    2   19 1    
    20   19   20 ar   
    21   20   21 1    
    22   20   22 ar   
    23   22   23 1    
    24   22   24 ar   
    25   24   25 ar   
    26   25   26 1    
    27   25   27 ar   
    28   27   28 1    
    29   27   19 ar   
    30   24   29 1    
    31   29   30 2    
    32   29   31 2    
    33   29   32 1    
    34   32   33 1    
    35   32   34 1    
    36   32   35 1    
    37    1   36 1    
    38   36   37 ar   
    39   37   38 1    
    40   37   39 ar   
    41   39   40 1    
    42   39   41 ar   
    43   41   42 ar   
    44   42   43 1    
    45   42   44 ar   
    46   44   45 1    
    47   44   36 ar   
    48   41   46 1    
@<TRIPOS>SUBSTRUCTURE
     1 ****        1 TEMP              0 ****  ****    0 ROOT 
@<TRIPOS>SET
UNITY_3DHIT     STATIC     ATOMS    <user>   **** Atoms matching 3D or FLEX Search
0
