#	Name:			1-42
#	Creating user name:	jeff
#	Creation time:		Fri Dec 13 09:44:11 2002

#	Modifying user name:	jeff
#	Modification time:	Fri Dec 13 09:44:13 2002

@<TRIPOS>MOLECULE
1-42
   45    47     1     0     1
SMALL
USER_CHARGES
****
From 3DB ct
@<TRIPOS>ATOM
      1 N          26.447000   22.046000   16.409000 N.pl3     1 <1>        -0.206800 
      2 C          25.530000   21.547000   17.341000 C.ar      1 <1>        -0.263300 
      3 C          26.250000   21.056000   18.416000 C.ar      1 <1>        -0.328800 
      4 H          25.814000   20.582000   19.289000 H         1 <1>         0.247500 
      5 C          27.630000   21.241000   18.167000 C.ar      1 <1>         0.138000 
      6 C          27.734000   21.867000   16.931000 C.ar      1 <1>         0.059900 
      7 C          28.979000   22.368000   16.266000 C.3       1 <1>        -0.292500 
      8 H          29.770000   22.538000   17.003000 H         1 <1>         0.113500 
      9 H          28.816000   23.326000   15.763000 H         1 <1>         0.117100 
     10 H          29.352000   21.635000   15.546000 H         1 <1>         0.115500 
     11 C          28.745000   20.827000   19.091000 C.3       1 <1>        -0.780000 
     12 H          29.650000   20.623000   18.507000 H         1 <1>         0.233500 
     13 H          28.472000   19.879000   19.570000 H         1 <1>         0.244100 
     14 C          29.070000   21.843000   20.172000 C.3       1 <1>         1.551000 
     15 F          28.017000   22.085000   20.991000 F         1 <1>        -0.466700 
     16 F          30.085000   21.403000   20.964000 F         1 <1>        -0.481400 
     17 F          29.467000   23.035000   19.661000 F         1 <1>        -0.466500 
     18 C          24.076000   21.448000   17.158000 C.ar      1 <1>         0.416800 
     19 C          23.401000   22.299000   16.271000 C.ar      1 <1>        -0.293600 
     20 H          23.948000   23.052000   15.704000 H         1 <1>         0.193600 
     21 C          22.018000   22.193000   16.096000 C.ar      1 <1>        -0.015700 
     22 H          21.514000   22.867000   15.406000 H         1 <1>         0.192400 
     23 C          21.306000   21.227000   16.810000 C.ar      1 <1>        -0.519700 
     24 C          21.967000   20.355000   17.678000 C.ar      1 <1>        -0.051300 
     25 H          21.421000   19.590000   18.226000 H         1 <1>         0.193100 
     26 C          23.350000   20.467000   17.849000 C.ar      1 <1>        -0.277700 
     27 H          23.856000   19.786000   18.531000 H         1 <1>         0.201400 
     28 S          19.549000   21.071000   16.582000 S.o2      1 <1>         2.207600 
     29 O          19.014000   22.402000   16.312000 O.2       1 <1>        -0.974600 
     30 O          19.011000   20.324000   17.715000 O.2       1 <1>        -0.973600 
     31 C          19.401000   20.079000   15.120000 C.3       1 <1>        -0.731300 
     32 H          18.338000   19.933000   14.915000 H         1 <1>         0.237500 
     33 H          19.882000   19.115000   15.293000 H         1 <1>         0.192000 
     34 H          19.870000   20.603000   14.285000 H         1 <1>         0.188000 
     35 C          26.126000   22.665000   15.161000 C.ar      1 <1>         0.330000 
     36 C          25.551000   21.913000   14.126000 C.ar      1 <1>        -0.207700 
     37 H          25.301000   20.863000   14.258000 H         1 <1>         0.199800 
     38 C          25.233000   22.524000   12.911000 C.ar      1 <1>        -0.352200 
     39 H          24.778000   21.950000   12.108000 H         1 <1>         0.236600 
     40 C          25.490000   23.878000   12.733000 C.ar      1 <1>         0.529900 
     41 C          26.057000   24.637000   13.750000 C.ar      1 <1>        -0.310600 
     42 H          26.256000   25.693000   13.591000 H         1 <1>         0.230000 
     43 C          26.376000   24.032000   14.968000 C.ar      1 <1>        -0.243200 
     44 H          26.850000   24.637000   15.738000 H         1 <1>         0.225500 
     45 F          25.185000   24.461000   11.566000 F         1 <1>        -0.357200 
@<TRIPOS>BOND
     1    1    2 ar   
     2    2    3 ar   
     3    3    4 1    
     4    3    5 ar   
     5    5    6 ar   
     6    6    1 ar   
     7    6    7 1    
     8    7    8 1    
     9    7    9 1    
    10    7   10 1    
    11    5   11 1    
    12   11   12 1    
    13   11   13 1    
    14   11   14 1    
    15   14   15 1    
    16   14   16 1    
    17   14   17 1    
    18    2   18 1    
    19   18   19 ar   
    20   19   20 1    
    21   19   21 ar   
    22   21   22 1    
    23   21   23 ar   
    24   23   24 ar   
    25   24   25 1    
    26   24   26 ar   
    27   26   27 1    
    28   26   18 ar   
    29   23   28 1    
    30   28   29 2    
    31   28   30 2    
    32   28   31 1    
    33   31   32 1    
    34   31   33 1    
    35   31   34 1    
    36    1   35 1    
    37   35   36 ar   
    38   36   37 1    
    39   36   38 ar   
    40   38   39 1    
    41   38   40 ar   
    42   40   41 ar   
    43   41   42 1    
    44   41   43 ar   
    45   43   44 1    
    46   43   35 ar   
    47   40   45 1    
@<TRIPOS>SUBSTRUCTURE
     1 ****        1 TEMP              0 ****  ****    0 ROOT 
@<TRIPOS>SET
UNITY_3DHIT     STATIC     ATOMS    <user>   **** Atoms matching 3D or FLEX Search
0
