#	Name:			1-5
#	Creating user name:	jeff
#	Creation time:		Fri Dec 13 09:43:17 2002

#	Modifying user name:	jeff
#	Modification time:	Fri Dec 13 09:43:19 2002

@<TRIPOS>MOLECULE
1-5
   39    41     1     0     1
SMALL
USER_CHARGES
****
From 3DB ct
@<TRIPOS>ATOM
      1 N          26.445000   22.042000   16.404000 N.pl3     1 <1>        -0.258600 
      2 C          25.527000   21.549000   17.343000 C.ar      1 <1>        -0.170600 
      3 C          26.246000   21.074000   18.428000 C.ar      1 <1>        -0.209300 
      4 H          25.816000   20.617000   19.313000 H         1 <1>         0.206700 
      5 C          27.613000   21.246000   18.161000 C.ar      1 <1>        -0.380600 
      6 H          28.438000   20.980000   18.813000 H         1 <1>         0.237300 
      7 C          27.729000   21.851000   16.925000 C.ar      1 <1>         0.205200 
      8 C          28.992000   22.322000   16.282000 C.3       1 <1>        -0.348900 
      9 H          29.782000   22.433000   17.033000 H         1 <1>         0.117300 
     10 H          28.868000   23.299000   15.806000 H         1 <1>         0.111700 
     11 H          29.345000   21.597000   15.543000 H         1 <1>         0.115700 
     12 C          24.074000   21.447000   17.160000 C.ar      1 <1>         0.302200 
     13 C          23.398000   22.297000   16.273000 C.ar      1 <1>        -0.249100 
     14 H          23.944000   23.052000   15.708000 H         1 <1>         0.186000 
     15 C          22.015000   22.189000   16.098000 C.ar      1 <1>        -0.023500 
     16 H          21.510000   22.862000   15.409000 H         1 <1>         0.187800 
     17 C          21.305000   21.221000   16.811000 C.ar      1 <1>        -0.524300 
     18 C          21.967000   20.348000   17.678000 C.ar      1 <1>        -0.049000 
     19 H          21.422000   19.583000   18.227000 H         1 <1>         0.188300 
     20 C          23.349000   20.463000   17.849000 C.ar      1 <1>        -0.232900 
     21 H          23.857000   19.783000   18.532000 H         1 <1>         0.186800 
     22 S          19.547000   21.068000   16.588000 S.o2      1 <1>         2.203800 
     23 O          19.012000   22.402000   16.332000 O.2       1 <1>        -0.977400 
     24 O          19.012000   20.311000   17.715000 O.2       1 <1>        -0.977100 
     25 C          19.395000   20.090000   15.116000 C.3       1 <1>        -0.722000 
     26 H          18.332000   19.948000   14.912000 H         1 <1>         0.232100 
     27 H          19.875000   19.124000   15.280000 H         1 <1>         0.190300 
     28 H          19.864000   20.621000   14.286000 H         1 <1>         0.184600 
     29 C          26.129000   22.666000   15.157000 C.ar      1 <1>         0.333800 
     30 C          25.558000   21.922000   14.117000 C.ar      1 <1>        -0.253200 
     31 H          25.305000   20.872000   14.241000 H         1 <1>         0.178900 
     32 C          25.244000   22.538000   12.902000 C.ar      1 <1>        -0.120300 
     33 H          24.790000   21.958000   12.101000 H         1 <1>         0.155100 
     34 C          25.499000   23.896000   12.719000 C.ar      1 <1>        -0.160500 
     35 H          25.253000   24.374000   11.773000 H         1 <1>         0.155700 
     36 C          26.067000   24.642000   13.750000 C.ar      1 <1>        -0.119100 
     37 H          26.271000   25.701000   13.606000 H         1 <1>         0.159500 
     38 C          26.381000   24.032000   14.967000 C.ar      1 <1>        -0.244300 
     39 H          26.854000   24.635000   15.739000 H         1 <1>         0.182400 
@<TRIPOS>BOND
     1    1    2 ar   
     2    2    3 ar   
     3    3    4 1    
     4    3    5 ar   
     5    5    6 1    
     6    5    7 ar   
     7    7    1 ar   
     8    7    8 1    
     9    8    9 1    
    10    8   10 1    
    11    8   11 1    
    12    2   12 1    
    13   12   13 ar   
    14   13   14 1    
    15   13   15 ar   
    16   15   16 1    
    17   15   17 ar   
    18   17   18 ar   
    19   18   19 1    
    20   18   20 ar   
    21   20   21 1    
    22   20   12 ar   
    23   17   22 1    
    24   22   23 2    
    25   22   24 2    
    26   22   25 1    
    27   25   26 1    
    28   25   27 1    
    29   25   28 1    
    30    1   29 1    
    31   29   30 ar   
    32   30   31 1    
    33   30   32 ar   
    34   32   33 1    
    35   32   34 ar   
    36   34   35 1    
    37   34   36 ar   
    38   36   37 1    
    39   36   38 ar   
    40   38   39 1    
    41   38   29 ar   
@<TRIPOS>SUBSTRUCTURE
     1 ****        1 TEMP              0 ****  ****    0 ROOT 
@<TRIPOS>SET
UNITY_3DHIT     STATIC     ATOMS    <user>   **** Atoms matching 3D or FLEX Search
0
