#	Name:			1-6
#	Creating user name:	jeff
#	Creation time:		Fri Dec 13 09:43:19 2002

#	Modifying user name:	jeff
#	Modification time:	Fri Dec 13 09:43:21 2002

@<TRIPOS>MOLECULE
1-6
   42    44     1     0     1
SMALL
USER_CHARGES
****
From 3DB ct
@<TRIPOS>ATOM
      1 N          26.445000   22.041000   16.404000 N.pl3     1 <1>        -0.328700 
      2 C          25.527000   21.548000   17.344000 C.ar      1 <1>        -0.146600 
      3 C          26.248000   21.075000   18.429000 C.ar      1 <1>        -0.197200 
      4 H          25.820000   20.619000   19.315000 H         1 <1>         0.209500 
      5 C          27.615000   21.248000   18.160000 C.ar      1 <1>        -0.367200 
      6 H          28.441000   20.983000   18.812000 H         1 <1>         0.240300 
      7 C          27.730000   21.852000   16.923000 C.ar      1 <1>         0.212300 
      8 C          28.991000   22.323000   16.277000 C.3       1 <1>        -0.351500 
      9 H          29.785000   22.428000   17.025000 H         1 <1>         0.124000 
     10 H          28.866000   23.303000   15.806000 H         1 <1>         0.113000 
     11 H          29.339000   21.601000   15.533000 H         1 <1>         0.114600 
     12 C          24.074000   21.445000   17.160000 C.ar      1 <1>         0.280100 
     13 C          23.399000   22.297000   16.274000 C.ar      1 <1>        -0.246400 
     14 H          23.945000   23.052000   15.710000 H         1 <1>         0.181600 
     15 C          22.016000   22.189000   16.098000 C.ar      1 <1>        -0.024000 
     16 H          21.512000   22.863000   15.409000 H         1 <1>         0.191800 
     17 C          21.305000   21.221000   16.811000 C.ar      1 <1>        -0.509200 
     18 C          21.966000   20.348000   17.677000 C.ar      1 <1>        -0.060200 
     19 H          21.421000   19.581000   18.224000 H         1 <1>         0.190800 
     20 C          23.349000   20.461000   17.848000 C.ar      1 <1>        -0.226200 
     21 H          23.856000   19.779000   18.529000 H         1 <1>         0.184300 
     22 S          19.547000   21.070000   16.586000 S.o2      1 <1>         2.202900 
     23 O          19.012000   22.404000   16.330000 O.2       1 <1>        -0.974500 
     24 O          19.011000   20.312000   17.712000 O.2       1 <1>        -0.975700 
     25 C          19.395000   20.094000   15.113000 C.3       1 <1>        -0.721500 
     26 H          18.332000   19.952000   14.908000 H         1 <1>         0.235500 
     27 H          19.874000   19.127000   15.278000 H         1 <1>         0.190300 
     28 H          19.866000   20.625000   14.284000 H         1 <1>         0.186300 
     29 C          26.128000   22.666000   15.158000 C.ar      1 <1>         0.503300 
     30 C          25.557000   21.922000   14.119000 C.ar      1 <1>        -0.333800 
     31 H          25.302000   20.872000   14.245000 H         1 <1>         0.202700 
     32 C          25.243000   22.538000   12.902000 C.ar      1 <1>         0.035200 
     33 H          24.785000   21.944000   12.111000 H         1 <1>         0.167000 
     34 C          25.502000   23.901000   12.700000 C.ar      1 <1>        -0.514900 
     35 C          26.065000   24.642000   13.750000 C.ar      1 <1>         0.046400 
     36 H          26.271000   25.704000   13.621000 H         1 <1>         0.167200 
     37 C          26.378000   24.031000   14.969000 C.ar      1 <1>        -0.326900 
     38 H          26.848000   24.634000   15.742000 H         1 <1>         0.205600 
     39 C          25.142000   24.566000   11.396000 C.3       1 <1>         1.511200 
     40 F          25.935000   25.637000   11.088000 F         1 <1>        -0.461600 
     41 F          23.861000   25.046000   11.382000 F         1 <1>        -0.465100 
     42 F          25.230000   23.733000   10.314000 F         1 <1>        -0.464600 
@<TRIPOS>BOND
     1    1    2 ar   
     2    2    3 ar   
     3    3    4 1    
     4    3    5 ar   
     5    5    6 1    
     6    5    7 ar   
     7    7    1 ar   
     8    7    8 1    
     9    8    9 1    
    10    8   10 1    
    11    8   11 1    
    12    2   12 1    
    13   12   13 ar   
    14   13   14 1    
    15   13   15 ar   
    16   15   16 1    
    17   15   17 ar   
    18   17   18 ar   
    19   18   19 1    
    20   18   20 ar   
    21   20   21 1    
    22   20   12 ar   
    23   17   22 1    
    24   22   23 2    
    25   22   24 2    
    26   22   25 1    
    27   25   26 1    
    28   25   27 1    
    29   25   28 1    
    30    1   29 1    
    31   29   30 ar   
    32   30   31 1    
    33   30   32 ar   
    34   32   33 1    
    35   32   34 ar   
    36   34   35 ar   
    37   35   36 1    
    38   35   37 ar   
    39   37   38 1    
    40   37   29 ar   
    41   34   39 1    
    42   39   40 1    
    43   39   41 1    
    44   39   42 1    
@<TRIPOS>SUBSTRUCTURE
     1 ****        1 TEMP              0 ****  ****    0 ROOT 
@<TRIPOS>SET
UNITY_3DHIT     STATIC     ATOMS    <user>   **** Atoms matching 3D or FLEX Search
0
