#	Name:			1-8
#	Creating user name:	jeff
#	Creation time:		Fri Dec 13 09:43:24 2002

#	Modifying user name:	jeff
#	Modification time:	Fri Dec 13 09:43:26 2002

@<TRIPOS>MOLECULE
1-8
   44    46     1     0     1
SMALL
USER_CHARGES
****
From 3DB ct
@<TRIPOS>ATOM
      1 N          26.445000   22.041000   16.404000 N.pl3     1 <1>        -0.281300 
      2 C          25.528000   21.548000   17.343000 C.ar      1 <1>        -0.172100 
      3 C          26.248000   21.071000   18.427000 C.ar      1 <1>        -0.199600 
      4 H          25.819000   20.614000   19.312000 H         1 <1>         0.207500 
      5 C          27.615000   21.244000   18.158000 C.ar      1 <1>        -0.373500 
      6 H          28.441000   20.976000   18.809000 H         1 <1>         0.238300 
      7 C          27.730000   21.850000   16.923000 C.ar      1 <1>         0.199300 
      8 C          28.992000   22.323000   16.279000 C.3       1 <1>        -0.331700 
      9 H          29.784000   22.428000   17.029000 H         1 <1>         0.116400 
     10 H          28.867000   23.303000   15.809000 H         1 <1>         0.106900 
     11 H          29.342000   21.602000   15.535000 H         1 <1>         0.111000 
     12 C          24.074000   21.448000   17.162000 C.ar      1 <1>         0.308700 
     13 C          23.398000   22.298000   16.274000 C.ar      1 <1>        -0.258700 
     14 H          23.944000   23.052000   15.708000 H         1 <1>         0.185000 
     15 C          22.016000   22.190000   16.099000 C.ar      1 <1>        -0.014400 
     16 H          21.511000   22.863000   15.408000 H         1 <1>         0.187000 
     17 C          21.304000   21.223000   16.812000 C.ar      1 <1>        -0.523000 
     18 C          21.966000   20.352000   17.681000 C.ar      1 <1>        -0.048700 
     19 H          21.420000   19.587000   18.230000 H         1 <1>         0.188700 
     20 C          23.348000   20.467000   17.852000 C.ar      1 <1>        -0.239400 
     21 H          23.855000   19.787000   18.536000 H         1 <1>         0.187300 
     22 S          19.548000   21.065000   16.583000 S.o2      1 <1>         2.207500 
     23 O          19.010000   22.398000   16.324000 O.2       1 <1>        -0.978400 
     24 O          19.011000   20.307000   17.709000 O.2       1 <1>        -0.978800 
     25 C          19.403000   20.087000   15.111000 C.3       1 <1>        -0.720700 
     26 H          18.340000   19.936000   14.908000 H         1 <1>         0.233100 
     27 H          19.890000   19.123000   15.276000 H         1 <1>         0.191400 
     28 H          19.868000   20.620000   14.281000 H         1 <1>         0.187200 
     29 C          26.128000   22.666000   15.158000 C.ar      1 <1>         0.419000 
     30 C          25.557000   21.923000   14.118000 C.ar      1 <1>        -0.301700 
     31 H          25.304000   20.873000   14.244000 H         1 <1>         0.193200 
     32 C          25.242000   22.537000   12.899000 C.ar      1 <1>        -0.050000 
     33 H          24.790000   21.926000   12.121000 H         1 <1>         0.181600 
     34 C          25.494000   23.900000   12.706000 C.ar      1 <1>        -0.272900 
     35 C          26.064000   24.641000   13.749000 C.ar      1 <1>        -0.043000 
     36 H          26.276000   25.701000   13.623000 H         1 <1>         0.155800 
     37 C          26.379000   24.031000   14.968000 C.ar      1 <1>        -0.314600 
     38 H          26.852000   24.634000   15.740000 H         1 <1>         0.198500 
     39 C          25.174000   24.593000   11.420000 C.2       1 <1>         0.705800 
     40 O          24.670000   23.965000   10.486000 O.2       1 <1>        -0.550300 
     41 C          25.476000   26.064000   11.290000 C.3       1 <1>        -0.380300 
     42 H          25.172000   26.406000   10.296000 H         1 <1>         0.103500 
     43 H          26.550000   26.241000   11.396000 H         1 <1>         0.109200 
     44 H          24.910000   26.634000   12.031000 H         1 <1>         0.111200 
@<TRIPOS>BOND
     1    1    2 ar   
     2    2    3 ar   
     3    3    4 1    
     4    3    5 ar   
     5    5    6 1    
     6    5    7 ar   
     7    7    1 ar   
     8    7    8 1    
     9    8    9 1    
    10    8   10 1    
    11    8   11 1    
    12    2   12 1    
    13   12   13 ar   
    14   13   14 1    
    15   13   15 ar   
    16   15   16 1    
    17   15   17 ar   
    18   17   18 ar   
    19   18   19 1    
    20   18   20 ar   
    21   20   21 1    
    22   20   12 ar   
    23   17   22 1    
    24   22   23 2    
    25   22   24 2    
    26   22   25 1    
    27   25   26 1    
    28   25   27 1    
    29   25   28 1    
    30    1   29 1    
    31   29   30 ar   
    32   30   31 1    
    33   30   32 ar   
    34   32   33 1    
    35   32   34 ar   
    36   34   35 ar   
    37   35   36 1    
    38   35   37 ar   
    39   37   38 1    
    40   37   29 ar   
    41   34   39 1    
    42   39   40 2    
    43   39   41 1    
    44   41   42 1    
    45   41   43 1    
    46   41   44 1    
@<TRIPOS>SUBSTRUCTURE
     1 ****        1 TEMP              0 ****  ****    0 ROOT 
@<TRIPOS>SET
UNITY_3DHIT     STATIC     ATOMS    <user>   **** Atoms matching 3D or FLEX Search
0
