#	Name:			1-9
#	Creating user name:	jeff
#	Creation time:		Fri Dec 13 09:43:26 2002

#	Modifying user name:	jeff
#	Modification time:	Fri Dec 13 09:43:28 2002

@<TRIPOS>MOLECULE
1-9
   39    41     1     0     1
SMALL
USER_CHARGES
****
From 3DB ct
@<TRIPOS>ATOM
      1 N          26.444000   22.046000   16.406000 N.pl3     1 <1>        -0.071200 
      2 C          25.527000   21.547000   17.342000 C.ar      1 <1>        -0.294300 
      3 C          26.248000   21.070000   18.425000 C.ar      1 <1>        -0.179500 
      4 H          25.821000   20.611000   19.310000 H         1 <1>         0.209500 
      5 C          27.616000   21.246000   18.156000 C.ar      1 <1>        -0.362800 
      6 H          28.442000   20.978000   18.806000 H         1 <1>         0.242400 
      7 C          27.729000   21.855000   16.922000 C.ar      1 <1>         0.124800 
      8 C          28.990000   22.330000   16.279000 C.3       1 <1>        -0.279400 
      9 H          29.783000   22.433000   17.028000 H         1 <1>         0.109700 
     10 H          28.864000   23.312000   15.812000 H         1 <1>         0.095100 
     11 H          29.340000   21.612000   15.532000 H         1 <1>         0.104600 
     12 C          24.075000   21.444000   17.159000 C.ar      1 <1>         0.385500 
     13 C          23.400000   22.297000   16.273000 C.ar      1 <1>        -0.294700 
     14 H          23.945000   23.051000   15.709000 H         1 <1>         0.200600 
     15 C          22.017000   22.191000   16.099000 C.ar      1 <1>        -0.012600 
     16 H          21.512000   22.866000   15.412000 H         1 <1>         0.189600 
     17 C          21.305000   21.223000   16.812000 C.ar      1 <1>        -0.516900 
     18 C          21.967000   20.348000   17.677000 C.ar      1 <1>        -0.055300 
     19 H          21.421000   19.583000   18.225000 H         1 <1>         0.191800 
     20 C          23.349000   20.461000   17.847000 C.ar      1 <1>        -0.263600 
     21 H          23.856000   19.780000   18.529000 H         1 <1>         0.195800 
     22 S          19.547000   21.072000   16.587000 S.o2      1 <1>         2.210700 
     23 O          19.015000   22.404000   16.318000 O.2       1 <1>        -0.976300 
     24 O          19.009000   20.325000   17.720000 O.2       1 <1>        -0.977000 
     25 C          19.396000   20.082000   15.123000 C.3       1 <1>        -0.724800 
     26 H          18.333000   19.941000   14.918000 H         1 <1>         0.235100 
     27 H          19.872000   19.115000   15.297000 H         1 <1>         0.189800 
     28 H          19.869000   20.604000   14.289000 H         1 <1>         0.185700 
     29 C          26.123000   22.674000   15.162000 C.ar      1 <1>         0.217400 
     30 C          26.373000   24.039000   14.974000 C.ar      1 <1>        -0.446900 
     31 H          26.846000   24.650000   15.737000 H         1 <1>         0.289700 
     32 C          26.063000   24.631000   13.753000 C.ar      1 <1>         0.420100 
     33 C          25.509000   23.883000   12.722000 C.ar      1 <1>         0.328400 
     34 C          25.256000   22.528000   12.895000 C.ar      1 <1>        -0.295300 
     35 H          24.816000   21.950000   12.087000 H         1 <1>         0.247100 
     36 C          25.563000   21.920000   14.116000 C.ar      1 <1>        -0.198800 
     37 H          25.325000   20.866000   14.240000 H         1 <1>         0.200400 
     38 F          25.216000   24.467000   11.551000 F         1 <1>        -0.309300 
     39 F          26.315000   25.936000   13.571000 F         1 <1>        -0.314800 
@<TRIPOS>BOND
     1    1    2 ar   
     2    2    3 ar   
     3    3    4 1    
     4    3    5 ar   
     5    5    6 1    
     6    5    7 ar   
     7    7    1 ar   
     8    7    8 1    
     9    8    9 1    
    10    8   10 1    
    11    8   11 1    
    12    2   12 1    
    13   12   13 ar   
    14   13   14 1    
    15   13   15 ar   
    16   15   16 1    
    17   15   17 ar   
    18   17   18 ar   
    19   18   19 1    
    20   18   20 ar   
    21   20   21 1    
    22   20   12 ar   
    23   17   22 1    
    24   22   23 2    
    25   22   24 2    
    26   22   25 1    
    27   25   26 1    
    28   25   27 1    
    29   25   28 1    
    30    1   29 1    
    31   29   30 ar   
    32   30   31 1    
    33   30   32 ar   
    34   32   33 ar   
    35   33   34 ar   
    36   34   35 1    
    37   34   36 ar   
    38   36   37 1    
    39   36   29 ar   
    40   33   38 1    
    41   32   39 1    
@<TRIPOS>SUBSTRUCTURE
     1 ****        1 TEMP              0 ****  ****    0 ROOT 
@<TRIPOS>SET
UNITY_3DHIT     STATIC     ATOMS    <user>   **** Atoms matching 3D or FLEX Search
0
