#	Name:			10-2
#	Creating user name:	jeff
#	Creation time:		Fri Dec 13 09:57:44 2002

#	Modifying user name:	jeff
#	Modification time:	Fri Dec 13 09:57:46 2002

@<TRIPOS>MOLECULE
10-2
   36    38     1     0     1
SMALL
USER_CHARGES
****
From 3DB ct
@<TRIPOS>ATOM
      1 C          26.418000   22.076000   16.405000 C.ar      1 <1>         0.476700 
      2 C          25.443000   21.485000   17.268000 C.ar      1 <1>        -0.689600 
      3 C          26.169000   21.049000   18.356000 C.ar      1 <1>         0.524300 
      4 O          27.481000   21.340000   18.162000 O.3       1 <1>        -0.156000 
      5 N          27.643000   21.986000   16.955000 N.ar      1 <1>        -0.339400 
      6 C          25.834000   20.380000   19.630000 C.3       1 <1>        -0.452700 
      7 H          25.695000   19.306000   19.471000 H         1 <1>         0.151700 
      8 H          24.913000   20.790000   20.057000 H         1 <1>         0.141500 
      9 H          26.632000   20.514000   20.368000 H         1 <1>         0.156800 
     10 C          24.001000   21.378000   17.159000 C.ar      1 <1>         0.444100 
     11 C          23.295000   22.246000   16.314000 C.ar      1 <1>        -0.336800 
     12 H          23.816000   23.011000   15.741000 H         1 <1>         0.212700 
     13 C          21.906000   22.143000   16.198000 C.ar      1 <1>         0.065600 
     14 H          21.370000   22.823000   15.540000 H         1 <1>         0.179500 
     15 C          21.219000   21.173000   16.934000 C.ar      1 <1>        -0.612300 
     16 C          21.913000   20.296000   17.771000 C.ar      1 <1>        -0.009400 
     17 H          21.388000   19.532000   18.339000 H         1 <1>         0.196300 
     18 C          23.303000   20.402000   17.884000 C.ar      1 <1>        -0.246900 
     19 H          23.832000   19.708000   18.535000 H         1 <1>         0.170200 
     20 S          19.461000   21.032000   16.759000 S.o2      1 <1>         2.466200 
     21 O          18.898000   22.338000   16.464000 O.2       1 <1>        -1.002400 
     22 O          18.939000   20.234000   17.854000 O.2       1 <1>        -1.002200 
     23 N          19.319000   20.117000   15.363000 N.pl3     1 <1>        -1.290200 
     24 H          18.835000   20.639000   14.628000 H         1 <1>         0.477000 
     25 H          18.856000   19.224000   15.553000 H         1 <1>         0.476600 
     26 C          26.233000   22.706000   15.098000 C.ar      1 <1>        -0.169000 
     27 C          26.497000   24.074000   14.929000 C.ar      1 <1>        -0.062700 
     28 H          26.838000   24.678000   15.769000 H         1 <1>         0.156200 
     29 C          26.317000   24.685000   13.686000 C.ar      1 <1>        -0.180600 
     30 H          26.521000   25.748000   13.568000 H         1 <1>         0.154600 
     31 C          25.877000   23.935000   12.597000 C.ar      1 <1>        -0.077100 
     32 H          25.736000   24.411000   11.629000 H         1 <1>         0.139800 
     33 C          25.619000   22.574000   12.749000 C.ar      1 <1>        -0.184500 
     34 H          25.281000   21.985000   11.898000 H         1 <1>         0.151200 
     35 C          25.799000   21.961000   13.992000 C.ar      1 <1>        -0.063900 
     36 H          25.603000   20.893000   14.080000 H         1 <1>         0.135100 
@<TRIPOS>BOND
     1    1    2 ar   
     2    2    3 ar   
     3    3    4 ar   
     4    4    5 ar   
     5    5    1 ar   
     6    3    6 1    
     7    6    7 1    
     8    6    8 1    
     9    6    9 1    
    10    2   10 1    
    11   10   11 ar   
    12   11   12 1    
    13   11   13 ar   
    14   13   14 1    
    15   13   15 ar   
    16   15   16 ar   
    17   16   17 1    
    18   16   18 ar   
    19   18   19 1    
    20   18   10 ar   
    21   15   20 1    
    22   20   21 2    
    23   20   22 2    
    24   20   23 1    
    25   23   24 1    
    26   23   25 1    
    27    1   26 1    
    28   26   27 ar   
    29   27   28 1    
    30   27   29 ar   
    31   29   30 1    
    32   29   31 ar   
    33   31   32 1    
    34   31   33 ar   
    35   33   34 1    
    36   33   35 ar   
    37   35   36 1    
    38   35   26 ar   
@<TRIPOS>SUBSTRUCTURE
     1 ****        1 TEMP              0 ****  ****    0 ROOT 
@<TRIPOS>SET
UNITY_3DHIT     STATIC     ATOMS    <user>   **** Atoms matching 3D or FLEX Search
0
