#	Name:			10-3
#	Creating user name:	jeff
#	Creation time:		Fri Dec 13 09:57:46 2002

#	Modifying user name:	jeff
#	Modification time:	Fri Dec 13 09:57:48 2002

@<TRIPOS>MOLECULE
10-3
   37    39     1     0     1
SMALL
USER_CHARGES
****
From 3DB ct
@<TRIPOS>ATOM
      1 C          26.418000   22.076000   16.406000 C.ar      1 <1>         0.473400 
      2 C          25.446000   21.481000   17.271000 C.ar      1 <1>        -0.532000 
      3 C          26.176000   21.042000   18.357000 C.ar      1 <1>         0.332200 
      4 O          27.487000   21.343000   18.160000 O.3       1 <1>        -0.139900 
      5 N          27.644000   21.993000   16.954000 N.ar      1 <1>        -0.326900 
      6 C          25.853000   20.374000   19.635000 C.3       1 <1>         0.185700 
      7 H          24.828000   20.585000   19.955000 H         1 <1>         0.026700 
      8 H          26.543000   20.680000   20.428000 H         1 <1>         0.052700 
      9 O          25.994000   18.971000   19.419000 O.3       1 <1>        -0.634300 
     10 H          25.779000   18.562000   20.284000 H         1 <1>         0.426300 
     11 C          24.004000   21.378000   17.163000 C.ar      1 <1>         0.323400 
     12 C          23.300000   22.247000   16.317000 C.ar      1 <1>        -0.345700 
     13 H          23.823000   23.011000   15.745000 H         1 <1>         0.205600 
     14 C          21.911000   22.145000   16.198000 C.ar      1 <1>         0.077200 
     15 H          21.376000   22.826000   15.539000 H         1 <1>         0.173200 
     16 C          21.221000   21.175000   16.931000 C.ar      1 <1>        -0.565700 
     17 C          21.912000   20.299000   17.771000 C.ar      1 <1>        -0.120500 
     18 H          21.385000   19.535000   18.338000 H         1 <1>         0.210500 
     19 C          23.302000   20.403000   17.887000 C.ar      1 <1>        -0.063400 
     20 H          23.830000   19.710000   18.540000 H         1 <1>         0.141600 
     21 S          19.464000   21.036000   16.749000 S.o2      1 <1>         2.457700 
     22 O          18.902000   22.342000   16.452000 O.2       1 <1>        -1.005200 
     23 O          18.938000   20.239000   17.843000 O.2       1 <1>        -0.999500 
     24 N          19.326000   20.121000   15.352000 N.pl3     1 <1>        -1.302700 
     25 H          18.848000   20.645000   14.614000 H         1 <1>         0.478700 
     26 H          18.858000   19.230000   15.540000 H         1 <1>         0.484800 
     27 C          26.228000   22.706000   15.099000 C.ar      1 <1>        -0.201500 
     28 C          26.490000   24.074000   14.929000 C.ar      1 <1>        -0.052700 
     29 H          26.831000   24.679000   15.768000 H         1 <1>         0.147200 
     30 C          26.311000   24.683000   13.685000 C.ar      1 <1>        -0.180700 
     31 H          26.514000   25.745000   13.566000 H         1 <1>         0.153600 
     32 C          25.871000   23.931000   12.597000 C.ar      1 <1>        -0.073800 
     33 H          25.732000   24.405000   11.627000 H         1 <1>         0.139600 
     34 C          25.613000   22.570000   12.751000 C.ar      1 <1>        -0.209400 
     35 H          25.274000   21.981000   11.901000 H         1 <1>         0.156900 
     36 C          25.792000   21.959000   13.995000 C.ar      1 <1>        -0.001400 
     37 H          25.597000   20.891000   14.084000 H         1 <1>         0.108100 
@<TRIPOS>BOND
     1    1    2 ar   
     2    2    3 ar   
     3    3    4 ar   
     4    4    5 ar   
     5    5    1 ar   
     6    3    6 1    
     7    6    7 1    
     8    6    8 1    
     9    6    9 1    
    10    9   10 1    
    11    2   11 1    
    12   11   12 ar   
    13   12   13 1    
    14   12   14 ar   
    15   14   15 1    
    16   14   16 ar   
    17   16   17 ar   
    18   17   18 1    
    19   17   19 ar   
    20   19   20 1    
    21   19   11 ar   
    22   16   21 1    
    23   21   22 2    
    24   21   23 2    
    25   21   24 1    
    26   24   25 1    
    27   24   26 1    
    28    1   27 1    
    29   27   28 ar   
    30   28   29 1    
    31   28   30 ar   
    32   30   31 1    
    33   30   32 ar   
    34   32   33 1    
    35   32   34 ar   
    36   34   35 1    
    37   34   36 ar   
    38   36   37 1    
    39   36   27 ar   
@<TRIPOS>SUBSTRUCTURE
     1 ****        1 TEMP              0 ****  ****    0 ROOT 
@<TRIPOS>SET
UNITY_3DHIT     STATIC     ATOMS    <user>   **** Atoms matching 3D or FLEX Search
0
