#	Name:			11-13
#	Creating user name:	jeff
#	Creation time:		Fri Dec 13 09:58:03 2002

#	Modifying user name:	jeff
#	Modification time:	Fri Dec 13 09:58:05 2002

@<TRIPOS>MOLECULE
11-13
   40    42     1     0     1
SMALL
USER_CHARGES
****
From 3DB ct
@<TRIPOS>ATOM
      1 C          25.482000   21.504000   17.233000 C.ar      1 <1>        -0.629700 
      2 C          26.439000   22.072000   16.402000 C.ar      1 <1>         0.462600 
      3 N          27.741000   22.045000   16.891000 N.ar      1 <1>        -0.513700 
      4 C          27.772000   21.442000   18.061000 C.ar      1 <1>         0.062900 
      5 S          26.256000   20.887000   18.642000 S.3       1 <1>         0.232400 
      6 C          29.017000   21.229000   18.867000 C.3       1 <1>         0.079500 
      7 H          29.866000   21.116000   18.183000 H         1 <1>         0.039800 
      8 H          28.953000   20.298000   19.443000 H         1 <1>         0.036000 
      9 C          29.285000   22.395000   19.806000 C.3       1 <1>        -0.040100 
     10 H          30.213000   22.229000   20.363000 H         1 <1>         0.014300 
     11 H          28.473000   22.518000   20.530000 H         1 <1>         0.013200 
     12 H          29.385000   23.334000   19.251000 H         1 <1>         0.035200 
     13 C          26.168000   22.690000   15.110000 C.ar      1 <1>        -0.133800 
     14 C          25.667000   21.945000   14.031000 C.ar      1 <1>        -0.019800 
     15 H          25.472000   20.879000   14.130000 H         1 <1>         0.118700 
     16 C          25.420000   22.561000   12.801000 C.ar      1 <1>        -0.401900 
     17 H          25.029000   21.987000   11.966000 H         1 <1>         0.228300 
     18 C          25.682000   23.918000   12.648000 C.ar      1 <1>         0.563200 
     19 C          26.191000   24.670000   13.699000 C.ar      1 <1>        -0.357000 
     20 H          26.396000   25.728000   13.561000 H         1 <1>         0.217100 
     21 C          26.438000   24.055000   14.929000 C.ar      1 <1>        -0.081100 
     22 H          26.839000   24.649000   15.749000 H         1 <1>         0.199300 
     23 F          25.447000   24.506000   11.468000 F         1 <1>        -0.365500 
     24 C          24.025000   21.404000   17.115000 C.ar      1 <1>         0.433400 
     25 C          23.310000   20.434000   17.834000 C.ar      1 <1>        -0.189100 
     26 H          23.828000   19.738000   18.493000 H         1 <1>         0.167900 
     27 C          21.921000   20.334000   17.707000 C.ar      1 <1>        -0.087500 
     28 H          21.386000   19.571000   18.269000 H         1 <1>         0.198500 
     29 C          21.240000   21.213000   16.862000 C.ar      1 <1>        -0.503500 
     30 C          21.937000   22.178000   16.132000 C.ar      1 <1>        -0.049300 
     31 H          21.417000   22.861000   15.464000 H         1 <1>         0.203600 
     32 C          23.326000   22.272000   16.263000 C.ar      1 <1>        -0.276500 
     33 H          23.857000   23.034000   15.693000 H         1 <1>         0.193300 
     34 S          19.476000   21.069000   16.683000 S.o2      1 <1>         2.218500 
     35 O          18.938000   22.410000   16.478000 O.2       1 <1>        -0.976200 
     36 O          18.971000   20.283000   17.805000 O.2       1 <1>        -0.976000 
     37 C          19.278000   20.131000   15.192000 C.3       1 <1>        -0.756100 
     38 H          18.209000   19.997000   15.016000 H         1 <1>         0.244600 
     39 H          19.759000   19.160000   15.316000 H         1 <1>         0.198600 
     40 H          19.724000   20.683000   14.362000 H         1 <1>         0.195700 
@<TRIPOS>BOND
     1    1    2 ar   
     2    2    3 ar   
     3    3    4 ar   
     4    4    5 ar   
     5    5    1 ar   
     6    4    6 1    
     7    6    7 1    
     8    6    8 1    
     9    6    9 1    
    10    9   10 1    
    11    9   11 1    
    12    9   12 1    
    13    2   13 1    
    14   13   14 ar   
    15   14   15 1    
    16   14   16 ar   
    17   16   17 1    
    18   16   18 ar   
    19   18   19 ar   
    20   19   20 1    
    21   19   21 ar   
    22   21   22 1    
    23   21   13 ar   
    24   18   23 1    
    25    1   24 1    
    26   24   25 ar   
    27   25   26 1    
    28   25   27 ar   
    29   27   28 1    
    30   27   29 ar   
    31   29   30 ar   
    32   30   31 1    
    33   30   32 ar   
    34   32   33 1    
    35   32   24 ar   
    36   29   34 1    
    37   34   35 2    
    38   34   36 2    
    39   34   37 1    
    40   37   38 1    
    41   37   39 1    
    42   37   40 1    
@<TRIPOS>SUBSTRUCTURE
     1 ****        1 TEMP              0 ****  ****    0 ROOT 
@<TRIPOS>SET
UNITY_3DHIT     STATIC     ATOMS    <user>   **** Atoms matching 3D or FLEX Search
0
