#	Name:			11-10
#	Creating user name:	jeff
#	Creation time:		Fri Dec 13 09:57:57 2002

#	Modifying user name:	jeff
#	Modification time:	Fri Dec 13 09:57:59 2002

@<TRIPOS>MOLECULE
11-10
   37    39     1     0     1
SMALL
USER_CHARGES
****
From 3DB ct
@<TRIPOS>ATOM
      1 C          25.483000   21.503000   17.233000 C.ar      1 <1>        -0.553200 
      2 C          26.439000   22.073000   16.403000 C.ar      1 <1>         0.523400 
      3 N          27.741000   22.049000   16.892000 N.ar      1 <1>        -0.420600 
      4 C          27.782000   21.439000   18.068000 C.ar      1 <1>        -0.342300 
      5 S          26.256000   20.887000   18.643000 S.3       1 <1>         0.333800 
      6 C          29.005000   21.203000   18.911000 C.3       1 <1>         1.698200 
      7 F          29.242000   19.875000   19.141000 F         1 <1>        -0.488700 
      8 F          28.922000   21.794000   20.142000 F         1 <1>        -0.488500 
      9 F          30.146000   21.692000   18.337000 F         1 <1>        -0.483200 
     10 C          26.166000   22.690000   15.110000 C.ar      1 <1>        -0.187200 
     11 C          25.666000   21.944000   14.032000 C.ar      1 <1>         0.008900 
     12 H          25.471000   20.878000   14.132000 H         1 <1>         0.109400 
     13 C          25.419000   22.560000   12.802000 C.ar      1 <1>        -0.410400 
     14 H          25.028000   21.985000   11.968000 H         1 <1>         0.234000 
     15 C          25.680000   23.916000   12.648000 C.ar      1 <1>         0.571400 
     16 C          26.190000   24.669000   13.699000 C.ar      1 <1>        -0.346400 
     17 H          26.394000   25.727000   13.560000 H         1 <1>         0.220400 
     18 C          26.437000   24.055000   14.929000 C.ar      1 <1>        -0.071600 
     19 H          26.838000   24.651000   15.748000 H         1 <1>         0.196400 
     20 F          25.444000   24.504000   11.468000 F         1 <1>        -0.361000 
     21 C          24.026000   21.401000   17.114000 C.ar      1 <1>         0.388300 
     22 C          23.311000   20.430000   17.831000 C.ar      1 <1>        -0.191400 
     23 H          23.829000   19.733000   18.489000 H         1 <1>         0.177600 
     24 C          21.922000   20.330000   17.706000 C.ar      1 <1>        -0.069700 
     25 H          21.388000   19.567000   18.269000 H         1 <1>         0.199500 
     26 C          21.241000   21.210000   16.862000 C.ar      1 <1>        -0.487900 
     27 C          21.938000   22.176000   16.132000 C.ar      1 <1>        -0.045700 
     28 H          21.416000   22.859000   15.466000 H         1 <1>         0.205100 
     29 C          23.326000   22.270000   16.263000 C.ar      1 <1>        -0.268300 
     30 H          23.857000   23.033000   15.694000 H         1 <1>         0.192200 
     31 S          19.476000   21.076000   16.683000 S.o2      1 <1>         2.195300 
     32 O          18.944000   22.415000   16.451000 O.2       1 <1>        -0.965400 
     33 O          18.967000   20.314000   17.819000 O.2       1 <1>        -0.964700 
     34 C          19.276000   20.114000   15.206000 C.3       1 <1>        -0.753500 
     35 H          18.206000   19.988000   15.027000 H         1 <1>         0.251100 
     36 H          19.746000   19.140000   15.350000 H         1 <1>         0.199000 
     37 H          19.733000   20.647000   14.370000 H         1 <1>         0.195800 
@<TRIPOS>BOND
     1    1    2 ar   
     2    2    3 ar   
     3    3    4 ar   
     4    4    5 ar   
     5    5    1 ar   
     6    4    6 1    
     7    6    7 1    
     8    6    8 1    
     9    6    9 1    
    10    2   10 1    
    11   10   11 ar   
    12   11   12 1    
    13   11   13 ar   
    14   13   14 1    
    15   13   15 ar   
    16   15   16 ar   
    17   16   17 1    
    18   16   18 ar   
    19   18   19 1    
    20   18   10 ar   
    21   15   20 1    
    22    1   21 1    
    23   21   22 ar   
    24   22   23 1    
    25   22   24 ar   
    26   24   25 1    
    27   24   26 ar   
    28   26   27 ar   
    29   27   28 1    
    30   27   29 ar   
    31   29   30 1    
    32   29   21 ar   
    33   26   31 1    
    34   31   32 2    
    35   31   33 2    
    36   31   34 1    
    37   34   35 1    
    38   34   36 1    
    39   34   37 1    
@<TRIPOS>SUBSTRUCTURE
     1 ****        1 TEMP              0 ****  ****    0 ROOT 
@<TRIPOS>SET
UNITY_3DHIT     STATIC     ATOMS    <user>   **** Atoms matching 3D or FLEX Search
0
