#	Name:			11-16
#	Creating user name:	jeff
#	Creation time:		Fri Dec 13 09:58:08 2002

#	Modifying user name:	jeff
#	Modification time:	Fri Dec 13 09:58:10 2002

@<TRIPOS>MOLECULE
11-16
   38    40     1     0     1
SMALL
USER_CHARGES
****
From 3DB ct
@<TRIPOS>ATOM
      1 C          25.483000   21.504000   17.233000 C.ar      1 <1>        -0.585300 
      2 C          26.439000   22.073000   16.403000 C.ar      1 <1>         0.392300 
      3 N          27.741000   22.047000   16.892000 N.ar      1 <1>        -0.503600 
      4 C          27.777000   21.444000   18.064000 C.ar      1 <1>         0.179300 
      5 S          26.257000   20.887000   18.642000 S.3       1 <1>         0.189700 
      6 C          29.021000   21.216000   18.869000 C.3       1 <1>         0.024800 
      7 H          29.161000   20.138000   19.011000 H         1 <1>         0.109400 
      8 H          28.925000   21.655000   19.868000 H         1 <1>         0.109700 
      9 C          30.188000   21.778000   18.174000 C.1       1 <1>         0.084500 
     10 N          31.122000   22.223000   17.637000 N.1       1 <1>        -0.263800 
     11 C          26.167000   22.691000   15.110000 C.ar      1 <1>        -0.066000 
     12 C          25.667000   21.945000   14.032000 C.ar      1 <1>        -0.037700 
     13 H          25.473000   20.878000   14.132000 H         1 <1>         0.122400 
     14 C          25.420000   22.560000   12.802000 C.ar      1 <1>        -0.402400 
     15 H          25.030000   21.984000   11.967000 H         1 <1>         0.232300 
     16 C          25.682000   23.916000   12.648000 C.ar      1 <1>         0.557100 
     17 C          26.191000   24.669000   13.698000 C.ar      1 <1>        -0.348500 
     18 H          26.395000   25.727000   13.559000 H         1 <1>         0.221200 
     19 C          26.438000   24.056000   14.929000 C.ar      1 <1>        -0.099600 
     20 H          26.838000   24.651000   15.748000 H         1 <1>         0.200300 
     21 F          25.446000   24.504000   11.467000 F         1 <1>        -0.361100 
     22 C          24.026000   21.401000   17.114000 C.ar      1 <1>         0.409200 
     23 C          23.310000   20.430000   17.832000 C.ar      1 <1>        -0.178800 
     24 H          23.829000   19.733000   18.489000 H         1 <1>         0.172700 
     25 C          21.921000   20.330000   17.706000 C.ar      1 <1>        -0.098100 
     26 H          21.388000   19.567000   18.270000 H         1 <1>         0.199400 
     27 C          21.240000   21.210000   16.863000 C.ar      1 <1>        -0.482200 
     28 C          21.937000   22.175000   16.133000 C.ar      1 <1>        -0.042400 
     29 H          21.414000   22.858000   15.466000 H         1 <1>         0.202400 
     30 C          23.325000   22.271000   16.264000 C.ar      1 <1>        -0.278900 
     31 H          23.855000   23.033000   15.694000 H         1 <1>         0.195000 
     32 S          19.475000   21.075000   16.683000 S.o2      1 <1>         2.194700 
     33 O          18.943000   22.414000   16.450000 O.2       1 <1>        -0.969400 
     34 O          18.966000   20.314000   17.819000 O.2       1 <1>        -0.968200 
     35 C          19.276000   20.113000   15.207000 C.3       1 <1>        -0.752600 
     36 H          18.206000   19.988000   15.026000 H         1 <1>         0.248000 
     37 H          19.745000   19.138000   15.351000 H         1 <1>         0.198600 
     38 H          19.734000   20.645000   14.371000 H         1 <1>         0.195500 
@<TRIPOS>BOND
     1    1    2 ar   
     2    2    3 ar   
     3    3    4 ar   
     4    4    5 ar   
     5    5    1 ar   
     6    4    6 1    
     7    6    7 1    
     8    6    8 1    
     9    6    9 1    
    10    9   10 3    
    11    2   11 1    
    12   11   12 ar   
    13   12   13 1    
    14   12   14 ar   
    15   14   15 1    
    16   14   16 ar   
    17   16   17 ar   
    18   17   18 1    
    19   17   19 ar   
    20   19   20 1    
    21   19   11 ar   
    22   16   21 1    
    23    1   22 1    
    24   22   23 ar   
    25   23   24 1    
    26   23   25 ar   
    27   25   26 1    
    28   25   27 ar   
    29   27   28 ar   
    30   28   29 1    
    31   28   30 ar   
    32   30   31 1    
    33   30   22 ar   
    34   27   32 1    
    35   32   33 2    
    36   32   34 2    
    37   32   35 1    
    38   35   36 1    
    39   35   37 1    
    40   35   38 1    
@<TRIPOS>SUBSTRUCTURE
     1 ****        1 TEMP              0 ****  ****    0 ROOT 
@<TRIPOS>SET
UNITY_3DHIT     STATIC     ATOMS    <user>   **** Atoms matching 3D or FLEX Search
0
