#	Name:			11-14
#	Creating user name:	jeff
#	Creation time:		Fri Dec 13 09:58:05 2002

#	Modifying user name:	jeff
#	Modification time:	Fri Dec 13 09:58:08 2002

@<TRIPOS>MOLECULE
11-14
   46    48     1     0     1
SMALL
USER_CHARGES
****
From 3DB ct
@<TRIPOS>ATOM
      1 C          25.482000   21.503000   17.232000 C.ar      1 <1>        -0.599500 
      2 C          26.437000   22.072000   16.402000 C.ar      1 <1>         0.455700 
      3 N          27.737000   22.049000   16.894000 N.ar      1 <1>        -0.548400 
      4 C          27.784000   21.444000   18.065000 C.ar      1 <1>         0.046300 
      5 S          26.256000   20.890000   18.640000 S.3       1 <1>         0.193200 
      6 C          29.064000   21.238000   18.876000 C.3       1 <1>         0.599200 
      7 C          30.264000   21.843000   18.116000 C.3       1 <1>        -0.376400 
      8 H          31.197000   21.709000   18.675000 H         1 <1>         0.085300 
      9 H          30.131000   22.919000   17.948000 H         1 <1>         0.093600 
     10 H          30.396000   21.370000   17.135000 H         1 <1>         0.092200 
     11 C          29.341000   19.738000   19.083000 C.3       1 <1>        -0.420600 
     12 H          30.296000   19.580000   19.600000 H         1 <1>         0.111900 
     13 H          29.389000   19.206000   18.125000 H         1 <1>         0.095400 
     14 H          28.564000   19.257000   19.688000 H         1 <1>         0.089800 
     15 C          28.965000   21.942000   20.242000 C.3       1 <1>        -0.422500 
     16 H          29.907000   21.862000   20.797000 H         1 <1>         0.111900 
     17 H          28.181000   21.505000   20.872000 H         1 <1>         0.091400 
     18 H          28.736000   23.008000   20.123000 H         1 <1>         0.094500 
     19 C          26.168000   22.690000   15.109000 C.ar      1 <1>        -0.113100 
     20 C          25.672000   21.945000   14.028000 C.ar      1 <1>        -0.015700 
     21 H          25.477000   20.879000   14.126000 H         1 <1>         0.114900 
     22 C          25.429000   22.562000   12.798000 C.ar      1 <1>        -0.408000 
     23 H          25.042000   21.988000   11.961000 H         1 <1>         0.231100 
     24 C          25.691000   23.919000   12.646000 C.ar      1 <1>         0.557400 
     25 C          26.197000   24.671000   13.699000 C.ar      1 <1>        -0.357900 
     26 H          26.402000   25.729000   13.562000 H         1 <1>         0.218900 
     27 C          26.440000   24.055000   14.930000 C.ar      1 <1>        -0.076800 
     28 H          26.839000   24.649000   15.751000 H         1 <1>         0.191100 
     29 F          25.459000   24.508000   11.466000 F         1 <1>        -0.363500 
     30 C          24.025000   21.400000   17.113000 C.ar      1 <1>         0.417400 
     31 C          23.310000   20.429000   17.832000 C.ar      1 <1>        -0.191600 
     32 H          23.830000   19.733000   18.489000 H         1 <1>         0.173000 
     33 C          21.921000   20.329000   17.708000 C.ar      1 <1>        -0.083200 
     34 H          21.388000   19.566000   18.272000 H         1 <1>         0.195800 
     35 C          21.239000   21.209000   16.865000 C.ar      1 <1>        -0.492300 
     36 C          21.935000   22.175000   16.135000 C.ar      1 <1>        -0.049200 
     37 H          21.412000   22.858000   15.469000 H         1 <1>         0.202400 
     38 C          23.324000   22.270000   16.264000 C.ar      1 <1>        -0.273700 
     39 H          23.854000   23.032000   15.694000 H         1 <1>         0.189200 
     40 S          19.474000   21.074000   16.687000 S.o2      1 <1>         2.202000 
     41 O          18.940000   22.414000   16.465000 O.2       1 <1>        -0.972800 
     42 O          18.968000   20.303000   17.819000 O.2       1 <1>        -0.971700 
     43 C          19.273000   20.121000   15.205000 C.3       1 <1>        -0.758700 
     44 H          18.203000   19.995000   15.026000 H         1 <1>         0.247600 
     45 H          19.744000   19.146000   15.342000 H         1 <1>         0.199000 
     46 H          19.728000   20.660000   14.372000 H         1 <1>         0.195800 
@<TRIPOS>BOND
     1    1    2 ar   
     2    2    3 ar   
     3    3    4 ar   
     4    4    5 ar   
     5    5    1 ar   
     6    4    6 1    
     7    6    7 1    
     8    7    8 1    
     9    7    9 1    
    10    7   10 1    
    11    6   11 1    
    12   11   12 1    
    13   11   13 1    
    14   11   14 1    
    15    6   15 1    
    16   15   16 1    
    17   15   17 1    
    18   15   18 1    
    19    2   19 1    
    20   19   20 ar   
    21   20   21 1    
    22   20   22 ar   
    23   22   23 1    
    24   22   24 ar   
    25   24   25 ar   
    26   25   26 1    
    27   25   27 ar   
    28   27   28 1    
    29   27   19 ar   
    30   24   29 1    
    31    1   30 1    
    32   30   31 ar   
    33   31   32 1    
    34   31   33 ar   
    35   33   34 1    
    36   33   35 ar   
    37   35   36 ar   
    38   36   37 1    
    39   36   38 ar   
    40   38   39 1    
    41   38   30 ar   
    42   35   40 1    
    43   40   41 2    
    44   40   42 2    
    45   40   43 1    
    46   43   44 1    
    47   43   45 1    
    48   43   46 1    
@<TRIPOS>SUBSTRUCTURE
     1 ****        1 TEMP              0 ****  ****    0 ROOT 
@<TRIPOS>SET
UNITY_3DHIT     STATIC     ATOMS    <user>   **** Atoms matching 3D or FLEX Search
0
