#	Name:			11-29
#	Creating user name:	jeff
#	Creation time:		Fri Dec 13 09:58:25 2002

#	Modifying user name:	jeff
#	Modification time:	Fri Dec 13 09:58:27 2002

@<TRIPOS>MOLECULE
11-29
   44    47     1     0     1
SMALL
USER_CHARGES
****
From 3DB ct
@<TRIPOS>ATOM
      1 C          25.491000   21.511000   17.242000 C.ar      1 <1>        -0.801100 
      2 C          26.448000   22.079000   16.412000 C.ar      1 <1>         0.923700 
      3 N          27.755000   22.023000   16.878000 N.ar      1 <1>        -0.550600 
      4 C          27.784000   21.437000   18.057000 C.ar      1 <1>        -0.268800 
      5 S          26.268000   20.881000   18.643000 S.3       1 <1>         0.316300 
      6 C          28.998000   21.185000   18.833000 C.ar      1 <1>         0.760400 
      7 C          30.232000   21.592000   18.298000 C.ar      1 <1>        -0.450300 
      8 H          30.272000   22.080000   17.325000 H         1 <1>         0.258700 
      9 C          31.422000   21.375000   18.997000 C.ar      1 <1>        -0.014400 
     10 H          32.371000   21.691000   18.567000 H         1 <1>         0.147400 
     11 C          31.393000   20.755000   20.243000 C.ar      1 <1>        -0.232100 
     12 H          32.319000   20.587000   20.790000 H         1 <1>         0.172600 
     13 C          30.175000   20.357000   20.795000 C.ar      1 <1>         0.158700 
     14 H          30.165000   19.883000   21.774000 H         1 <1>         0.101100 
     15 C          28.980000   20.573000   20.097000 C.ar      1 <1>        -0.678500 
     16 Cl         27.509000   20.078000   20.866000 Cl        1 <1>         0.129300 
     17 C          26.159000   22.693000   15.126000 C.ar      1 <1>        -0.550800 
     18 C          25.635000   21.936000   14.069000 C.ar      1 <1>         0.002900 
     19 H          25.438000   20.873000   14.190000 H         1 <1>         0.132100 
     20 C          25.362000   22.540000   12.838000 C.ar      1 <1>        -0.228100 
     21 H          24.953000   21.947000   12.021000 H         1 <1>         0.168000 
     22 C          25.615000   23.900000   12.652000 C.ar      1 <1>        -0.019200 
     23 H          25.402000   24.368000   11.693000 H         1 <1>         0.150500 
     24 C          26.143000   24.658000   13.696000 C.ar      1 <1>        -0.402100 
     25 H          26.342000   25.718000   13.561000 H         1 <1>         0.224500 
     26 C          26.413000   24.053000   14.922000 C.ar      1 <1>         0.631100 
     27 F          26.906000   24.812000   15.914000 F         1 <1>        -0.374400 
     28 C          24.036000   21.411000   17.115000 C.ar      1 <1>         0.593100 
     29 C          23.316000   20.441000   17.829000 C.ar      1 <1>        -0.354900 
     30 H          23.831000   19.744000   18.490000 H         1 <1>         0.217600 
     31 C          21.928000   20.340000   17.695000 C.ar      1 <1>        -0.002200 
     32 H          21.391000   19.577000   18.255000 H         1 <1>         0.185600 
     33 C          21.251000   21.218000   16.846000 C.ar      1 <1>        -0.564200 
     34 C          21.953000   22.183000   16.120000 C.ar      1 <1>         0.018200 
     35 H          21.434000   22.866000   15.449000 H         1 <1>         0.192200 
     36 C          23.341000   22.279000   16.259000 C.ar      1 <1>        -0.339100 
     37 H          23.873000   23.043000   15.694000 H         1 <1>         0.201700 
     38 S          19.488000   21.081000   16.651000 S.o2      1 <1>         2.211400 
     39 O          18.958000   22.416000   16.395000 O.2       1 <1>        -0.972300 
     40 O          18.969000   20.335000   17.794000 O.2       1 <1>        -0.970600 
     41 C          19.301000   20.098000   15.187000 C.3       1 <1>        -0.774400 
     42 H          18.233000   19.971000   14.999000 H         1 <1>         0.253300 
     43 H          19.768000   19.125000   15.350000 H         1 <1>         0.201900 
     44 H          19.767000   20.618000   14.348000 H         1 <1>         0.195800 
@<TRIPOS>BOND
     1    1    2 ar   
     2    2    3 ar   
     3    3    4 ar   
     4    4    5 ar   
     5    5    1 ar   
     6    4    6 1    
     7    6    7 ar   
     8    7    8 1    
     9    7    9 ar   
    10    9   10 1    
    11    9   11 ar   
    12   11   12 1    
    13   11   13 ar   
    14   13   14 1    
    15   13   15 ar   
    16   15    6 ar   
    17   15   16 1    
    18    2   17 1    
    19   17   18 ar   
    20   18   19 1    
    21   18   20 ar   
    22   20   21 1    
    23   20   22 ar   
    24   22   23 1    
    25   22   24 ar   
    26   24   25 1    
    27   24   26 ar   
    28   26   17 ar   
    29   26   27 1    
    30    1   28 1    
    31   28   29 ar   
    32   29   30 1    
    33   29   31 ar   
    34   31   32 1    
    35   31   33 ar   
    36   33   34 ar   
    37   34   35 1    
    38   34   36 ar   
    39   36   37 1    
    40   36   28 ar   
    41   33   38 1    
    42   38   39 2    
    43   38   40 2    
    44   38   41 1    
    45   41   42 1    
    46   41   43 1    
    47   41   44 1    
@<TRIPOS>SUBSTRUCTURE
     1 ****        1 TEMP              0 ****  ****    0 ROOT 
@<TRIPOS>SET
UNITY_3DHIT     STATIC     ATOMS    <user>   **** Atoms matching 3D or FLEX Search
0
