#	Name:			11-26
#	Creating user name:	jeff
#	Creation time:		Fri Dec 13 09:58:20 2002

#	Modifying user name:	jeff
#	Modification time:	Fri Dec 13 09:58:22 2002

@<TRIPOS>MOLECULE
11-26
   43    46     1     0     1
SMALL
USER_CHARGES
****
From 3DB ct
@<TRIPOS>ATOM
      1 C          25.482000   21.504000   17.231000 C.ar      1 <1>        -0.592500 
      2 C          26.438000   22.072000   16.402000 C.ar      1 <1>         0.465000 
      3 N          27.737000   22.046000   16.894000 N.ar      1 <1>        -0.468400 
      4 C          27.785000   21.433000   18.062000 C.ar      1 <1>         0.008500 
      5 S          26.257000   20.891000   18.638000 S.3       1 <1>         0.231500 
      6 C          29.029000   21.241000   18.836000 C.ar      1 <1>         0.420000 
      7 C          30.234000   21.730000   18.314000 C.ar      1 <1>        -0.456600 
      8 H          30.267000   22.249000   17.359000 H         1 <1>         0.201600 
      9 C          31.408000   21.553000   19.029000 C.ar      1 <1>         0.376500 
     10 H          32.352000   21.927000   18.641000 H         1 <1>         0.115200 
     11 N          31.468000   20.923000   20.223000 N.ar      1 <1>        -0.676200 
     12 C          30.301000   20.450000   20.715000 C.ar      1 <1>         0.445000 
     13 H          30.364000   19.942000   21.675000 H         1 <1>         0.096400 
     14 C          29.080000   20.582000   20.070000 C.ar      1 <1>        -0.601000 
     15 H          28.199000   20.160000   20.543000 H         1 <1>         0.242300 
     16 C          26.169000   22.690000   15.109000 C.ar      1 <1>        -0.199500 
     17 C          25.672000   21.945000   14.028000 C.ar      1 <1>         0.025300 
     18 H          25.477000   20.879000   14.127000 H         1 <1>         0.109800 
     19 C          25.428000   22.562000   12.799000 C.ar      1 <1>        -0.429600 
     20 H          25.039000   21.988000   11.962000 H         1 <1>         0.233400 
     21 C          25.690000   23.918000   12.647000 C.ar      1 <1>         0.584600 
     22 C          26.197000   24.671000   13.700000 C.ar      1 <1>        -0.388400 
     23 H          26.401000   25.729000   13.562000 H         1 <1>         0.224800 
     24 C          26.441000   24.055000   14.930000 C.ar      1 <1>        -0.020500 
     25 H          26.840000   24.649000   15.751000 H         1 <1>         0.177300 
     26 F          25.456000   24.508000   11.467000 F         1 <1>        -0.365800 
     27 C          24.025000   21.402000   17.114000 C.ar      1 <1>         0.426900 
     28 C          23.310000   20.431000   17.833000 C.ar      1 <1>        -0.186800 
     29 H          23.829000   19.734000   18.490000 H         1 <1>         0.171000 
     30 C          21.921000   20.331000   17.709000 C.ar      1 <1>        -0.085300 
     31 H          21.388000   19.568000   18.273000 H         1 <1>         0.200800 
     32 C          21.238000   21.210000   16.866000 C.ar      1 <1>        -0.498600 
     33 C          21.934000   22.175000   16.135000 C.ar      1 <1>        -0.042300 
     34 H          21.411000   22.858000   15.469000 H         1 <1>         0.201200 
     35 C          23.323000   22.271000   16.264000 C.ar      1 <1>        -0.291300 
     36 H          23.852000   23.034000   15.694000 H         1 <1>         0.198100 
     37 S          19.474000   21.071000   16.686000 S.o2      1 <1>         2.199100 
     38 O          18.938000   22.411000   16.466000 O.2       1 <1>        -0.970500 
     39 O          18.968000   20.298000   17.816000 O.2       1 <1>        -0.969400 
     40 C          19.276000   20.121000   15.203000 C.3       1 <1>        -0.755900 
     41 H          18.206000   19.992000   15.023000 H         1 <1>         0.246200 
     42 H          19.749000   19.147000   15.338000 H         1 <1>         0.200400 
     43 H          19.730000   20.662000   14.370000 H         1 <1>         0.197600 
@<TRIPOS>BOND
     1    1    2 ar   
     2    2    3 ar   
     3    3    4 ar   
     4    4    5 ar   
     5    5    1 ar   
     6    4    6 1    
     7    6    7 ar   
     8    7    8 1    
     9    7    9 ar   
    10    9   10 1    
    11    9   11 ar   
    12   11   12 ar   
    13   12   13 1    
    14   12   14 ar   
    15   14   15 1    
    16   14    6 ar   
    17    2   16 1    
    18   16   17 ar   
    19   17   18 1    
    20   17   19 ar   
    21   19   20 1    
    22   19   21 ar   
    23   21   22 ar   
    24   22   23 1    
    25   22   24 ar   
    26   24   25 1    
    27   24   16 ar   
    28   21   26 1    
    29    1   27 1    
    30   27   28 ar   
    31   28   29 1    
    32   28   30 ar   
    33   30   31 1    
    34   30   32 ar   
    35   32   33 ar   
    36   33   34 1    
    37   33   35 ar   
    38   35   36 1    
    39   35   27 ar   
    40   32   37 1    
    41   37   38 2    
    42   37   39 2    
    43   37   40 1    
    44   40   41 1    
    45   40   42 1    
    46   40   43 1    
@<TRIPOS>SUBSTRUCTURE
     1 ****        1 TEMP              0 ****  ****    0 ROOT 
@<TRIPOS>SET
UNITY_3DHIT     STATIC     ATOMS    <user>   **** Atoms matching 3D or FLEX Search
0
