#	Name:			11-24
#	Creating user name:	jeff
#	Creation time:		Fri Dec 13 09:58:15 2002

#	Modifying user name:	jeff
#	Modification time:	Fri Dec 13 09:58:17 2002

@<TRIPOS>MOLECULE
11-24
   41    44     1     0     1
SMALL
USER_CHARGES
****
From 3DB ct
@<TRIPOS>ATOM
      1 C          25.481000   21.504000   17.232000 C.ar      1 <1>        -0.610700 
      2 C          26.438000   22.073000   16.402000 C.ar      1 <1>         0.398000 
      3 N          27.738000   22.047000   16.893000 N.ar      1 <1>        -0.539800 
      4 C          27.778000   21.440000   18.064000 C.ar      1 <1>         0.290500 
      5 S          26.256000   20.890000   18.640000 S.3       1 <1>         0.245400 
      6 C          29.027000   21.274000   18.777000 C.ar      1 <1>        -0.419400 
      7 C          30.269000   21.713000   18.348000 C.ar      1 <1>         0.141700 
      8 H          30.419000   22.236000   17.409000 H         1 <1>         0.149800 
      9 C          31.318000   21.406000   19.263000 C.ar      1 <1>        -0.335900 
     10 H          32.361000   21.662000   19.114000 H         1 <1>         0.227700 
     11 C          30.851000   20.739000   20.371000 C.ar      1 <1>        -0.286900 
     12 H          31.422000   20.385000   21.220000 H         1 <1>         0.248900 
     13 S          29.163000   20.489000   20.301000 S.3       1 <1>         0.262200 
     14 C          26.169000   22.690000   15.109000 C.ar      1 <1>        -0.092100 
     15 C          25.671000   21.945000   14.030000 C.ar      1 <1>        -0.021200 
     16 H          25.476000   20.879000   14.128000 H         1 <1>         0.120200 
     17 C          25.427000   22.561000   12.799000 C.ar      1 <1>        -0.414100 
     18 H          25.038000   21.987000   11.963000 H         1 <1>         0.232400 
     19 C          25.689000   23.918000   12.647000 C.ar      1 <1>         0.565700 
     20 C          26.195000   24.670000   13.699000 C.ar      1 <1>        -0.375700 
     21 H          26.400000   25.728000   13.561000 H         1 <1>         0.222700 
     22 C          26.440000   24.056000   14.930000 C.ar      1 <1>        -0.064900 
     23 H          26.839000   24.650000   15.751000 H         1 <1>         0.189100 
     24 F          25.455000   24.506000   11.466000 F         1 <1>        -0.364300 
     25 C          24.025000   21.401000   17.114000 C.ar      1 <1>         0.420100 
     26 C          23.310000   20.430000   17.832000 C.ar      1 <1>        -0.171000 
     27 H          23.830000   19.734000   18.489000 H         1 <1>         0.167800 
     28 C          21.921000   20.330000   17.708000 C.ar      1 <1>        -0.108700 
     29 H          21.388000   19.567000   18.272000 H         1 <1>         0.199100 
     30 C          21.239000   21.210000   16.865000 C.ar      1 <1>        -0.500100 
     31 C          21.935000   22.175000   16.134000 C.ar      1 <1>        -0.028800 
     32 H          21.413000   22.858000   15.468000 H         1 <1>         0.201400 
     33 C          23.324000   22.270000   16.264000 C.ar      1 <1>        -0.292900 
     34 H          23.853000   23.033000   15.694000 H         1 <1>         0.197000 
     35 S          19.474000   21.073000   16.686000 S.o2      1 <1>         2.213500 
     36 O          18.939000   22.412000   16.463000 O.2       1 <1>        -0.976300 
     37 O          18.968000   20.302000   17.818000 O.2       1 <1>        -0.973300 
     38 C          19.274000   20.120000   15.204000 C.3       1 <1>        -0.761200 
     39 H          18.205000   19.993000   15.024000 H         1 <1>         0.245700 
     40 H          19.746000   19.145000   15.341000 H         1 <1>         0.202000 
     41 H          19.730000   20.658000   14.371000 H         1 <1>         0.196200 
@<TRIPOS>BOND
     1    1    2 ar   
     2    2    3 ar   
     3    3    4 ar   
     4    4    5 ar   
     5    5    1 ar   
     6    4    6 1    
     7    6    7 ar   
     8    7    8 1    
     9    7    9 ar   
    10    9   10 1    
    11    9   11 ar   
    12   11   12 1    
    13   11   13 ar   
    14   13    6 ar   
    15    2   14 1    
    16   14   15 ar   
    17   15   16 1    
    18   15   17 ar   
    19   17   18 1    
    20   17   19 ar   
    21   19   20 ar   
    22   20   21 1    
    23   20   22 ar   
    24   22   23 1    
    25   22   14 ar   
    26   19   24 1    
    27    1   25 1    
    28   25   26 ar   
    29   26   27 1    
    30   26   28 ar   
    31   28   29 1    
    32   28   30 ar   
    33   30   31 ar   
    34   31   32 1    
    35   31   33 ar   
    36   33   34 1    
    37   33   25 ar   
    38   30   35 1    
    39   35   36 2    
    40   35   37 2    
    41   35   38 1    
    42   38   39 1    
    43   38   40 1    
    44   38   41 1    
@<TRIPOS>SUBSTRUCTURE
     1 ****        1 TEMP              0 ****  ****    0 ROOT 
@<TRIPOS>SET
UNITY_3DHIT     STATIC     ATOMS    <user>   **** Atoms matching 3D or FLEX Search
0
