#	Name:			11-21
#	Creating user name:	jeff
#	Creation time:		Fri Dec 13 09:58:10 2002

#	Modifying user name:	jeff
#	Modification time:	Fri Dec 13 09:58:13 2002

@<TRIPOS>MOLECULE
11-21
   44    47     1     0     1
SMALL
USER_CHARGES
****
From 3DB ct
@<TRIPOS>ATOM
      1 C          25.482000   21.502000   17.231000 C.ar      1 <1>        -0.603800 
      2 C          26.440000   22.070000   16.401000 C.ar      1 <1>         0.493000 
      3 N          27.740000   22.046000   16.891000 N.ar      1 <1>        -0.546700 
      4 C          27.774000   21.419000   18.049000 C.ar      1 <1>        -0.088900 
      5 S          26.253000   20.893000   18.646000 S.3       1 <1>         0.237800 
      6 C          28.979000   21.224000   18.855000 C.ar      1 <1>         0.712200 
      7 C          30.196000   21.738000   18.372000 C.ar      1 <1>        -0.502700 
      8 H          30.227000   22.268000   17.421000 H         1 <1>         0.263000 
      9 C          31.378000   21.582000   19.101000 C.ar      1 <1>         0.049000 
     10 H          32.311000   21.990000   18.716000 H         1 <1>         0.134300 
     11 C          31.361000   20.905000   20.317000 C.ar      1 <1>        -0.289400 
     12 H          32.281000   20.782000   20.886000 H         1 <1>         0.182500 
     13 C          30.164000   20.378000   20.804000 C.ar      1 <1>         0.235200 
     14 H          30.166000   19.842000   21.751000 H         1 <1>         0.082300 
     15 C          28.977000   20.531000   20.077000 C.ar      1 <1>        -0.708100 
     16 Cl         27.544000   19.815000   20.734000 Cl        1 <1>         0.133900 
     17 C          26.169000   22.690000   15.109000 C.ar      1 <1>        -0.105200 
     18 C          25.669000   21.946000   14.029000 C.ar      1 <1>        -0.033000 
     19 H          25.474000   20.880000   14.127000 H         1 <1>         0.116000 
     20 C          25.423000   22.564000   12.800000 C.ar      1 <1>        -0.395500 
     21 H          25.034000   21.991000   11.963000 H         1 <1>         0.229800 
     22 C          25.686000   23.920000   12.649000 C.ar      1 <1>         0.551300 
     23 C          26.194000   24.671000   13.701000 C.ar      1 <1>        -0.351500 
     24 H          26.399000   25.729000   13.564000 H         1 <1>         0.216700 
     25 C          26.440000   24.055000   14.931000 C.ar      1 <1>        -0.092700 
     26 H          26.841000   24.648000   15.752000 H         1 <1>         0.197000 
     27 F          25.451000   24.511000   11.469000 F         1 <1>        -0.362900 
     28 C          24.025000   21.401000   17.113000 C.ar      1 <1>         0.484000 
     29 C          23.310000   20.430000   17.831000 C.ar      1 <1>        -0.262600 
     30 H          23.830000   19.733000   18.489000 H         1 <1>         0.195500 
     31 C          21.921000   20.330000   17.706000 C.ar      1 <1>        -0.037500 
     32 H          21.387000   19.568000   18.270000 H         1 <1>         0.189000 
     33 C          21.239000   21.210000   16.863000 C.ar      1 <1>        -0.526000 
     34 C          21.936000   22.176000   16.133000 C.ar      1 <1>        -0.031200 
     35 H          21.414000   22.859000   15.466000 H         1 <1>         0.202200 
     36 C          23.325000   22.270000   16.262000 C.ar      1 <1>        -0.302700 
     37 H          23.855000   23.032000   15.692000 H         1 <1>         0.187600 
     38 S          19.474000   21.072000   16.687000 S.o2      1 <1>         2.209100 
     39 O          18.939000   22.413000   16.475000 O.2       1 <1>        -0.972800 
     40 O          18.970000   20.293000   17.814000 O.2       1 <1>        -0.972100 
     41 C          19.273000   20.128000   15.200000 C.3       1 <1>        -0.761800 
     42 H          18.203000   19.999000   15.022000 H         1 <1>         0.248200 
     43 H          19.749000   19.154000   15.329000 H         1 <1>         0.200200 
     44 H          19.724000   20.674000   14.368000 H         1 <1>         0.197400 
@<TRIPOS>BOND
     1    1    2 ar   
     2    2    3 ar   
     3    3    4 ar   
     4    4    5 ar   
     5    5    1 ar   
     6    4    6 1    
     7    6    7 ar   
     8    7    8 1    
     9    7    9 ar   
    10    9   10 1    
    11    9   11 ar   
    12   11   12 1    
    13   11   13 ar   
    14   13   14 1    
    15   13   15 ar   
    16   15    6 ar   
    17   15   16 1    
    18    2   17 1    
    19   17   18 ar   
    20   18   19 1    
    21   18   20 ar   
    22   20   21 1    
    23   20   22 ar   
    24   22   23 ar   
    25   23   24 1    
    26   23   25 ar   
    27   25   26 1    
    28   25   17 ar   
    29   22   27 1    
    30    1   28 1    
    31   28   29 ar   
    32   29   30 1    
    33   29   31 ar   
    34   31   32 1    
    35   31   33 ar   
    36   33   34 ar   
    37   34   35 1    
    38   34   36 ar   
    39   36   37 1    
    40   36   28 ar   
    41   33   38 1    
    42   38   39 2    
    43   38   40 2    
    44   38   41 1    
    45   41   42 1    
    46   41   43 1    
    47   41   44 1    
@<TRIPOS>SUBSTRUCTURE
     1 ****        1 TEMP              0 ****  ****    0 ROOT 
@<TRIPOS>SET
UNITY_3DHIT     STATIC     ATOMS    <user>   **** Atoms matching 3D or FLEX Search
0
