#	Name:			11-25
#	Creating user name:	jeff
#	Creation time:		Fri Dec 13 09:58:17 2002

#	Modifying user name:	jeff
#	Modification time:	Fri Dec 13 09:58:20 2002

@<TRIPOS>MOLECULE
11-25
   43    46     1     0     1
SMALL
USER_CHARGES
****
From 3DB ct
@<TRIPOS>ATOM
      1 C          25.481000   21.505000   17.231000 C.ar      1 <1>        -0.596500 
      2 C          26.437000   22.072000   16.402000 C.ar      1 <1>         0.422800 
      3 N          27.736000   22.045000   16.894000 N.ar      1 <1>        -0.490600 
      4 C          27.785000   21.433000   18.064000 C.ar      1 <1>         0.181000 
      5 S          26.256000   20.892000   18.638000 S.3       1 <1>         0.210700 
      6 C          29.027000   21.238000   18.833000 C.ar      1 <1>        -0.377200 
      7 C          30.246000   21.707000   18.322000 C.ar      1 <1>         0.318200 
      8 H          30.280000   22.220000   17.361000 H         1 <1>         0.095900 
      9 C          31.433000   21.530000   19.032000 C.ar      1 <1>        -0.602100 
     10 H          32.378000   21.893000   18.640000 H         1 <1>         0.235800 
     11 C          31.380000   20.879000   20.250000 C.ar      1 <1>         0.458400 
     12 H          32.283000   20.721000   20.836000 H         1 <1>         0.099100 
     13 N          30.234000   20.404000   20.789000 N.ar      1 <1>        -0.679900 
     14 C          29.093000   20.594000   20.068000 C.ar      1 <1>         0.385300 
     15 H          28.206000   20.184000   20.548000 H         1 <1>         0.125800 
     16 C          26.170000   22.690000   15.109000 C.ar      1 <1>        -0.165700 
     17 C          25.674000   21.946000   14.027000 C.ar      1 <1>         0.021900 
     18 H          25.480000   20.879000   14.125000 H         1 <1>         0.111000 
     19 C          25.432000   22.563000   12.797000 C.ar      1 <1>        -0.432000 
     20 H          25.045000   21.989000   11.960000 H         1 <1>         0.235100 
     21 C          25.694000   23.919000   12.646000 C.ar      1 <1>         0.581200 
     22 C          26.199000   24.671000   13.699000 C.ar      1 <1>        -0.386100 
     23 H          26.404000   25.729000   13.562000 H         1 <1>         0.224300 
     24 C          26.441000   24.056000   14.930000 C.ar      1 <1>        -0.034200 
     25 H          26.839000   24.650000   15.752000 H         1 <1>         0.180300 
     26 F          25.463000   24.509000   11.465000 F         1 <1>        -0.365500 
     27 C          24.024000   21.402000   17.113000 C.ar      1 <1>         0.439400 
     28 C          23.310000   20.430000   17.832000 C.ar      1 <1>        -0.186800 
     29 H          23.830000   19.733000   18.488000 H         1 <1>         0.172400 
     30 C          21.921000   20.329000   17.709000 C.ar      1 <1>        -0.097400 
     31 H          21.389000   19.566000   18.273000 H         1 <1>         0.200300 
     32 C          21.238000   21.209000   16.866000 C.ar      1 <1>        -0.501600 
     33 C          21.933000   22.174000   16.135000 C.ar      1 <1>        -0.035000 
     34 H          21.410000   22.857000   15.469000 H         1 <1>         0.201800 
     35 C          23.322000   22.271000   16.264000 C.ar      1 <1>        -0.298400 
     36 H          23.851000   23.034000   15.694000 H         1 <1>         0.199500 
     37 S          19.473000   21.071000   16.689000 S.o2      1 <1>         2.213200 
     38 O          18.937000   22.411000   16.474000 O.2       1 <1>        -0.974200 
     39 O          18.969000   20.295000   17.818000 O.2       1 <1>        -0.972100 
     40 C          19.272000   20.125000   15.203000 C.3       1 <1>        -0.768000 
     41 H          18.202000   19.998000   15.024000 H         1 <1>         0.248600 
     42 H          19.745000   19.150000   15.335000 H         1 <1>         0.202400 
     43 H          19.726000   20.667000   14.372000 H         1 <1>         0.199100 
@<TRIPOS>BOND
     1    1    2 ar   
     2    2    3 ar   
     3    3    4 ar   
     4    4    5 ar   
     5    5    1 ar   
     6    4    6 1    
     7    6    7 ar   
     8    7    8 1    
     9    7    9 ar   
    10    9   10 1    
    11    9   11 ar   
    12   11   12 1    
    13   11   13 ar   
    14   13   14 ar   
    15   14   15 1    
    16   14    6 ar   
    17    2   16 1    
    18   16   17 ar   
    19   17   18 1    
    20   17   19 ar   
    21   19   20 1    
    22   19   21 ar   
    23   21   22 ar   
    24   22   23 1    
    25   22   24 ar   
    26   24   25 1    
    27   24   16 ar   
    28   21   26 1    
    29    1   27 1    
    30   27   28 ar   
    31   28   29 1    
    32   28   30 ar   
    33   30   31 1    
    34   30   32 ar   
    35   32   33 ar   
    36   33   34 1    
    37   33   35 ar   
    38   35   36 1    
    39   35   27 ar   
    40   32   37 1    
    41   37   38 2    
    42   37   39 2    
    43   37   40 1    
    44   40   41 1    
    45   40   42 1    
    46   40   43 1    
@<TRIPOS>SUBSTRUCTURE
     1 ****        1 TEMP              0 ****  ****    0 ROOT 
@<TRIPOS>SET
UNITY_3DHIT     STATIC     ATOMS    <user>   **** Atoms matching 3D or FLEX Search
0
