#	Name:			11-32
#	Creating user name:	jeff
#	Creation time:		Fri Dec 13 09:58:32 2002

#	Modifying user name:	jeff
#	Modification time:	Fri Dec 13 09:58:34 2002

@<TRIPOS>MOLECULE
11-32
   44    47     1     0     1
SMALL
USER_CHARGES
****
From 3DB ct
@<TRIPOS>ATOM
      1 C          25.491000   21.507000   17.239000 C.ar      1 <1>        -0.725600 
      2 C          26.448000   22.074000   16.408000 C.ar      1 <1>         0.873900 
      3 N          27.753000   22.024000   16.879000 N.ar      1 <1>        -0.516500 
      4 C          27.788000   21.399000   18.038000 C.ar      1 <1>        -0.294600 
      5 S          26.264000   20.892000   18.648000 S.3       1 <1>         0.309700 
      6 C          28.996000   21.190000   18.835000 C.ar      1 <1>         0.771400 
      7 C          30.215000   21.687000   18.342000 C.ar      1 <1>        -0.463300 
      8 H          30.246000   22.215000   17.389000 H         1 <1>         0.258900 
      9 C          31.401000   21.520000   19.061000 C.ar      1 <1>         0.007200 
     10 H          32.336000   21.915000   18.668000 H         1 <1>         0.144400 
     11 C          31.385000   20.846000   20.280000 C.ar      1 <1>        -0.264800 
     12 H          32.308000   20.714000   20.841000 H         1 <1>         0.179700 
     13 C          30.186000   20.334000   20.777000 C.ar      1 <1>         0.202600 
     14 H          30.189000   19.801000   21.725000 H         1 <1>         0.088700 
     15 C          28.996000   20.500000   20.059000 C.ar      1 <1>        -0.694900 
     16 Cl         27.560000   19.800000   20.728000 Cl        1 <1>         0.134300 
     17 C          26.159000   22.691000   15.124000 C.ar      1 <1>        -0.640800 
     18 C          25.635000   21.935000   14.065000 C.ar      1 <1>         0.097700 
     19 H          25.438000   20.871000   14.182000 H         1 <1>         0.142700 
     20 C          25.366000   22.543000   12.836000 C.ar      1 <1>        -0.451600 
     21 H          24.959000   21.963000   12.012000 H         1 <1>         0.238400 
     22 C          25.625000   23.900000   12.667000 C.ar      1 <1>         0.657700 
     23 C          26.149000   24.664000   13.701000 C.ar      1 <1>        -0.626800 
     24 H          26.346000   25.720000   13.561000 H         1 <1>         0.296500 
     25 C          26.415000   24.053000   14.923000 C.ar      1 <1>         0.726600 
     26 F          26.907000   24.808000   15.919000 F         1 <1>        -0.362500 
     27 F          25.365000   24.478000   11.487000 F         1 <1>        -0.357600 
     28 C          24.036000   21.409000   17.113000 C.ar      1 <1>         0.523400 
     29 C          23.317000   20.438000   17.827000 C.ar      1 <1>        -0.328000 
     30 H          23.832000   19.743000   18.488000 H         1 <1>         0.212900 
     31 C          21.928000   20.339000   17.693000 C.ar      1 <1>        -0.022400 
     32 H          21.391000   19.577000   18.254000 H         1 <1>         0.184600 
     33 C          21.252000   21.218000   16.845000 C.ar      1 <1>        -0.543200 
     34 C          21.953000   22.183000   16.118000 C.ar      1 <1>        -0.007400 
     35 H          21.436000   22.866000   15.448000 H         1 <1>         0.202000 
     36 C          23.341000   22.277000   16.256000 C.ar      1 <1>        -0.296500 
     37 H          23.874000   23.041000   15.691000 H         1 <1>         0.191500 
     38 S          19.488000   21.080000   16.659000 S.o2      1 <1>         2.212800 
     39 O          18.959000   22.416000   16.400000 O.2       1 <1>        -0.971800 
     40 O          18.972000   20.339000   17.805000 O.2       1 <1>        -0.966700 
     41 C          19.296000   20.091000   15.200000 C.3       1 <1>        -0.795300 
     42 H          18.227000   19.958000   15.019000 H         1 <1>         0.259800 
     43 H          19.768000   19.120000   15.364000 H         1 <1>         0.210100 
     44 H          19.754000   20.608000   14.356000 H         1 <1>         0.202600 
@<TRIPOS>BOND
     1    1    2 ar   
     2    2    3 ar   
     3    3    4 ar   
     4    4    5 ar   
     5    5    1 ar   
     6    4    6 1    
     7    6    7 ar   
     8    7    8 1    
     9    7    9 ar   
    10    9   10 1    
    11    9   11 ar   
    12   11   12 1    
    13   11   13 ar   
    14   13   14 1    
    15   13   15 ar   
    16   15    6 ar   
    17   15   16 1    
    18    2   17 1    
    19   17   18 ar   
    20   18   19 1    
    21   18   20 ar   
    22   20   21 1    
    23   20   22 ar   
    24   22   23 ar   
    25   23   24 1    
    26   23   25 ar   
    27   25   17 ar   
    28   25   26 1    
    29   22   27 1    
    30    1   28 1    
    31   28   29 ar   
    32   29   30 1    
    33   29   31 ar   
    34   31   32 1    
    35   31   33 ar   
    36   33   34 ar   
    37   34   35 1    
    38   34   36 ar   
    39   36   37 1    
    40   36   28 ar   
    41   33   38 1    
    42   38   39 2    
    43   38   40 2    
    44   38   41 1    
    45   41   42 1    
    46   41   43 1    
    47   41   44 1    
@<TRIPOS>SUBSTRUCTURE
     1 ****        1 TEMP              0 ****  ****    0 ROOT 
@<TRIPOS>SET
UNITY_3DHIT     STATIC     ATOMS    <user>   **** Atoms matching 3D or FLEX Search
0
