#	Name:			11-30
#	Creating user name:	jeff
#	Creation time:		Fri Dec 13 09:58:27 2002

#	Modifying user name:	jeff
#	Modification time:	Fri Dec 13 09:58:29 2002

@<TRIPOS>MOLECULE
11-30
   44    47     1     0     1
SMALL
USER_CHARGES
****
From 3DB ct
@<TRIPOS>ATOM
      1 C          25.481000   21.502000   17.230000 C.ar      1 <1>        -0.649700 
      2 C          26.439000   22.072000   16.400000 C.ar      1 <1>         0.528700 
      3 N          27.739000   22.049000   16.891000 N.ar      1 <1>        -0.556400 
      4 C          27.773000   21.420000   18.047000 C.ar      1 <1>        -0.097100 
      5 S          26.252000   20.892000   18.643000 S.3       1 <1>         0.247400 
      6 C          28.978000   21.225000   18.853000 C.ar      1 <1>         0.711600 
      7 C          30.195000   21.740000   18.372000 C.ar      1 <1>        -0.479800 
      8 H          30.226000   22.272000   17.422000 H         1 <1>         0.260400 
      9 C          31.376000   21.585000   19.100000 C.ar      1 <1>         0.024000 
     10 H          32.310000   21.994000   18.717000 H         1 <1>         0.139300 
     11 C          31.360000   20.905000   20.315000 C.ar      1 <1>        -0.265700 
     12 H          32.280000   20.782000   20.884000 H         1 <1>         0.179400 
     13 C          30.164000   20.376000   20.800000 C.ar      1 <1>         0.204500 
     14 H          30.166000   19.838000   21.747000 H         1 <1>         0.090200 
     15 C          28.977000   20.529000   20.074000 C.ar      1 <1>        -0.694600 
     16 Cl         27.545000   19.809000   20.729000 Cl        1 <1>         0.131500 
     17 C          26.169000   22.694000   15.109000 C.ar      1 <1>         0.044800 
     18 C          25.674000   21.953000   14.025000 C.ar      1 <1>        -0.206600 
     19 H          25.480000   20.886000   14.120000 H         1 <1>         0.124100 
     20 C          25.431000   22.571000   12.794000 C.ar      1 <1>        -0.058600 
     21 H          25.044000   21.988000   11.960000 H         1 <1>         0.163100 
     22 C          25.691000   23.930000   12.635000 C.ar      1 <1>        -0.396500 
     23 H          25.508000   24.420000   11.683000 H         1 <1>         0.227200 
     24 C          26.196000   24.659000   13.706000 C.ar      1 <1>         0.602400 
     25 C          26.441000   24.056000   14.935000 C.ar      1 <1>        -0.435200 
     26 H          26.838000   24.655000   15.750000 H         1 <1>         0.265600 
     27 F          26.452000   25.965000   13.550000 F         1 <1>        -0.376500 
     28 C          24.024000   21.400000   17.112000 C.ar      1 <1>         0.530900 
     29 C          23.310000   20.430000   17.831000 C.ar      1 <1>        -0.270300 
     30 H          23.830000   19.733000   18.488000 H         1 <1>         0.196600 
     31 C          21.921000   20.330000   17.707000 C.ar      1 <1>        -0.042600 
     32 H          21.388000   19.567000   18.271000 H         1 <1>         0.192200 
     33 C          21.238000   21.210000   16.865000 C.ar      1 <1>        -0.538600 
     34 C          21.934000   22.175000   16.134000 C.ar      1 <1>        -0.028300 
     35 H          21.412000   22.859000   15.468000 H         1 <1>         0.203800 
     36 C          23.323000   22.270000   16.262000 C.ar      1 <1>        -0.316100 
     37 H          23.853000   23.032000   15.692000 H         1 <1>         0.192200 
     38 S          19.474000   21.072000   16.690000 S.o2      1 <1>         2.219300 
     39 O          18.935000   22.415000   16.501000 O.2       1 <1>        -0.974800 
     40 O          18.972000   20.274000   17.805000 O.2       1 <1>        -0.973200 
     41 C          19.271000   20.153000   15.187000 C.3       1 <1>        -0.764400 
     42 H          18.201000   20.025000   15.010000 H         1 <1>         0.247000 
     43 H          19.748000   19.177000   15.300000 H         1 <1>         0.202700 
     44 H          19.719000   20.712000   14.364000 H         1 <1>         0.196200 
@<TRIPOS>BOND
     1    1    2 ar   
     2    2    3 ar   
     3    3    4 ar   
     4    4    5 ar   
     5    5    1 ar   
     6    4    6 1    
     7    6    7 ar   
     8    7    8 1    
     9    7    9 ar   
    10    9   10 1    
    11    9   11 ar   
    12   11   12 1    
    13   11   13 ar   
    14   13   14 1    
    15   13   15 ar   
    16   15    6 ar   
    17   15   16 1    
    18    2   17 1    
    19   17   18 ar   
    20   18   19 1    
    21   18   20 ar   
    22   20   21 1    
    23   20   22 ar   
    24   22   23 1    
    25   22   24 ar   
    26   24   25 ar   
    27   25   26 1    
    28   25   17 ar   
    29   24   27 1    
    30    1   28 1    
    31   28   29 ar   
    32   29   30 1    
    33   29   31 ar   
    34   31   32 1    
    35   31   33 ar   
    36   33   34 ar   
    37   34   35 1    
    38   34   36 ar   
    39   36   37 1    
    40   36   28 ar   
    41   33   38 1    
    42   38   39 2    
    43   38   40 2    
    44   38   41 1    
    45   41   42 1    
    46   41   43 1    
    47   41   44 1    
@<TRIPOS>SUBSTRUCTURE
     1 ****        1 TEMP              0 ****  ****    0 ROOT 
@<TRIPOS>SET
UNITY_3DHIT     STATIC     ATOMS    <user>   **** Atoms matching 3D or FLEX Search
0
