#	Name:			11-33
#	Creating user name:	jeff
#	Creation time:		Fri Dec 13 09:58:52 2002

#	Modifying user name:	jeff
#	Modification time:	Fri Dec 13 09:58:54 2002

@<TRIPOS>MOLECULE
11-33
   43    46     1     0     1
SMALL
USER_CHARGES
****
From 3DB ct
@<TRIPOS>ATOM
      1 C          25.399000   22.050000   17.400000 C.3       1 <1>        -0.168800 
      2 H          25.501000   23.127000   17.587000 H         1 <1>         0.087200 
      3 C          26.310000   21.636000   16.221000 C.3       1 <1>         0.682800 
      4 H          26.017000   20.660000   15.809000 H         1 <1>         0.015300 
      5 N          27.718000   21.485000   16.700000 N.2       1 <1>        -0.629300 
      6 C          27.711000   21.260000   17.975000 C.2       1 <1>        -0.047400 
      7 S          26.185000   21.230000   18.819000 S.3       1 <1>        -0.071400 
      8 C          28.929000   21.009000   18.747000 C.ar      1 <1>         0.579000 
      9 C          30.149000   21.015000   18.058000 C.ar      1 <1>        -0.380400 
     10 H          30.177000   21.198000   16.986000 H         1 <1>         0.242500 
     11 C          31.337000   20.781000   18.751000 C.ar      1 <1>        -0.044500 
     12 H          32.286000   20.780000   18.219000 H         1 <1>         0.148700 
     13 C          31.307000   20.550000   20.127000 C.ar      1 <1>        -0.222700 
     14 H          32.235000   20.368000   20.667000 H         1 <1>         0.173600 
     15 C          30.091000   20.557000   20.815000 C.ar      1 <1>         0.144700 
     16 H          30.086000   20.384000   21.889000 H         1 <1>         0.090900 
     17 C          28.896000   20.791000   20.128000 C.ar      1 <1>        -0.573200 
     18 Cl         27.428000   20.825000   21.038000 Cl        1 <1>         0.130000 
     19 C          26.283000   22.666000   15.113000 C.ar      1 <1>        -0.499100 
     20 C          26.600000   24.012000   15.172000 C.ar      1 <1>         0.049800 
     21 H          26.938000   24.504000   16.079000 H         1 <1>         0.178400 
     22 C          26.434000   24.668000   13.919000 C.ar      1 <1>        -0.345200 
     23 H          26.627000   25.721000   13.744000 H         1 <1>         0.223900 
     24 C          25.995000   23.805000   12.940000 C.ar      1 <1>        -0.244200 
     25 H          25.786000   24.035000   11.903000 H         1 <1>         0.227700 
     26 S          25.787000   22.216000   13.532000 S.3       1 <1>         0.178200 
     27 C          23.932000   21.697000   17.254000 C.ar      1 <1>         0.407100 
     28 C          23.125000   22.453000   16.386000 C.ar      1 <1>        -0.424400 
     29 H          23.547000   23.289000   15.828000 H         1 <1>         0.208300 
     30 C          21.772000   22.149000   16.215000 C.ar      1 <1>         0.062600 
     31 H          21.170000   22.749000   15.535000 H         1 <1>         0.183600 
     32 C          21.210000   21.085000   16.922000 C.ar      1 <1>        -0.563400 
     33 C          21.993000   20.315000   17.783000 C.ar      1 <1>        -0.000100 
     34 H          21.565000   19.479000   18.332000 H         1 <1>         0.197200 
     35 C          23.346000   20.624000   17.949000 C.ar      1 <1>        -0.327700 
     36 H          23.937000   20.015000   18.632000 H         1 <1>         0.186800 
     37 S          19.492000   20.686000   16.690000 S.o2      1 <1>         2.202400 
     38 O          18.789000   21.912000   16.325000 O.2       1 <1>        -0.972200 
     39 O          19.041000   19.952000   17.868000 O.2       1 <1>        -0.969600 
     40 C          19.499000   19.592000   15.295000 C.3       1 <1>        -0.766100 
     41 H          18.467000   19.302000   15.087000 H         1 <1>         0.251200 
     42 H          20.091000   18.707000   15.539000 H         1 <1>         0.202200 
     43 H          19.919000   20.115000   14.434000 H         1 <1>         0.195700 
@<TRIPOS>BOND
     1    2    1 1    
     2    1    3 1    
     3    3    4 1    
     4    3    5 1    
     5    5    6 2    
     6    6    7 1    
     7    7    1 1    
     8    6    8 1    
     9    8    9 ar   
    10    9   10 1    
    11    9   11 ar   
    12   11   12 1    
    13   11   13 ar   
    14   13   14 1    
    15   13   15 ar   
    16   15   16 1    
    17   15   17 ar   
    18   17    8 ar   
    19   17   18 1    
    20    3   19 1    
    21   19   20 ar   
    22   20   21 1    
    23   20   22 ar   
    24   22   23 1    
    25   22   24 ar   
    26   24   25 1    
    27   24   26 ar   
    28   26   19 ar   
    29    1   27 1    
    30   27   28 ar   
    31   28   29 1    
    32   28   30 ar   
    33   30   31 1    
    34   30   32 ar   
    35   32   33 ar   
    36   33   34 1    
    37   33   35 ar   
    38   35   36 1    
    39   35   27 ar   
    40   32   37 1    
    41   37   38 2    
    42   37   39 2    
    43   37   40 1    
    44   40   41 1    
    45   40   42 1    
    46   40   43 1    
@<TRIPOS>SUBSTRUCTURE
     1 ****        2 TEMP              0 ****  ****    0 ROOT 
@<TRIPOS>SET
UNITY_3DHIT     STATIC     ATOMS    <user>   **** Atoms matching 3D or FLEX Search
0
@<TRIPOS>UNITY_BOND_ATTR
5 1
S I
