#	Name:			11-34
#	Creating user name:	jeff
#	Creation time:		Fri Dec 13 09:58:54 2002

#	Modifying user name:	jeff
#	Modification time:	Fri Dec 13 09:58:56 2002

@<TRIPOS>MOLECULE
11-34
   43    46     1     0     1
SMALL
USER_CHARGES
****
From 3DB ct
@<TRIPOS>ATOM
      1 C          25.394000   22.055000   17.366000 C.3       1 <1>        -0.100700 
      2 H          25.498000   23.135000   17.530000 H         1 <1>         0.098300 
      3 C          26.295000   21.618000   16.188000 C.3       1 <1>         0.382900 
      4 H          25.996000   20.634000   15.799000 H         1 <1>         0.024000 
      5 N          27.706000   21.476000   16.655000 N.2       1 <1>        -0.567700 
      6 C          27.710000   21.272000   17.933000 C.2       1 <1>         0.020000 
      7 S          26.191000   21.259000   18.791000 S.3       1 <1>        -0.082100 
      8 C          28.933000   21.031000   18.699000 C.ar      1 <1>         0.520200 
      9 C          30.149000   21.035000   18.003000 C.ar      1 <1>        -0.415200 
     10 H          30.171000   21.209000   16.929000 H         1 <1>         0.250800 
     11 C          31.342000   20.808000   18.691000 C.ar      1 <1>         0.003600 
     12 H          32.288000   20.804000   18.153000 H         1 <1>         0.134400 
     13 C          31.321000   20.585000   20.068000 C.ar      1 <1>        -0.235100 
     14 H          32.253000   20.409000   20.603000 H         1 <1>         0.172800 
     15 C          30.109000   20.596000   20.763000 C.ar      1 <1>         0.147400 
     16 H          30.112000   20.430000   21.838000 H         1 <1>         0.088800 
     17 C          28.910000   20.822000   20.082000 C.ar      1 <1>        -0.545000 
     18 Cl         27.447000   20.857000   21.001000 Cl        1 <1>         0.121600 
     19 C          26.253000   22.604000   15.039000 C.ar      1 <1>         0.021400 
     20 C          26.575000   24.002000   15.130000 C.ar      1 <1>        -0.228700 
     21 H          26.899000   24.497000   16.040000 H         1 <1>         0.222100 
     22 C          26.431000   24.662000   13.930000 C.ar      1 <1>        -0.399600 
     23 H          26.608000   25.711000   13.728000 H         1 <1>         0.260200 
     24 S          25.907000   23.617000   12.686000 S.3       1 <1>         0.279400 
     25 C          25.874000   22.278000   13.748000 C.ar      1 <1>        -0.474800 
     26 H          25.570000   21.307000   13.377000 H         1 <1>         0.251400 
     27 C          23.926000   21.699000   17.231000 C.ar      1 <1>         0.353600 
     28 C          23.112000   22.453000   16.368000 C.ar      1 <1>        -0.420900 
     29 H          23.529000   23.287000   15.804000 H         1 <1>         0.202600 
     30 C          21.757000   22.146000   16.209000 C.ar      1 <1>         0.095700 
     31 H          21.150000   22.744000   15.532000 H         1 <1>         0.174200 
     32 C          21.202000   21.084000   16.924000 C.ar      1 <1>        -0.570000 
     33 C          21.993000   20.316000   17.779000 C.ar      1 <1>        -0.004300 
     34 H          21.571000   19.481000   18.335000 H         1 <1>         0.193900 
     35 C          23.348000   20.627000   17.933000 C.ar      1 <1>        -0.325600 
     36 H          23.945000   20.020000   18.613000 H         1 <1>         0.204900 
     37 S          19.483000   20.683000   16.709000 S.o2      1 <1>         2.203700 
     38 O          18.776000   21.908000   16.347000 O.2       1 <1>        -0.972500 
     39 O          19.042000   19.952000   17.893000 O.2       1 <1>        -0.967100 
     40 C          19.477000   19.586000   15.316000 C.3       1 <1>        -0.765000 
     41 H          18.444000   19.294000   15.119000 H         1 <1>         0.248900 
     42 H          20.073000   18.703000   15.556000 H         1 <1>         0.201000 
     43 H          19.887000   20.109000   14.450000 H         1 <1>         0.196600 
@<TRIPOS>BOND
     1    2    1 1    
     2    1    3 1    
     3    3    4 1    
     4    3    5 1    
     5    5    6 2    
     6    6    7 1    
     7    7    1 1    
     8    6    8 1    
     9    8    9 ar   
    10    9   10 1    
    11    9   11 ar   
    12   11   12 1    
    13   11   13 ar   
    14   13   14 1    
    15   13   15 ar   
    16   15   16 1    
    17   15   17 ar   
    18   17    8 ar   
    19   17   18 1    
    20    3   19 1    
    21   19   20 ar   
    22   20   21 1    
    23   20   22 ar   
    24   22   23 1    
    25   22   24 ar   
    26   24   25 ar   
    27   25   26 1    
    28   25   19 ar   
    29    1   27 1    
    30   27   28 ar   
    31   28   29 1    
    32   28   30 ar   
    33   30   31 1    
    34   30   32 ar   
    35   32   33 ar   
    36   33   34 1    
    37   33   35 ar   
    38   35   36 1    
    39   35   27 ar   
    40   32   37 1    
    41   37   38 2    
    42   37   39 2    
    43   37   40 1    
    44   40   41 1    
    45   40   42 1    
    46   40   43 1    
@<TRIPOS>SUBSTRUCTURE
     1 ****        2 TEMP              0 ****  ****    0 ROOT 
@<TRIPOS>SET
UNITY_3DHIT     STATIC     ATOMS    <user>   **** Atoms matching 3D or FLEX Search
0
@<TRIPOS>UNITY_BOND_ATTR
5 1
S I
