#	Name:			11-31
#	Creating user name:	jeff
#	Creation time:		Fri Dec 13 09:58:30 2002

#	Modifying user name:	jeff
#	Modification time:	Fri Dec 13 09:58:32 2002

@<TRIPOS>MOLECULE
11-31
   44    47     1     0     1
SMALL
USER_CHARGES
****
From 3DB ct
@<TRIPOS>ATOM
      1 C          25.491000   21.507000   17.239000 C.ar      1 <1>        -0.721200 
      2 C          26.448000   22.075000   16.409000 C.ar      1 <1>         0.825600 
      3 N          27.753000   22.023000   16.878000 N.ar      1 <1>        -0.509400 
      4 C          27.788000   21.398000   18.036000 C.ar      1 <1>        -0.266200 
      5 S          26.265000   20.890000   18.647000 S.3       1 <1>         0.306400 
      6 C          28.998000   21.189000   18.832000 C.ar      1 <1>         0.746200 
      7 C          30.217000   21.685000   18.337000 C.ar      1 <1>        -0.463900 
      8 H          30.246000   22.213000   17.384000 H         1 <1>         0.259200 
      9 C          31.403000   21.516000   19.055000 C.ar      1 <1>         0.005200 
     10 H          32.338000   21.911000   18.661000 H         1 <1>         0.145500 
     11 C          31.389000   20.842000   20.273000 C.ar      1 <1>        -0.268300 
     12 H          32.312000   20.708000   20.833000 H         1 <1>         0.181400 
     13 C          30.190000   20.331000   20.771000 C.ar      1 <1>         0.208800 
     14 H          30.194000   19.796000   21.719000 H         1 <1>         0.085300 
     15 C          28.999000   20.498000   20.055000 C.ar      1 <1>        -0.685500 
     16 Cl         27.564000   19.799000   20.727000 Cl        1 <1>         0.135700 
     17 C          26.158000   22.692000   15.126000 C.ar      1 <1>        -0.408200 
     18 C          25.635000   21.936000   14.068000 C.ar      1 <1>        -0.286000 
     19 H          25.436000   20.873000   14.177000 H         1 <1>         0.212300 
     20 C          25.371000   22.551000   12.848000 C.ar      1 <1>         0.543200 
     21 C          25.621000   23.906000   12.654000 C.ar      1 <1>        -0.337700 
     22 H          25.407000   24.366000   11.693000 H         1 <1>         0.242200 
     23 C          26.146000   24.663000   13.700000 C.ar      1 <1>        -0.254500 
     24 H          26.347000   25.722000   13.567000 H         1 <1>         0.224400 
     25 C          26.414000   24.053000   14.925000 C.ar      1 <1>         0.524100 
     26 F          26.907000   24.809000   15.919000 F         1 <1>        -0.350100 
     27 F          24.870000   21.824000   11.839000 F         1 <1>        -0.363000 
     28 C          24.036000   21.409000   17.113000 C.ar      1 <1>         0.506400 
     29 C          23.317000   20.439000   17.827000 C.ar      1 <1>        -0.303000 
     30 H          23.831000   19.743000   18.489000 H         1 <1>         0.208800 
     31 C          21.928000   20.339000   17.693000 C.ar      1 <1>        -0.022700 
     32 H          21.391000   19.577000   18.253000 H         1 <1>         0.190700 
     33 C          21.252000   21.219000   16.844000 C.ar      1 <1>        -0.524500 
     34 C          21.954000   22.183000   16.117000 C.ar      1 <1>        -0.024700 
     35 H          21.437000   22.867000   15.448000 H         1 <1>         0.200300 
     36 C          23.342000   22.278000   16.256000 C.ar      1 <1>        -0.302600 
     37 H          23.875000   23.041000   15.691000 H         1 <1>         0.193000 
     38 S          19.488000   21.081000   16.657000 S.o2      1 <1>         2.208100 
     39 O          18.957000   22.420000   16.424000 O.2       1 <1>        -0.972900 
     40 O          18.975000   20.317000   17.790000 O.2       1 <1>        -0.971700 
     41 C          19.296000   20.118000   15.181000 C.3       1 <1>        -0.767700 
     42 H          18.228000   19.988000   14.998000 H         1 <1>         0.251600 
     43 H          19.770000   19.145000   15.326000 H         1 <1>         0.202400 
     44 H          19.753000   20.652000   14.345000 H         1 <1>         0.196800 
@<TRIPOS>BOND
     1    1    2 ar   
     2    2    3 ar   
     3    3    4 ar   
     4    4    5 ar   
     5    5    1 ar   
     6    4    6 1    
     7    6    7 ar   
     8    7    8 1    
     9    7    9 ar   
    10    9   10 1    
    11    9   11 ar   
    12   11   12 1    
    13   11   13 ar   
    14   13   14 1    
    15   13   15 ar   
    16   15    6 ar   
    17   15   16 1    
    18    2   17 1    
    19   17   18 ar   
    20   18   19 1    
    21   18   20 ar   
    22   20   21 ar   
    23   21   22 1    
    24   21   23 ar   
    25   23   24 1    
    26   23   25 ar   
    27   25   17 ar   
    28   25   26 1    
    29   20   27 1    
    30    1   28 1    
    31   28   29 ar   
    32   29   30 1    
    33   29   31 ar   
    34   31   32 1    
    35   31   33 ar   
    36   33   34 ar   
    37   34   35 1    
    38   34   36 ar   
    39   36   37 1    
    40   36   28 ar   
    41   33   38 1    
    42   38   39 2    
    43   38   40 2    
    44   38   41 1    
    45   41   42 1    
    46   41   43 1    
    47   41   44 1    
@<TRIPOS>SUBSTRUCTURE
     1 ****        1 TEMP              0 ****  ****    0 ROOT 
@<TRIPOS>SET
UNITY_3DHIT     STATIC     ATOMS    <user>   **** Atoms matching 3D or FLEX Search
0
