#	Name:			11-8
#	Creating user name:	jeff
#	Creation time:		Fri Dec 13 09:57:52 2002

#	Modifying user name:	jeff
#	Modification time:	Fri Dec 13 09:57:54 2002

@<TRIPOS>MOLECULE
11-8
   37    39     1     0     1
SMALL
USER_CHARGES
****
From 3DB ct
@<TRIPOS>ATOM
      1 C          26.362000   22.094000   16.410000 C.ar      1 <1>        -0.524400 
      2 C          25.489000   21.496000   17.310000 C.ar      1 <1>         0.305300 
      3 N          26.086000   20.940000   18.436000 N.ar      1 <1>        -0.529600 
      4 C          27.386000   21.143000   18.403000 C.ar      1 <1>         0.230000 
      5 S          27.966000   21.984000   17.027000 S.3       1 <1>         0.191000 
      6 C          28.339000   20.694000   19.456000 C.3       1 <1>        -0.214700 
      7 H          29.077000   20.000000   19.041000 H         1 <1>         0.094600 
      8 H          27.804000   20.177000   20.259000 H         1 <1>         0.102400 
      9 H          28.864000   21.548000   19.895000 H         1 <1>         0.096500 
     10 C          24.043000   21.403000   17.140000 C.ar      1 <1>         0.168200 
     11 C          23.347000   22.277000   16.291000 C.ar      1 <1>        -0.203900 
     12 H          23.872000   23.053000   15.738000 H         1 <1>         0.138800 
     13 C          21.960000   22.173000   16.149000 C.ar      1 <1>        -0.019200 
     14 H          21.439000   22.857000   15.481000 H         1 <1>         0.189400 
     15 C          21.261000   21.202000   16.871000 C.ar      1 <1>        -0.527200 
     16 C          21.939000   20.327000   17.723000 C.ar      1 <1>         0.001000 
     17 H          21.404000   19.565000   18.286000 H         1 <1>         0.176300 
     18 C          23.326000   20.436000   17.860000 C.ar      1 <1>        -0.248400 
     19 H          23.848000   19.754000   18.532000 H         1 <1>         0.207100 
     20 S          19.499000   21.061000   16.674000 S.o2      1 <1>         2.196300 
     21 O          18.966000   22.393000   16.408000 O.2       1 <1>        -0.974300 
     22 O          18.980000   20.322000   17.821000 O.2       1 <1>        -0.972400 
     23 C          19.316000   20.068000   15.216000 C.3       1 <1>        -0.730400 
     24 H          18.248000   19.936000   15.029000 H         1 <1>         0.238500 
     25 H          19.786000   19.098000   15.385000 H         1 <1>         0.189900 
     26 H          19.780000   20.584000   14.374000 H         1 <1>         0.186300 
     27 C          26.140000   22.713000   15.101000 C.ar      1 <1>         0.184700 
     28 C          26.386000   24.081000   14.898000 C.ar      1 <1>         0.016100 
     29 H          26.748000   24.706000   15.713000 H         1 <1>         0.153000 
     30 C          26.159000   24.664000   13.649000 C.ar      1 <1>        -0.496600 
     31 H          26.348000   25.722000   13.493000 H         1 <1>         0.254400 
     32 C          25.686000   23.882000   12.603000 C.ar      1 <1>         0.632700 
     33 C          25.434000   22.527000   12.781000 C.ar      1 <1>        -0.451000 
     34 H          25.064000   21.930000   11.952000 H         1 <1>         0.248000 
     35 C          25.661000   21.942000   14.029000 C.ar      1 <1>        -0.120800 
     36 H          25.463000   20.879000   14.156000 H         1 <1>         0.180300 
     37 F          25.467000   24.442000   11.406000 F         1 <1>        -0.368100 
@<TRIPOS>BOND
     1    1    2 ar   
     2    2    3 ar   
     3    3    4 ar   
     4    4    5 ar   
     5    5    1 ar   
     6    4    6 1    
     7    6    7 1    
     8    6    8 1    
     9    6    9 1    
    10    2   10 1    
    11   10   11 ar   
    12   11   12 1    
    13   11   13 ar   
    14   13   14 1    
    15   13   15 ar   
    16   15   16 ar   
    17   16   17 1    
    18   16   18 ar   
    19   18   19 1    
    20   18   10 ar   
    21   15   20 1    
    22   20   21 2    
    23   20   22 2    
    24   20   23 1    
    25   23   24 1    
    26   23   25 1    
    27   23   26 1    
    28    1   27 1    
    29   27   28 ar   
    30   28   29 1    
    31   28   30 ar   
    32   30   31 1    
    33   30   32 ar   
    34   32   33 ar   
    35   33   34 1    
    36   33   35 ar   
    37   35   36 1    
    38   35   27 ar   
    39   32   37 1    
@<TRIPOS>SUBSTRUCTURE
     1 ****        1 TEMP              0 ****  ****    0 ROOT 
@<TRIPOS>SET
UNITY_3DHIT     STATIC     ATOMS    <user>   **** Atoms matching 3D or FLEX Search
0
