#	Name:			12-10b
#	Creating user name:	jeff
#	Creation time:		Fri Dec 13 09:58:47 2002

#	Modifying user name:	jeff
#	Modification time:	Fri Dec 13 09:58:49 2002

@<TRIPOS>MOLECULE
12-10b
   47    50     1     0     1
SMALL
USER_CHARGES
****
From 3DB ct
@<TRIPOS>ATOM
      1 C          25.481000   21.501000   17.231000 C.ar      1 <1>        -0.739400 
      2 C          26.438000   22.070000   16.400000 C.ar      1 <1>         0.640400 
      3 N          27.738000   22.048000   16.889000 N.ar      1 <1>        -0.555900 
      4 C          27.774000   21.421000   18.046000 C.ar      1 <1>        -0.088300 
      5 S          26.254000   20.892000   18.644000 S.3       1 <1>         0.250500 
      6 C          28.980000   21.228000   18.851000 C.ar      1 <1>         0.659700 
      7 C          30.196000   21.744000   18.368000 C.ar      1 <1>        -0.445500 
      8 H          30.225000   22.275000   17.417000 H         1 <1>         0.251600 
      9 C          31.379000   21.589000   19.094000 C.ar      1 <1>         0.013800 
     10 H          32.311000   21.998000   18.708000 H         1 <1>         0.139000 
     11 C          31.364000   20.910000   20.309000 C.ar      1 <1>        -0.259300 
     12 H          32.286000   20.787000   20.876000 H         1 <1>         0.177400 
     13 C          30.169000   20.380000   20.797000 C.ar      1 <1>         0.205200 
     14 H          30.174000   19.843000   21.743000 H         1 <1>         0.086500 
     15 C          28.982000   20.533000   20.072000 C.ar      1 <1>        -0.674400 
     16 Cl         27.550000   19.813000   20.730000 Cl        1 <1>         0.128300 
     17 C          26.167000   22.691000   15.109000 C.ar      1 <1>        -0.214900 
     18 C          25.673000   21.953000   14.026000 C.ar      1 <1>         0.014100 
     19 H          25.477000   20.886000   14.118000 H         1 <1>         0.113600 
     20 C          25.432000   22.576000   12.796000 C.ar      1 <1>        -0.352200 
     21 H          25.044000   21.984000   11.968000 H         1 <1>         0.220300 
     22 C          25.688000   23.939000   12.621000 C.ar      1 <1>         0.248600 
     23 C          26.196000   24.665000   13.702000 C.ar      1 <1>         0.390500 
     24 C          26.438000   24.052000   14.931000 C.ar      1 <1>        -0.315100 
     25 H          26.836000   24.650000   15.748000 H         1 <1>         0.266600 
     26 F          26.470000   25.973000   13.600000 F         1 <1>        -0.373800 
     27 O          25.404000   24.407000   11.367000 O.3       1 <1>        -0.372000 
     28 C          25.632000   25.792000   11.120000 C.3       1 <1>         0.036200 
     29 H          25.348000   25.996000   10.084000 H         1 <1>         0.083800 
     30 H          26.693000   26.041000   11.228000 H         1 <1>         0.080300 
     31 H          25.004000   26.416000   11.765000 H         1 <1>         0.071500 
     32 C          24.024000   21.400000   17.115000 C.ar      1 <1>         0.657700 
     33 C          23.310000   20.429000   17.835000 C.ar      1 <1>        -0.342200 
     34 H          23.830000   19.733000   18.492000 H         1 <1>         0.210000 
     35 C          21.920000   20.330000   17.712000 C.ar      1 <1>         0.027700 
     36 H          21.387000   19.569000   18.278000 H         1 <1>         0.190900 
     37 C          21.236000   21.209000   16.869000 C.ar      1 <1>        -0.622300 
     38 C          21.934000   22.174000   16.138000 C.ar      1 <1>         0.072300 
     39 H          21.407000   22.858000   15.475000 H         1 <1>         0.186600 
     40 C          23.323000   22.269000   16.265000 C.ar      1 <1>        -0.404700 
     41 H          23.852000   23.033000   15.696000 H         1 <1>         0.210300 
     42 S          19.479000   21.073000   16.681000 S.o2      1 <1>         2.467100 
     43 O          18.949000   22.328000   16.175000 O.2       1 <1>        -1.000700 
     44 O          18.920000   20.466000   17.876000 O.2       1 <1>        -0.998300 
     45 N          19.344000   19.953000   15.444000 N.pl3     1 <1>        -1.313700 
     46 H          18.887000   20.361000   14.624000 H         1 <1>         0.485600 
     47 H          18.859000   19.110000   15.761000 H         1 <1>         0.486400 
@<TRIPOS>BOND
     1    1    2 ar   
     2    2    3 ar   
     3    3    4 ar   
     4    4    5 ar   
     5    5    1 ar   
     6    4    6 1    
     7    6    7 ar   
     8    7    8 1    
     9    7    9 ar   
    10    9   10 1    
    11    9   11 ar   
    12   11   12 1    
    13   11   13 ar   
    14   13   14 1    
    15   13   15 ar   
    16   15    6 ar   
    17   15   16 1    
    18    2   17 1    
    19   17   18 ar   
    20   18   19 1    
    21   18   20 ar   
    22   20   21 1    
    23   20   22 ar   
    24   22   23 ar   
    25   23   24 ar   
    26   24   25 1    
    27   24   17 ar   
    28   23   26 1    
    29   22   27 1    
    30   27   28 1    
    31   28   29 1    
    32   28   30 1    
    33   28   31 1    
    34    1   32 1    
    35   32   33 ar   
    36   33   34 1    
    37   33   35 ar   
    38   35   36 1    
    39   35   37 ar   
    40   37   38 ar   
    41   38   39 1    
    42   38   40 ar   
    43   40   41 1    
    44   40   32 ar   
    45   37   42 1    
    46   42   43 2    
    47   42   44 2    
    48   42   45 1    
    49   45   46 1    
    50   45   47 1    
@<TRIPOS>SUBSTRUCTURE
     1 ****        1 TEMP              0 ****  ****    0 ROOT 
@<TRIPOS>SET
UNITY_3DHIT     STATIC     ATOMS    <user>   **** Atoms matching 3D or FLEX Search
0
