#	Name:			12-10c
#	Creating user name:	jeff
#	Creation time:		Fri Dec 13 09:58:49 2002

#	Modifying user name:	jeff
#	Modification time:	Fri Dec 13 09:58:52 2002

@<TRIPOS>MOLECULE
12-10c
   40    42     1     0     1
SMALL
USER_CHARGES
****
From 3DB ct
@<TRIPOS>ATOM
      1 C          25.481000   21.503000   17.233000 C.ar      1 <1>        -0.812100 
      2 C          26.438000   22.073000   16.401000 C.ar      1 <1>         0.596300 
      3 N          27.740000   22.047000   16.890000 N.ar      1 <1>        -0.561100 
      4 C          27.771000   21.439000   18.056000 C.ar      1 <1>         0.235400 
      5 S          26.258000   20.887000   18.642000 S.3       1 <1>         0.209400 
      6 C          29.004000   21.221000   18.863000 C.3       1 <1>        -0.224800 
      7 H          28.929000   21.724000   19.832000 H         1 <1>         0.098700 
      8 H          29.878000   21.623000   18.340000 H         1 <1>         0.105200 
      9 H          29.175000   20.153000   19.031000 H         1 <1>         0.098700 
     10 C          26.167000   22.691000   15.110000 C.ar      1 <1>        -0.213000 
     11 C          25.671000   21.952000   14.029000 C.ar      1 <1>         0.032200 
     12 H          25.475000   20.885000   14.123000 H         1 <1>         0.111900 
     13 C          25.427000   22.573000   12.798000 C.ar      1 <1>        -0.387100 
     14 H          25.038000   21.979000   11.973000 H         1 <1>         0.226000 
     15 C          25.683000   23.936000   12.621000 C.ar      1 <1>         0.277700 
     16 C          26.192000   24.663000   13.700000 C.ar      1 <1>         0.377000 
     17 C          26.436000   24.052000   14.930000 C.ar      1 <1>        -0.298200 
     18 H          26.835000   24.651000   15.745000 H         1 <1>         0.262500 
     19 F          26.465000   25.972000   13.595000 F         1 <1>        -0.370000 
     20 O          25.396000   24.401000   11.366000 O.3       1 <1>        -0.369700 
     21 C          25.631000   25.784000   11.115000 C.3       1 <1>         0.009600 
     22 H          25.348000   25.986000   10.078000 H         1 <1>         0.091400 
     23 H          26.693000   26.029000   11.222000 H         1 <1>         0.084000 
     24 H          25.005000   26.413000   11.757000 H         1 <1>         0.078000 
     25 C          24.024000   21.402000   17.116000 C.ar      1 <1>         0.666900 
     26 C          23.309000   20.431000   17.836000 C.ar      1 <1>        -0.263800 
     27 H          23.829000   19.735000   18.494000 H         1 <1>         0.183900 
     28 C          21.920000   20.331000   17.712000 C.ar      1 <1>        -0.032600 
     29 H          21.387000   19.570000   18.277000 H         1 <1>         0.204100 
     30 C          21.236000   21.209000   16.868000 C.ar      1 <1>        -0.616800 
     31 C          21.934000   22.175000   16.138000 C.ar      1 <1>         0.063300 
     32 H          21.407000   22.858000   15.475000 H         1 <1>         0.191400 
     33 C          23.323000   22.271000   16.266000 C.ar      1 <1>        -0.412800 
     34 H          23.852000   23.034000   15.697000 H         1 <1>         0.222700 
     35 S          19.480000   21.074000   16.677000 S.o2      1 <1>         2.489000 
     36 O          18.951000   22.328000   16.170000 O.2       1 <1>        -1.007200 
     37 O          18.919000   20.467000   17.872000 O.2       1 <1>        -1.003100 
     38 N          19.346000   19.954000   15.439000 N.pl3     1 <1>        -1.305300 
     39 H          18.888000   20.362000   14.620000 H         1 <1>         0.482500 
     40 H          18.860000   19.110000   15.755000 H         1 <1>         0.480000 
@<TRIPOS>BOND
     1    1    2 ar   
     2    2    3 ar   
     3    3    4 ar   
     4    4    5 ar   
     5    5    1 ar   
     6    4    6 1    
     7    6    7 1    
     8    6    8 1    
     9    6    9 1    
    10    2   10 1    
    11   10   11 ar   
    12   11   12 1    
    13   11   13 ar   
    14   13   14 1    
    15   13   15 ar   
    16   15   16 ar   
    17   16   17 ar   
    18   17   18 1    
    19   17   10 ar   
    20   16   19 1    
    21   15   20 1    
    22   20   21 1    
    23   21   22 1    
    24   21   23 1    
    25   21   24 1    
    26    1   25 1    
    27   25   26 ar   
    28   26   27 1    
    29   26   28 ar   
    30   28   29 1    
    31   28   30 ar   
    32   30   31 ar   
    33   31   32 1    
    34   31   33 ar   
    35   33   34 1    
    36   33   25 ar   
    37   30   35 1    
    38   35   36 2    
    39   35   37 2    
    40   35   38 1    
    41   38   39 1    
    42   38   40 1    
@<TRIPOS>SUBSTRUCTURE
     1 ****        1 TEMP              0 ****  ****    0 ROOT 
@<TRIPOS>SET
UNITY_3DHIT     STATIC     ATOMS    <user>   **** Atoms matching 3D or FLEX Search
0
