#	Name:			12-3a
#	Creating user name:	jeff
#	Creation time:		Fri Dec 13 09:58:34 2002

#	Modifying user name:	jeff
#	Modification time:	Fri Dec 13 09:58:37 2002

@<TRIPOS>MOLECULE
12-3a
   43    46     1     0     1
SMALL
USER_CHARGES
****
From 3DB ct
@<TRIPOS>ATOM
      1 C          25.482000   21.502000   17.232000 C.ar      1 <1>        -0.670900 
      2 C          26.440000   22.069000   16.401000 C.ar      1 <1>         0.558400 
      3 N          27.741000   22.045000   16.889000 N.ar      1 <1>        -0.564400 
      4 C          27.775000   21.418000   18.047000 C.ar      1 <1>        -0.084100 
      5 S          26.254000   20.893000   18.646000 S.3       1 <1>         0.234100 
      6 C          28.981000   21.222000   18.852000 C.ar      1 <1>         0.707300 
      7 C          30.198000   21.735000   18.368000 C.ar      1 <1>        -0.488100 
      8 H          30.228000   22.265000   17.417000 H         1 <1>         0.262400 
      9 C          31.380000   21.579000   19.096000 C.ar      1 <1>         0.025500 
     10 H          32.313000   21.986000   18.710000 H         1 <1>         0.138300 
     11 C          31.364000   20.902000   20.312000 C.ar      1 <1>        -0.263000 
     12 H          32.285000   20.779000   20.880000 H         1 <1>         0.177600 
     13 C          30.168000   20.375000   20.799000 C.ar      1 <1>         0.205500 
     14 H          30.170000   19.839000   21.747000 H         1 <1>         0.088800 
     15 C          28.980000   20.529000   20.074000 C.ar      1 <1>        -0.690800 
     16 Cl         27.548000   19.812000   20.732000 Cl        1 <1>         0.132400 
     17 C          26.167000   22.689000   15.109000 C.ar      1 <1>        -0.150200 
     18 C          25.666000   21.946000   14.030000 C.ar      1 <1>        -0.012800 
     19 H          25.471000   20.879000   14.128000 H         1 <1>         0.117000 
     20 C          25.418000   22.564000   12.801000 C.ar      1 <1>        -0.395700 
     21 H          25.027000   21.991000   11.966000 H         1 <1>         0.228800 
     22 C          25.681000   23.920000   12.650000 C.ar      1 <1>         0.558500 
     23 C          26.191000   24.671000   13.702000 C.ar      1 <1>        -0.356300 
     24 H          26.396000   25.729000   13.565000 H         1 <1>         0.215700 
     25 C          26.439000   24.055000   14.931000 C.ar      1 <1>        -0.083100 
     26 H          26.841000   24.648000   15.751000 H         1 <1>         0.194400 
     27 F          25.445000   24.511000   11.471000 F         1 <1>        -0.364400 
     28 C          24.025000   21.401000   17.114000 C.ar      1 <1>         0.586900 
     29 C          23.310000   20.431000   17.834000 C.ar      1 <1>        -0.308500 
     30 H          23.829000   19.735000   18.492000 H         1 <1>         0.202300 
     31 C          21.921000   20.332000   17.710000 C.ar      1 <1>         0.026300 
     32 H          21.386000   19.572000   18.275000 H         1 <1>         0.190600 
     33 C          21.238000   21.212000   16.866000 C.ar      1 <1>        -0.628300 
     34 C          21.936000   22.177000   16.136000 C.ar      1 <1>         0.077200 
     35 H          21.411000   22.860000   15.472000 H         1 <1>         0.184200 
     36 C          23.325000   22.271000   16.264000 C.ar      1 <1>        -0.382400 
     37 H          23.855000   23.033000   15.694000 H         1 <1>         0.201800 
     38 S          19.481000   21.072000   16.679000 S.o2      1 <1>         2.480100 
     39 O          18.950000   22.326000   16.172000 O.2       1 <1>        -1.003200 
     40 O          18.920000   20.465000   17.873000 O.2       1 <1>        -1.000300 
     41 N          19.349000   19.949000   15.443000 N.pl3     1 <1>        -1.326400 
     42 H          18.890000   20.355000   14.623000 H         1 <1>         0.489500 
     43 H          18.866000   19.105000   15.761000 H         1 <1>         0.489500 
@<TRIPOS>BOND
     1    1    2 ar   
     2    2    3 ar   
     3    3    4 ar   
     4    4    5 ar   
     5    5    1 ar   
     6    4    6 1    
     7    6    7 ar   
     8    7    8 1    
     9    7    9 ar   
    10    9   10 1    
    11    9   11 ar   
    12   11   12 1    
    13   11   13 ar   
    14   13   14 1    
    15   13   15 ar   
    16   15    6 ar   
    17   15   16 1    
    18    2   17 1    
    19   17   18 ar   
    20   18   19 1    
    21   18   20 ar   
    22   20   21 1    
    23   20   22 ar   
    24   22   23 ar   
    25   23   24 1    
    26   23   25 ar   
    27   25   26 1    
    28   25   17 ar   
    29   22   27 1    
    30    1   28 1    
    31   28   29 ar   
    32   29   30 1    
    33   29   31 ar   
    34   31   32 1    
    35   31   33 ar   
    36   33   34 ar   
    37   34   35 1    
    38   34   36 ar   
    39   36   37 1    
    40   36   28 ar   
    41   33   38 1    
    42   38   39 2    
    43   38   40 2    
    44   38   41 1    
    45   41   42 1    
    46   41   43 1    
@<TRIPOS>SUBSTRUCTURE
     1 ****        1 TEMP              0 ****  ****    0 ROOT 
@<TRIPOS>SET
UNITY_3DHIT     STATIC     ATOMS    <user>   **** Atoms matching 3D or FLEX Search
0
