#	Name:			12-5b
#	Creating user name:	jeff
#	Creation time:		Fri Dec 13 09:58:39 2002

#	Modifying user name:	jeff
#	Modification time:	Fri Dec 13 09:58:41 2002

@<TRIPOS>MOLECULE
12-5b
   36    38     1     0     1
SMALL
USER_CHARGES
****
From 3DB ct
@<TRIPOS>ATOM
      1 C          25.482000   21.503000   17.233000 C.ar      1 <1>        -0.645400 
      2 C          26.439000   22.072000   16.402000 C.ar      1 <1>         0.322800 
      3 N          27.741000   22.045000   16.891000 N.ar      1 <1>        -0.561300 
      4 C          27.771000   21.438000   18.058000 C.ar      1 <1>         0.288400 
      5 S          26.257000   20.887000   18.643000 S.3       1 <1>         0.179400 
      6 C          29.003000   21.218000   18.865000 C.3       1 <1>        -0.233200 
      7 H          28.926000   21.716000   19.837000 H         1 <1>         0.098100 
      8 H          29.877000   21.625000   18.347000 H         1 <1>         0.105200 
      9 H          29.176000   20.149000   19.029000 H         1 <1>         0.097500 
     10 C          26.167000   22.690000   15.110000 C.ar      1 <1>         0.238700 
     11 C          25.667000   21.946000   14.031000 C.ar      1 <1>        -0.309500 
     12 H          25.472000   20.880000   14.131000 H         1 <1>         0.144800 
     13 C          25.419000   22.562000   12.800000 C.ar      1 <1>         0.229800 
     14 H          25.028000   21.971000   11.975000 H         1 <1>         0.082200 
     15 C          25.680000   23.921000   12.639000 C.ar      1 <1>        -0.620800 
     16 C          26.190000   24.670000   13.697000 C.ar      1 <1>         0.279800 
     17 H          26.400000   25.730000   13.576000 H         1 <1>         0.068300 
     18 C          26.437000   24.054000   14.928000 C.ar      1 <1>        -0.380300 
     19 H          26.838000   24.649000   15.748000 H         1 <1>         0.225700 
     20 Cl         25.375000   24.678000   11.124000 Cl        1 <1>         0.114900 
     21 C          24.025000   21.402000   17.115000 C.ar      1 <1>         0.543000 
     22 C          23.310000   20.431000   17.834000 C.ar      1 <1>        -0.200100 
     23 H          23.829000   19.735000   18.492000 H         1 <1>         0.168800 
     24 C          21.920000   20.332000   17.710000 C.ar      1 <1>        -0.059700 
     25 H          21.386000   19.571000   18.275000 H         1 <1>         0.205900 
     26 C          21.237000   21.211000   16.867000 C.ar      1 <1>        -0.585900 
     27 C          21.935000   22.176000   16.137000 C.ar      1 <1>         0.043500 
     28 H          21.409000   22.860000   15.473000 H         1 <1>         0.194700 
     29 C          23.324000   22.271000   16.265000 C.ar      1 <1>        -0.370500 
     30 H          23.854000   23.034000   15.696000 H         1 <1>         0.206600 
     31 S          19.480000   21.073000   16.677000 S.o2      1 <1>         2.470200 
     32 O          18.950000   22.326000   16.170000 O.2       1 <1>        -1.003300 
     33 O          18.920000   20.466000   17.871000 O.2       1 <1>        -0.998200 
     34 N          19.348000   19.951000   15.441000 N.pl3     1 <1>        -1.307500 
     35 H          18.890000   20.358000   14.621000 H         1 <1>         0.484100 
     36 H          18.864000   19.107000   15.758000 H         1 <1>         0.483400 
@<TRIPOS>BOND
     1    1    2 ar   
     2    2    3 ar   
     3    3    4 ar   
     4    4    5 ar   
     5    5    1 ar   
     6    4    6 1    
     7    6    7 1    
     8    6    8 1    
     9    6    9 1    
    10    2   10 1    
    11   10   11 ar   
    12   11   12 1    
    13   11   13 ar   
    14   13   14 1    
    15   13   15 ar   
    16   15   16 ar   
    17   16   17 1    
    18   16   18 ar   
    19   18   19 1    
    20   18   10 ar   
    21   15   20 1    
    22    1   21 1    
    23   21   22 ar   
    24   22   23 1    
    25   22   24 ar   
    26   24   25 1    
    27   24   26 ar   
    28   26   27 ar   
    29   27   28 1    
    30   27   29 ar   
    31   29   30 1    
    32   29   21 ar   
    33   26   31 1    
    34   31   32 2    
    35   31   33 2    
    36   31   34 1    
    37   34   35 1    
    38   34   36 1    
@<TRIPOS>SUBSTRUCTURE
     1 ****        1 TEMP              0 ****  ****    0 ROOT 
@<TRIPOS>SET
UNITY_3DHIT     STATIC     ATOMS    <user>   **** Atoms matching 3D or FLEX Search
0
