#	Name:			12-5a
#	Creating user name:	jeff
#	Creation time:		Fri Dec 13 09:58:37 2002

#	Modifying user name:	jeff
#	Modification time:	Fri Dec 13 09:58:39 2002

@<TRIPOS>MOLECULE
12-5a
   36    38     1     0     1
SMALL
USER_CHARGES
****
From 3DB ct
@<TRIPOS>ATOM
      1 C          25.482000   21.503000   17.232000 C.ar      1 <1>        -0.699200 
      2 C          26.439000   22.072000   16.402000 C.ar      1 <1>         0.421800 
      3 N          27.741000   22.047000   16.894000 N.ar      1 <1>        -0.568400 
      4 C          27.770000   21.441000   18.061000 C.ar      1 <1>         0.278900 
      5 S          26.255000   20.887000   18.643000 S.3       1 <1>         0.175500 
      6 C          29.000000   21.225000   18.871000 C.3       1 <1>        -0.223600 
      7 H          28.918000   21.720000   19.844000 H         1 <1>         0.094100 
      8 H          29.873000   21.637000   18.356000 H         1 <1>         0.102400 
      9 H          29.177000   20.157000   19.033000 H         1 <1>         0.094200 
     10 C          26.169000   22.691000   15.109000 C.ar      1 <1>         0.011100 
     11 C          25.668000   21.948000   14.030000 C.ar      1 <1>        -0.115600 
     12 H          25.473000   20.881000   14.129000 H         1 <1>         0.107500 
     13 C          25.421000   22.564000   12.801000 C.ar      1 <1>        -0.167800 
     14 H          25.029000   21.981000   11.970000 H         1 <1>         0.156100 
     15 C          25.679000   23.924000   12.636000 C.ar      1 <1>        -0.132400 
     16 H          25.486000   24.403000   11.678000 H         1 <1>         0.149800 
     17 C          26.191000   24.669000   13.697000 C.ar      1 <1>        -0.136800 
     18 H          26.399000   25.730000   13.568000 H         1 <1>         0.146800 
     19 C          26.439000   24.054000   14.927000 C.ar      1 <1>        -0.165800 
     20 H          26.841000   24.648000   15.746000 H         1 <1>         0.182300 
     21 C          24.025000   21.400000   17.113000 C.ar      1 <1>         0.579800 
     22 C          23.310000   20.430000   17.833000 C.ar      1 <1>        -0.211900 
     23 H          23.829000   19.733000   18.490000 H         1 <1>         0.172200 
     24 C          21.920000   20.331000   17.710000 C.ar      1 <1>        -0.060000 
     25 H          21.386000   19.570000   18.275000 H         1 <1>         0.206700 
     26 C          21.237000   21.210000   16.867000 C.ar      1 <1>        -0.596400 
     27 C          21.934000   22.176000   16.137000 C.ar      1 <1>         0.046100 
     28 H          21.408000   22.859000   15.474000 H         1 <1>         0.192900 
     29 C          23.323000   22.270000   16.265000 C.ar      1 <1>        -0.375100 
     30 H          23.853000   23.033000   15.695000 H         1 <1>         0.208800 
     31 S          19.480000   21.074000   16.680000 S.o2      1 <1>         2.480900 
     32 O          18.950000   22.328000   16.174000 O.2       1 <1>        -1.008500 
     33 O          18.920000   20.466000   17.874000 O.2       1 <1>        -1.002300 
     34 N          19.346000   19.953000   15.443000 N.pl3     1 <1>        -1.307700 
     35 H          18.888000   20.361000   14.623000 H         1 <1>         0.482500 
     36 H          18.861000   19.110000   15.760000 H         1 <1>         0.481400 
@<TRIPOS>BOND
     1    1    2 ar   
     2    2    3 ar   
     3    3    4 ar   
     4    4    5 ar   
     5    5    1 ar   
     6    4    6 1    
     7    6    7 1    
     8    6    8 1    
     9    6    9 1    
    10    2   10 1    
    11   10   11 ar   
    12   11   12 1    
    13   11   13 ar   
    14   13   14 1    
    15   13   15 ar   
    16   15   16 1    
    17   15   17 ar   
    18   17   18 1    
    19   17   19 ar   
    20   19   20 1    
    21   19   10 ar   
    22    1   21 1    
    23   21   22 ar   
    24   22   23 1    
    25   22   24 ar   
    26   24   25 1    
    27   24   26 ar   
    28   26   27 ar   
    29   27   28 1    
    30   27   29 ar   
    31   29   30 1    
    32   29   21 ar   
    33   26   31 1    
    34   31   32 2    
    35   31   33 2    
    36   31   34 1    
    37   34   35 1    
    38   34   36 1    
@<TRIPOS>SUBSTRUCTURE
     1 ****        1 TEMP              0 ****  ****    0 ROOT 
@<TRIPOS>SET
UNITY_3DHIT     STATIC     ATOMS    <user>   **** Atoms matching 3D or FLEX Search
0
