#	Name:			13-10
#	Creating user name:	jeff
#	Creation time:		Fri Dec 13 09:59:04 2002

#	Modifying user name:	jeff
#	Modification time:	Fri Dec 13 09:59:06 2002

@<TRIPOS>MOLECULE
13-10
   43    45     1     0     1
SMALL
USER_CHARGES
****
From 3DB ct
@<TRIPOS>ATOM
      1 C          25.799000   23.899000   12.610000 C.ar      1 <1>         0.588700 
      2 C          25.545000   22.543000   12.778000 C.ar      1 <1>        -0.406000 
      3 H          25.182000   21.952000   11.942000 H         1 <1>         0.233900 
      4 C          25.757000   21.951000   14.024000 C.ar      1 <1>        -0.075500 
      5 H          25.554000   20.889000   14.150000 H         1 <1>         0.168200 
      6 C          26.227000   22.722000   15.096000 C.ar      1 <1>        -0.008400 
      7 C          26.476000   24.090000   14.912000 C.ar      1 <1>        -0.012600 
      8 H          26.833000   24.706000   15.736000 H         1 <1>         0.156300 
      9 C          26.262000   24.678000   13.664000 C.ar      1 <1>        -0.410100 
     10 H          26.453000   25.737000   13.514000 H         1 <1>         0.231300 
     11 C          26.428000   22.111000   16.395000 C.ar      1 <1>        -0.079300 
     12 C          25.483000   21.520000   17.289000 C.ar      1 <1>         0.137200 
     13 N          26.109000   21.010000   18.362000 N.ar      1 <1>        -0.318700 
     14 N          27.419000   21.279000   18.164000 N.pl3     1 <1>         0.051400 
     15 C          27.670000   21.916000   16.978000 C.ar      1 <1>        -0.498300 
     16 C          29.045000   22.233000   16.545000 C.3       1 <1>         1.653000 
     17 F          29.106000   22.951000   15.392000 F         1 <1>        -0.469500 
     18 F          29.778000   21.106000   16.326000 F         1 <1>        -0.482100 
     19 F          29.721000   22.957000   17.478000 F         1 <1>        -0.463300 
     20 C          28.370000   20.852000   19.181000 C.3       1 <1>         0.136300 
     21 H          29.304000   20.567000   18.688000 H         1 <1>         0.059200 
     22 H          27.962000   19.950000   19.651000 H         1 <1>         0.081400 
     23 C          28.619000   21.928000   20.225000 C.3       1 <1>        -0.097500 
     24 H          29.338000   21.575000   20.970000 H         1 <1>         0.052900 
     25 H          27.693000   22.195000   20.744000 H         1 <1>         0.051300 
     26 H          29.019000   22.839000   19.768000 H         1 <1>         0.041000 
     27 C          24.027000   21.411000   17.154000 C.ar      1 <1>         0.201700 
     28 C          23.308000   22.272000   16.312000 C.ar      1 <1>        -0.236700 
     29 H          23.812000   23.056000   15.751000 H         1 <1>         0.157500 
     30 C          21.919000   22.152000   16.188000 C.ar      1 <1>         0.057100 
     31 H          21.378000   22.828000   15.528000 H         1 <1>         0.180600 
     32 C          21.239000   21.174000   16.919000 C.ar      1 <1>        -0.625900 
     33 C          21.938000   20.311000   17.764000 C.ar      1 <1>         0.071700 
     34 H          21.419000   19.543000   18.334000 H         1 <1>         0.176700 
     35 C          23.326000   20.435000   17.883000 C.ar      1 <1>        -0.251200 
     36 H          23.861000   19.757000   18.547000 H         1 <1>         0.189200 
     37 S          19.484000   21.017000   16.733000 S.o2      1 <1>         2.464300 
     38 O          18.901000   22.325000   16.496000 O.2       1 <1>        -0.999600 
     39 O          18.974000   20.163000   17.792000 O.2       1 <1>        -1.000700 
     40 N          19.355000   20.163000   15.297000 N.pl3     1 <1>        -1.311100 
     41 H          18.863000   20.710000   14.586000 H         1 <1>         0.485600 
     42 H          18.906000   19.256000   15.447000 H         1 <1>         0.484900 
     43 F          25.592000   24.466000   11.413000 F         1 <1>        -0.364800 
@<TRIPOS>BOND
     1    1    2 ar   
     2    2    3 1    
     3    2    4 ar   
     4    4    5 1    
     5    4    6 ar   
     6    6    7 ar   
     7    7    8 1    
     8    7    9 ar   
     9    9   10 1    
    10    9    1 ar   
    11    6   11 1    
    12   11   12 ar   
    13   12   13 ar   
    14   13   14 ar   
    15   14   15 ar   
    16   15   11 ar   
    17   15   16 1    
    18   16   17 1    
    19   16   18 1    
    20   16   19 1    
    21   14   20 1    
    22   20   21 1    
    23   20   22 1    
    24   20   23 1    
    25   23   24 1    
    26   23   25 1    
    27   23   26 1    
    28   12   27 1    
    29   27   28 ar   
    30   28   29 1    
    31   28   30 ar   
    32   30   31 1    
    33   30   32 ar   
    34   32   33 ar   
    35   33   34 1    
    36   33   35 ar   
    37   35   36 1    
    38   35   27 ar   
    39   32   37 1    
    40   37   38 2    
    41   37   39 2    
    42   37   40 1    
    43   40   41 1    
    44   40   42 1    
    45    1   43 1    
@<TRIPOS>SUBSTRUCTURE
     1 ****        1 TEMP              0 ****  ****    0 ROOT 
@<TRIPOS>SET
UNITY_3DHIT     STATIC     ATOMS    <user>   **** Atoms matching 3D or FLEX Search
0
