#	Name:			13-4
#	Creating user name:	jeff
#	Creation time:		Fri Dec 13 09:58:56 2002

#	Modifying user name:	jeff
#	Modification time:	Fri Dec 13 09:58:58 2002

@<TRIPOS>MOLECULE
13-4
   35    37     1     0     1
SMALL
USER_CHARGES
****
From 3DB ct
@<TRIPOS>ATOM
      1 C          25.918000   23.918000   12.572000 C.ar      1 <1>         0.566800 
      2 C          25.661000   22.561000   12.724000 C.ar      1 <1>        -0.409900 
      3 H          25.340000   21.971000   11.871000 H         1 <1>         0.231900 
      4 C          25.823000   21.965000   13.978000 C.ar      1 <1>        -0.099200 
      5 H          25.628000   20.899000   14.081000 H         1 <1>         0.165000 
      6 C          26.238000   22.730000   15.078000 C.ar      1 <1>         0.091800 
      7 C          26.496000   24.098000   14.902000 C.ar      1 <1>        -0.086600 
      8 H          26.817000   24.715000   15.740000 H         1 <1>         0.165500 
      9 C          26.334000   24.692000   13.648000 C.ar      1 <1>        -0.399700 
     10 H          26.530000   25.752000   13.511000 H         1 <1>         0.227500 
     11 C          26.403000   22.110000   16.382000 C.ar      1 <1>        -0.313900 
     12 C          25.470000   21.501000   17.281000 C.ar      1 <1>         0.267700 
     13 N          26.102000   20.997000   18.358000 N.ar      1 <1>        -0.400100 
     14 N          27.403000   21.297000   18.161000 N.pl3     1 <1>        -0.220600 
     15 H          28.089000   21.016000   18.857000 H         1 <1>         0.456700 
     16 C          27.629000   21.960000   16.992000 C.ar      1 <1>        -0.123800 
     17 H          28.633000   22.244000   16.704000 H         1 <1>         0.255900 
     18 C          24.013000   21.391000   17.159000 C.ar      1 <1>         0.105900 
     19 C          23.292000   22.256000   16.322000 C.ar      1 <1>        -0.185000 
     20 H          23.802000   23.033000   15.754000 H         1 <1>         0.159400 
     21 C          21.903000   22.143000   16.207000 C.ar      1 <1>        -0.038400 
     22 H          21.364000   22.820000   15.548000 H         1 <1>         0.186700 
     23 C          21.226000   21.168000   16.944000 C.ar      1 <1>        -0.506600 
     24 C          21.927000   20.298000   17.783000 C.ar      1 <1>        -0.017600 
     25 H          21.410000   19.532000   18.356000 H         1 <1>         0.177600 
     26 C          23.317000   20.417000   17.892000 C.ar      1 <1>        -0.204300 
     27 H          23.856000   19.736000   18.550000 H         1 <1>         0.189500 
     28 S          19.461000   21.011000   16.781000 S.o2      1 <1>         2.187300 
     29 O          18.901000   22.351000   16.641000 O.2       1 <1>        -0.974400 
     30 O          18.985000   20.171000   17.875000 O.2       1 <1>        -0.973800 
     31 C          19.255000   20.140000   15.250000 C.3       1 <1>        -0.721800 
     32 H          18.185000   20.007000   15.078000 H         1 <1>         0.234500 
     33 H          19.743000   19.166000   15.326000 H         1 <1>         0.187600 
     34 H          19.691000   20.732000   14.443000 H         1 <1>         0.186200 
     35 F          25.764000   24.488000   11.369000 F         1 <1>        -0.367800 
@<TRIPOS>BOND
     1    1    2 ar   
     2    2    3 1    
     3    2    4 ar   
     4    4    5 1    
     5    4    6 ar   
     6    6    7 ar   
     7    7    8 1    
     8    7    9 ar   
     9    9   10 1    
    10    9    1 ar   
    11    6   11 1    
    12   11   12 ar   
    13   12   13 ar   
    14   13   14 ar   
    15   14   15 1    
    16   14   16 ar   
    17   16   17 1    
    18   16   11 ar   
    19   12   18 1    
    20   18   19 ar   
    21   19   20 1    
    22   19   21 ar   
    23   21   22 1    
    24   21   23 ar   
    25   23   24 ar   
    26   24   25 1    
    27   24   26 ar   
    28   26   27 1    
    29   26   18 ar   
    30   23   28 1    
    31   28   29 2    
    32   28   30 2    
    33   28   31 1    
    34   31   32 1    
    35   31   33 1    
    36   31   34 1    
    37    1   35 1    
@<TRIPOS>SUBSTRUCTURE
     1 ****        1 TEMP              0 ****  ****    0 ROOT 
@<TRIPOS>SET
UNITY_3DHIT     STATIC     ATOMS    <user>   **** Atoms matching 3D or FLEX Search
0
