#	Name:			13-5
#	Creating user name:	jeff
#	Creation time:		Fri Dec 13 09:58:58 2002

#	Modifying user name:	jeff
#	Modification time:	Fri Dec 13 09:59:00 2002

@<TRIPOS>MOLECULE
13-5
   38    40     1     0     1
SMALL
USER_CHARGES
****
From 3DB ct
@<TRIPOS>ATOM
      1 C          25.855000   23.903000   12.590000 C.ar      1 <1>         0.600000 
      2 C          25.600000   22.547000   12.755000 C.ar      1 <1>        -0.418100 
      3 H          25.258000   21.953000   11.912000 H         1 <1>         0.236500 
      4 C          25.787000   21.957000   14.007000 C.ar      1 <1>        -0.062600 
      5 H          25.586000   20.894000   14.127000 H         1 <1>         0.164000 
      6 C          26.231000   22.729000   15.089000 C.ar      1 <1>        -0.016000 
      7 C          26.481000   24.096000   14.908000 C.ar      1 <1>        -0.026700 
      8 H          26.813000   24.718000   15.738000 H         1 <1>         0.168100 
      9 C          26.293000   24.683000   13.654000 C.ar      1 <1>        -0.415100 
     10 H          26.484000   25.742000   13.508000 H         1 <1>         0.236300 
     11 C          26.417000   22.113000   16.390000 C.ar      1 <1>        -0.107200 
     12 C          25.477000   21.511000   17.286000 C.ar      1 <1>         0.255800 
     13 N          26.108000   21.003000   18.361000 N.ar      1 <1>        -0.355900 
     14 N          27.412000   21.283000   18.157000 N.pl3     1 <1>        -0.136600 
     15 H          28.092000   20.986000   18.855000 H         1 <1>         0.474000 
     16 C          27.653000   21.933000   16.983000 C.ar      1 <1>        -0.461600 
     17 C          29.028000   22.275000   16.589000 C.3       1 <1>         1.608500 
     18 F          29.301000   21.927000   15.302000 F         1 <1>        -0.453700 
     19 F          29.964000   21.654000   17.360000 F         1 <1>        -0.478700 
     20 F          29.272000   23.610000   16.691000 F         1 <1>        -0.458400 
     21 C          24.021000   21.402000   17.156000 C.ar      1 <1>         0.102700 
     22 C          23.302000   22.265000   16.315000 C.ar      1 <1>        -0.207900 
     23 H          23.809000   23.045000   15.751000 H         1 <1>         0.160700 
     24 C          21.913000   22.148000   16.193000 C.ar      1 <1>        -0.002500 
     25 H          21.376000   22.825000   15.532000 H         1 <1>         0.182200 
     26 C          21.234000   21.173000   16.927000 C.ar      1 <1>        -0.515700 
     27 C          21.933000   20.305000   17.769000 C.ar      1 <1>        -0.006000 
     28 H          21.415000   19.538000   18.340000 H         1 <1>         0.178500 
     29 C          23.322000   20.426000   17.885000 C.ar      1 <1>        -0.202100 
     30 H          23.857000   19.746000   18.546000 H         1 <1>         0.187600 
     31 S          19.471000   21.014000   16.757000 S.o2      1 <1>         2.172600 
     32 O          18.912000   22.351000   16.581000 O.2       1 <1>        -0.966400 
     33 O          18.986000   20.201000   17.868000 O.2       1 <1>        -0.966100 
     34 C          19.273000   20.106000   15.247000 C.3       1 <1>        -0.714900 
     35 H          18.204000   19.970000   15.071000 H         1 <1>         0.238400 
     36 H          19.760000   19.134000   15.349000 H         1 <1>         0.186800 
     37 H          19.714000   20.678000   14.428000 H         1 <1>         0.184600 
     38 F          25.676000   24.467000   11.389000 F         1 <1>        -0.365100 
@<TRIPOS>BOND
     1    1    2 ar   
     2    2    3 1    
     3    2    4 ar   
     4    4    5 1    
     5    4    6 ar   
     6    6    7 ar   
     7    7    8 1    
     8    7    9 ar   
     9    9   10 1    
    10    9    1 ar   
    11    6   11 1    
    12   11   12 ar   
    13   12   13 ar   
    14   13   14 ar   
    15   14   15 1    
    16   14   16 ar   
    17   16   11 ar   
    18   16   17 1    
    19   17   18 1    
    20   17   19 1    
    21   17   20 1    
    22   12   21 1    
    23   21   22 ar   
    24   22   23 1    
    25   22   24 ar   
    26   24   25 1    
    27   24   26 ar   
    28   26   27 ar   
    29   27   28 1    
    30   27   29 ar   
    31   29   30 1    
    32   29   21 ar   
    33   26   31 1    
    34   31   32 2    
    35   31   33 2    
    36   31   34 1    
    37   34   35 1    
    38   34   36 1    
    39   34   37 1    
    40    1   38 1    
@<TRIPOS>SUBSTRUCTURE
     1 ****        1 TEMP              0 ****  ****    0 ROOT 
@<TRIPOS>SET
UNITY_3DHIT     STATIC     ATOMS    <user>   **** Atoms matching 3D or FLEX Search
0
