#	Name:			13-6a
#	Creating user name:	jeff
#	Creation time:		Fri Dec 13 09:59:00 2002

#	Modifying user name:	jeff
#	Modification time:	Fri Dec 13 09:59:01 2002

@<TRIPOS>MOLECULE
13-6a
   42    44     1     0     1
SMALL
USER_CHARGES
****
From 3DB ct
@<TRIPOS>ATOM
      1 C          25.922000   23.917000   12.572000 C.ar      1 <1>         0.559600 
      2 C          25.665000   22.560000   12.725000 C.ar      1 <1>        -0.413000 
      3 H          25.345000   21.969000   11.871000 H         1 <1>         0.233800 
      4 C          25.825000   21.965000   13.979000 C.ar      1 <1>        -0.110800 
      5 H          25.629000   20.899000   14.083000 H         1 <1>         0.167500 
      6 C          26.239000   22.730000   15.079000 C.ar      1 <1>         0.156700 
      7 C          26.496000   24.098000   14.903000 C.ar      1 <1>        -0.110100 
      8 H          26.815000   24.715000   15.741000 H         1 <1>         0.172500 
      9 C          26.336000   24.691000   13.648000 C.ar      1 <1>        -0.397100 
     10 H          26.532000   25.751000   13.511000 H         1 <1>         0.227400 
     11 C          26.403000   22.111000   16.382000 C.ar      1 <1>        -0.408900 
     12 C          25.469000   21.502000   17.280000 C.ar      1 <1>         0.202800 
     13 N          26.100000   20.995000   18.356000 N.ar      1 <1>        -0.476100 
     14 N          27.403000   21.307000   18.166000 N.pl3     1 <1>         0.171200 
     15 C          27.631000   21.962000   16.991000 C.ar      1 <1>        -0.141100 
     16 H          28.631000   22.249000   16.693000 H         1 <1>         0.250700 
     17 C          28.414000   20.907000   19.142000 C.3       1 <1>        -0.024000 
     18 H          28.349000   19.818000   19.245000 H         1 <1>         0.126400 
     19 H          28.135000   21.352000   20.104000 H         1 <1>         0.104200 
     20 C          29.803000   21.300000   18.716000 C.2       1 <1>        -0.152200 
     21 H          29.888000   21.808000   17.756000 H         1 <1>         0.128900 
     22 C          30.915000   21.055000   19.423000 C.2       1 <1>        -0.300500 
     23 H          31.890000   21.362000   19.054000 H         1 <1>         0.165600 
     24 H          30.884000   20.548000   20.384000 H         1 <1>         0.185800 
     25 C          24.012000   21.391000   17.157000 C.ar      1 <1>         0.220000 
     26 C          23.290000   22.256000   16.321000 C.ar      1 <1>        -0.238300 
     27 H          23.798000   23.034000   15.754000 H         1 <1>         0.172600 
     28 C          21.901000   22.141000   16.207000 C.ar      1 <1>        -0.017800 
     29 H          21.361000   22.819000   15.549000 H         1 <1>         0.184600 
     30 C          21.225000   21.166000   16.945000 C.ar      1 <1>        -0.516200 
     31 C          21.927000   20.297000   17.783000 C.ar      1 <1>        -0.021800 
     32 H          21.411000   19.531000   18.357000 H         1 <1>         0.177800 
     33 C          23.317000   20.416000   17.891000 C.ar      1 <1>        -0.235500 
     34 H          23.856000   19.737000   18.549000 H         1 <1>         0.199800 
     35 S          19.460000   21.011000   16.784000 S.o2      1 <1>         2.182600 
     36 O          18.901000   22.352000   16.641000 O.2       1 <1>        -0.973700 
     37 O          18.985000   20.173000   17.880000 O.2       1 <1>        -0.972400 
     38 C          19.252000   20.138000   15.255000 C.3       1 <1>        -0.726700 
     39 H          18.181000   20.009000   15.082000 H         1 <1>         0.236000 
     40 H          19.735000   19.163000   15.332000 H         1 <1>         0.188800 
     41 H          19.690000   20.726000   14.446000 H         1 <1>         0.188000 
     42 F          25.769000   24.486000   11.368000 F         1 <1>        -0.367300 
@<TRIPOS>BOND
     1    1    2 ar   
     2    2    3 1    
     3    2    4 ar   
     4    4    5 1    
     5    4    6 ar   
     6    6    7 ar   
     7    7    8 1    
     8    7    9 ar   
     9    9   10 1    
    10    9    1 ar   
    11    6   11 1    
    12   11   12 ar   
    13   12   13 ar   
    14   13   14 ar   
    15   14   15 ar   
    16   15   16 1    
    17   15   11 ar   
    18   14   17 1    
    19   17   18 1    
    20   17   19 1    
    21   17   20 1    
    22   20   21 1    
    23   20   22 2    
    24   22   23 1    
    25   22   24 1    
    26   12   25 1    
    27   25   26 ar   
    28   26   27 1    
    29   26   28 ar   
    30   28   29 1    
    31   28   30 ar   
    32   30   31 ar   
    33   31   32 1    
    34   31   33 ar   
    35   33   34 1    
    36   33   25 ar   
    37   30   35 1    
    38   35   36 2    
    39   35   37 2    
    40   35   38 1    
    41   38   39 1    
    42   38   40 1    
    43   38   41 1    
    44    1   42 1    
@<TRIPOS>SUBSTRUCTURE
     1 ****        1 TEMP              0 ****  ****    0 ROOT 
@<TRIPOS>SET
UNITY_3DHIT     STATIC     ATOMS    <user>   **** Atoms matching 3D or FLEX Search
0
