#	Name:			13-7c
#	Creating user name:	jeff
#	Creation time:		Fri Dec 13 09:59:03 2002

#	Modifying user name:	jeff
#	Modification time:	Fri Dec 13 09:59:04 2002

@<TRIPOS>MOLECULE
13-7c
   44    46     1     0     1
SMALL
USER_CHARGES
****
From 3DB ct
@<TRIPOS>ATOM
      1 C          25.804000   23.897000   12.608000 C.ar      1 <1>         0.588500 
      2 C          25.549000   22.540000   12.778000 C.ar      1 <1>        -0.409800 
      3 H          25.188000   21.948000   11.942000 H         1 <1>         0.234100 
      4 C          25.759000   21.950000   14.026000 C.ar      1 <1>        -0.091100 
      5 H          25.555000   20.889000   14.153000 H         1 <1>         0.176800 
      6 C          26.226000   22.724000   15.097000 C.ar      1 <1>         0.036600 
      7 C          26.474000   24.091000   14.913000 C.ar      1 <1>        -0.040100 
      8 H          26.828000   24.708000   15.737000 H         1 <1>         0.161900 
      9 C          26.263000   24.677000   13.663000 C.ar      1 <1>        -0.399800 
     10 H          26.453000   25.736000   13.512000 H         1 <1>         0.232000 
     11 C          26.428000   22.112000   16.395000 C.ar      1 <1>        -0.168100 
     12 C          25.483000   21.519000   17.288000 C.ar      1 <1>         0.212500 
     13 N          26.109000   21.008000   18.361000 N.ar      1 <1>        -0.327300 
     14 N          27.419000   21.279000   18.163000 N.pl3     1 <1>         0.010600 
     15 C          27.670000   21.916000   16.978000 C.ar      1 <1>        -0.445200 
     16 C          29.045000   22.233000   16.545000 C.3       1 <1>         1.651900 
     17 F          29.106000   22.949000   15.390000 F         1 <1>        -0.470100 
     18 F          29.779000   21.107000   16.330000 F         1 <1>        -0.466100 
     19 F          29.720000   22.961000   17.477000 F         1 <1>        -0.482200 
     20 C          28.370000   20.855000   19.181000 C.3       1 <1>         0.185900 
     21 H          27.860000   20.828000   20.148000 H         1 <1>         0.068700 
     22 H          29.145000   21.628000   19.245000 H         1 <1>         0.048600 
     23 C          28.991000   19.505000   18.863000 C.3       1 <1>        -0.116600 
     24 H          29.697000   19.217000   19.647000 H         1 <1>         0.052900 
     25 H          29.531000   19.534000   17.911000 H         1 <1>         0.043300 
     26 H          28.226000   18.725000   18.787000 H         1 <1>         0.058900 
     27 C          24.027000   21.411000   17.154000 C.ar      1 <1>         0.110800 
     28 C          23.309000   22.272000   16.311000 C.ar      1 <1>        -0.201500 
     29 H          23.816000   23.054000   15.749000 H         1 <1>         0.161100 
     30 C          21.921000   22.154000   16.185000 C.ar      1 <1>        -0.009900 
     31 H          21.386000   22.831000   15.522000 H         1 <1>         0.183900 
     32 C          21.241000   21.178000   16.916000 C.ar      1 <1>        -0.513900 
     33 C          21.938000   20.312000   17.761000 C.ar      1 <1>        -0.007300 
     34 H          21.419000   19.544000   18.331000 H         1 <1>         0.177300 
     35 C          23.326000   20.436000   17.882000 C.ar      1 <1>        -0.214800 
     36 H          23.860000   19.756000   18.545000 H         1 <1>         0.196300 
     37 S          19.479000   21.014000   16.738000 S.o2      1 <1>         2.185500 
     38 O          18.920000   22.347000   16.534000 O.2       1 <1>        -0.971400 
     39 O          18.988000   20.220000   17.860000 O.2       1 <1>        -0.971300 
     40 C          19.291000   20.079000   15.243000 C.3       1 <1>        -0.710000 
     41 H          18.224000   19.936000   15.063000 H         1 <1>         0.235200 
     42 H          19.780000   19.110000   15.364000 H         1 <1>         0.185200 
     43 H          19.736000   20.637000   14.416000 H         1 <1>         0.182700 
     44 F          25.601000   24.461000   11.410000 F         1 <1>        -0.364900 
@<TRIPOS>BOND
     1    1    2 ar   
     2    2    3 1    
     3    2    4 ar   
     4    4    5 1    
     5    4    6 ar   
     6    6    7 ar   
     7    7    8 1    
     8    7    9 ar   
     9    9   10 1    
    10    9    1 ar   
    11    6   11 1    
    12   11   12 ar   
    13   12   13 ar   
    14   13   14 ar   
    15   14   15 ar   
    16   15   11 ar   
    17   15   16 1    
    18   16   17 1    
    19   16   18 1    
    20   16   19 1    
    21   14   20 1    
    22   20   21 1    
    23   20   22 1    
    24   20   23 1    
    25   23   24 1    
    26   23   25 1    
    27   23   26 1    
    28   12   27 1    
    29   27   28 ar   
    30   28   29 1    
    31   28   30 ar   
    32   30   31 1    
    33   30   32 ar   
    34   32   33 ar   
    35   33   34 1    
    36   33   35 ar   
    37   35   36 1    
    38   35   27 ar   
    39   32   37 1    
    40   37   38 2    
    41   37   39 2    
    42   37   40 1    
    43   40   41 1    
    44   40   42 1    
    45   40   43 1    
    46    1   44 1    
@<TRIPOS>SUBSTRUCTURE
     1 ****        1 TEMP              0 ****  ****    0 ROOT 
@<TRIPOS>SET
UNITY_3DHIT     STATIC     ATOMS    <user>   **** Atoms matching 3D or FLEX Search
0
