#	Name:			13-7a
#	Creating user name:	jeff
#	Creation time:		Fri Dec 13 09:59:01 2002

#	Modifying user name:	jeff
#	Modification time:	Fri Dec 13 09:59:03 2002

@<TRIPOS>MOLECULE
13-7a
   45    47     1     0     1
SMALL
USER_CHARGES
****
From 3DB ct
@<TRIPOS>ATOM
      1 C          25.808000   23.901000   12.608000 C.ar      1 <1>         0.580900 
      2 C          25.553000   22.545000   12.775000 C.ar      1 <1>        -0.398400 
      3 H          25.192000   21.954000   11.937000 H         1 <1>         0.232100 
      4 C          25.760000   21.952000   14.022000 C.ar      1 <1>        -0.093300 
      5 H          25.557000   20.890000   14.147000 H         1 <1>         0.174800 
      6 C          26.226000   22.722000   15.096000 C.ar      1 <1>         0.029100 
      7 C          26.476000   24.090000   14.914000 C.ar      1 <1>        -0.048400 
      8 H          26.829000   24.706000   15.740000 H         1 <1>         0.167500 
      9 C          26.267000   24.679000   13.665000 C.ar      1 <1>        -0.396700 
     10 H          26.457000   25.738000   13.517000 H         1 <1>         0.231300 
     11 C          26.428000   22.110000   16.394000 C.ar      1 <1>        -0.158900 
     12 C          25.483000   21.521000   17.289000 C.ar      1 <1>         0.177200 
     13 N          26.107000   21.014000   18.364000 N.ar      1 <1>        -0.343200 
     14 N          27.419000   21.290000   18.172000 N.pl3     1 <1>         0.080600 
     15 C          27.670000   21.913000   16.976000 C.ar      1 <1>        -0.414400 
     16 C          29.045000   22.223000   16.539000 C.3       1 <1>         1.504800 
     17 F          29.108000   22.841000   15.329000 F         1 <1>        -0.435800 
     18 F          29.807000   21.101000   16.426000 F         1 <1>        -0.440000 
     19 F          29.689000   23.040000   17.416000 F         1 <1>        -0.435700 
     20 C          28.380000   20.877000   19.200000 C.3       1 <1>         0.131600 
     21 H          28.276000   19.799000   19.350000 H         1 <1>         0.066700 
     22 H          28.078000   21.366000   20.134000 H         1 <1>         0.110400 
     23 C          29.797000   21.213000   18.823000 C.2       1 <1>        -0.174500 
     24 H          29.947000   21.694000   17.858000 H         1 <1>         0.124300 
     25 C          30.869000   20.945000   19.583000 C.2       1 <1>        -0.297900 
     26 H          31.869000   21.209000   19.249000 H         1 <1>         0.173700 
     27 H          30.779000   20.462000   20.552000 H         1 <1>         0.183100 
     28 C          24.027000   21.411000   17.154000 C.ar      1 <1>         0.135200 
     29 C          23.308000   22.272000   16.310000 C.ar      1 <1>        -0.207100 
     30 H          23.814000   23.054000   15.748000 H         1 <1>         0.165300 
     31 C          21.920000   22.152000   16.184000 C.ar      1 <1>        -0.010900 
     32 H          21.383000   22.828000   15.522000 H         1 <1>         0.184400 
     33 C          21.241000   21.175000   16.916000 C.ar      1 <1>        -0.515100 
     34 C          21.938000   20.310000   17.761000 C.ar      1 <1>        -0.014100 
     35 H          21.420000   19.542000   18.331000 H         1 <1>         0.179700 
     36 C          23.326000   20.435000   17.881000 C.ar      1 <1>        -0.199000 
     37 H          23.862000   19.757000   18.545000 H         1 <1>         0.181500 
     38 S          19.478000   21.013000   16.741000 S.o2      1 <1>         2.175300 
     39 O          18.920000   22.347000   16.538000 O.2       1 <1>        -0.967600 
     40 O          18.989000   20.219000   17.864000 O.2       1 <1>        -0.968200 
     41 C          19.289000   20.079000   15.245000 C.3       1 <1>        -0.714000 
     42 H          18.221000   19.940000   15.065000 H         1 <1>         0.236600 
     43 H          19.773000   19.109000   15.368000 H         1 <1>         0.186700 
     44 H          19.736000   20.635000   14.420000 H         1 <1>         0.184800 
     45 F          25.607000   24.468000   11.411000 F         1 <1>        -0.364100 
@<TRIPOS>BOND
     1    1    2 ar   
     2    2    3 1    
     3    2    4 ar   
     4    4    5 1    
     5    4    6 ar   
     6    6    7 ar   
     7    7    8 1    
     8    7    9 ar   
     9    9   10 1    
    10    9    1 ar   
    11    6   11 1    
    12   11   12 ar   
    13   12   13 ar   
    14   13   14 ar   
    15   14   15 ar   
    16   15   11 ar   
    17   15   16 1    
    18   16   17 1    
    19   16   18 1    
    20   16   19 1    
    21   14   20 1    
    22   20   21 1    
    23   20   22 1    
    24   20   23 1    
    25   23   24 1    
    26   23   25 2    
    27   25   26 1    
    28   25   27 1    
    29   12   28 1    
    30   28   29 ar   
    31   29   30 1    
    32   29   31 ar   
    33   31   32 1    
    34   31   33 ar   
    35   33   34 ar   
    36   34   35 1    
    37   34   36 ar   
    38   36   37 1    
    39   36   28 ar   
    40   33   38 1    
    41   38   39 2    
    42   38   40 2    
    43   38   41 1    
    44   41   42 1    
    45   41   43 1    
    46   41   44 1    
    47    1   45 1    
@<TRIPOS>SUBSTRUCTURE
     1 ****        1 TEMP              0 ****  ****    0 ROOT 
@<TRIPOS>SET
UNITY_3DHIT     STATIC     ATOMS    <user>   **** Atoms matching 3D or FLEX Search
0
