#	Name:			14-12
#	Creating user name:	jeff
#	Creation time:		Fri Dec 13 09:59:10 2002

#	Modifying user name:	jeff
#	Modification time:	Fri Dec 13 09:59:11 2002

@<TRIPOS>MOLECULE
14-12
   40    43     1     0     1
SMALL
USER_CHARGES
****
From 3DB ct
@<TRIPOS>ATOM
      1 C          26.469000   22.080000   16.376000 C.ar      1 <1>        -0.256500 
      2 C          25.465000   21.574000   17.193000 C.ar      1 <1>         0.036300 
      3 O          26.017000   21.073000   18.342000 O.3       1 <1>        -0.263600 
      4 C          27.362000   21.240000   18.262000 C.ar      1 <1>         0.343200 
      5 C          27.702000   21.857000   17.065000 C.ar      1 <1>        -0.019700 
      6 C          29.064000   22.121000   16.816000 C.ar      1 <1>        -0.148700 
      7 H          29.380000   22.610000   15.898000 H         1 <1>         0.186700 
      8 C          30.014000   21.744000   17.776000 C.ar      1 <1>        -0.221400 
      9 H          31.069000   21.943000   17.591000 H         1 <1>         0.174200 
     10 C          29.627000   21.121000   18.964000 C.ar      1 <1>        -0.047100 
     11 H          30.386000   20.839000   19.694000 H         1 <1>         0.156700 
     12 C          28.282000   20.854000   19.235000 C.ar      1 <1>        -0.383300 
     13 H          27.968000   20.373000   20.155000 H         1 <1>         0.218900 
     14 C          24.014000   21.434000   17.105000 C.ar      1 <1>         0.306000 
     15 C          23.255000   22.274000   16.276000 C.ar      1 <1>        -0.288700 
     16 H          23.737000   23.039000   15.669000 H         1 <1>         0.177700 
     17 C          21.865000   22.138000   16.196000 C.ar      1 <1>         0.069600 
     18 H          21.297000   22.800000   15.546000 H         1 <1>         0.180800 
     19 C          21.221000   21.156000   16.953000 C.ar      1 <1>        -0.629100 
     20 C          21.959000   20.301000   17.773000 C.ar      1 <1>         0.051900 
     21 H          21.469000   19.528000   18.361000 H         1 <1>         0.183700 
     22 C          23.349000   20.443000   17.847000 C.ar      1 <1>        -0.262500 
     23 H          23.911000   19.774000   18.498000 H         1 <1>         0.200500 
     24 S          19.463000   20.968000   16.824000 S.o2      1 <1>         2.469800 
     25 O          18.848000   22.274000   16.668000 O.2       1 <1>        -1.001100 
     26 O          19.007000   20.057000   17.859000 O.2       1 <1>        -1.000400 
     27 N          19.302000   20.175000   15.357000 N.pl3     1 <1>        -1.306900 
     28 H          18.776000   20.743000   14.687000 H         1 <1>         0.482200 
     29 H          18.877000   19.253000   15.480000 H         1 <1>         0.483200 
     30 C          26.252000   22.719000   15.091000 C.ar      1 <1>         0.088600 
     31 C          25.790000   21.965000   14.003000 C.ar      1 <1>        -0.102700 
     32 H          25.579000   20.902000   14.112000 H         1 <1>         0.174200 
     33 C          25.583000   22.573000   12.762000 C.ar      1 <1>        -0.404800 
     34 H          25.222000   21.993000   11.918000 H         1 <1>         0.232200 
     35 C          25.843000   23.930000   12.612000 C.ar      1 <1>         0.567400 
     36 C          26.307000   24.692000   13.678000 C.ar      1 <1>        -0.399400 
     37 H          26.508000   25.750000   13.542000 H         1 <1>         0.227800 
     38 C          26.515000   24.086000   14.919000 C.ar      1 <1>        -0.082500 
     39 H          26.886000   24.690000   15.746000 H         1 <1>         0.172700 
     40 F          25.645000   24.512000   11.422000 F         1 <1>        -0.365800 
@<TRIPOS>BOND
     1    1    2 ar   
     2    2    3 ar   
     3    3    4 ar   
     4    4    5 ar   
     5    5    1 ar   
     6    5    6 ar   
     7    6    7 1    
     8    6    8 ar   
     9    8    9 1    
    10    8   10 ar   
    11   10   11 1    
    12   10   12 ar   
    13   12   13 1    
    14   12    4 ar   
    15    2   14 1    
    16   14   15 ar   
    17   15   16 1    
    18   15   17 ar   
    19   17   18 1    
    20   17   19 ar   
    21   19   20 ar   
    22   20   21 1    
    23   20   22 ar   
    24   22   23 1    
    25   22   14 ar   
    26   19   24 1    
    27   24   25 2    
    28   24   26 2    
    29   24   27 1    
    30   27   28 1    
    31   27   29 1    
    32    1   30 1    
    33   30   31 ar   
    34   31   32 1    
    35   31   33 ar   
    36   33   34 1    
    37   33   35 ar   
    38   35   36 ar   
    39   36   37 1    
    40   36   38 ar   
    41   38   39 1    
    42   38   30 ar   
    43   35   40 1    
@<TRIPOS>SUBSTRUCTURE
     1 ****        1 TEMP              0 ****  ****    0 ROOT 
@<TRIPOS>SET
UNITY_3DHIT     STATIC     ATOMS    <user>   **** Atoms matching 3D or FLEX Search
0
