#	Name:			14-13
#	Creating user name:	jeff
#	Creation time:		Fri Dec 13 09:59:08 2002

#	Modifying user name:	jeff
#	Modification time:	Fri Dec 13 09:59:10 2002

@<TRIPOS>MOLECULE
14-13
   42    45     1     0     1
SMALL
USER_CHARGES
****
From 3DB ct
@<TRIPOS>ATOM
      1 C          26.439000   22.063000   16.405000 C.2       1 <1>        -0.017800 
      2 C          25.543000   21.529000   17.273000 C.2       1 <1>        -0.164600 
      3 C          26.192000   20.980000   18.532000 C.3       1 <1>        -0.341600 
      4 H          26.005000   19.906000   18.638000 H         1 <1>         0.160600 
      5 H          25.873000   21.520000   19.428000 H         1 <1>         0.157800 
      6 C          27.638000   21.243000   18.252000 C.ar      1 <1>         0.136900 
      7 C          27.769000   21.878000   17.012000 C.ar      1 <1>         0.021000 
      8 C          29.021000   22.242000   16.541000 C.ar      1 <1>        -0.190600 
      9 H          29.142000   22.745000   15.585000 H         1 <1>         0.180700 
     10 C          30.142000   21.951000   17.326000 C.ar      1 <1>        -0.183100 
     11 H          31.135000   22.228000   16.972000 H         1 <1>         0.164800 
     12 C          30.002000   21.308000   18.565000 C.ar      1 <1>        -0.108400 
     13 H          30.887000   21.091000   19.163000 H         1 <1>         0.154000 
     14 C          28.739000   20.949000   19.040000 C.ar      1 <1>        -0.280500 
     15 H          28.628000   20.456000   20.002000 H         1 <1>         0.196600 
     16 C          24.083000   21.434000   17.126000 C.ar      1 <1>         0.396700 
     17 C          23.390000   22.291000   16.258000 C.ar      1 <1>        -0.326300 
     18 H          23.925000   23.041000   15.678000 H         1 <1>         0.179300 
     19 C          22.003000   22.191000   16.108000 C.ar      1 <1>         0.074200 
     20 H          21.488000   22.867000   15.430000 H         1 <1>         0.178000 
     21 C          21.299000   21.227000   16.832000 C.ar      1 <1>        -0.627700 
     22 C          21.974000   20.355000   17.689000 C.ar      1 <1>         0.063200 
     23 H          21.434000   19.597000   18.251000 H         1 <1>         0.177500 
     24 C          23.361000   20.461000   17.833000 C.ar      1 <1>        -0.339300 
     25 H          23.867000   19.781000   18.516000 H         1 <1>         0.197300 
     26 S          19.546000   21.073000   16.618000 S.o2      1 <1>         2.451100 
     27 O          18.968000   22.392000   16.433000 O.2       1 <1>        -0.997500 
     28 O          19.018000   20.174000   17.629000 O.2       1 <1>        -0.998400 
     29 N          19.440000   20.278000   15.148000 N.pl3     1 <1>        -1.320400 
     30 H          18.958000   20.853000   14.452000 H         1 <1>         0.488000 
     31 H          18.991000   19.365000   15.254000 H         1 <1>         0.488300 
     32 C          26.119000   22.698000   15.119000 C.ar      1 <1>        -0.056800 
     33 C          25.569000   21.937000   14.077000 C.ar      1 <1>        -0.024600 
     34 H          25.366000   20.876000   14.215000 H         1 <1>         0.147000 
     35 C          25.266000   22.534000   12.851000 C.ar      1 <1>        -0.434500 
     36 H          24.837000   21.948000   12.044000 H         1 <1>         0.237200 
     37 C          25.515000   23.889000   12.668000 C.ar      1 <1>         0.596100 
     38 C          26.064000   24.659000   13.686000 C.ar      1 <1>        -0.429200 
     39 H          26.255000   25.716000   13.525000 H         1 <1>         0.232700 
     40 C          26.369000   24.063000   14.912000 C.ar      1 <1>        -0.031500 
     41 H          26.802000   24.671000   15.705000 H         1 <1>         0.162900 
     42 F          25.224000   24.461000   11.492000 F         1 <1>        -0.369000 
@<TRIPOS>BOND
     1    1    2 2    
     2    2    3 1    
     3    3    4 1    
     4    3    5 1    
     5    3    6 1    
     6    6    7 ar   
     7    7    1 1    
     8    7    8 ar   
     9    8    9 1    
    10    8   10 ar   
    11   10   11 1    
    12   10   12 ar   
    13   12   13 1    
    14   12   14 ar   
    15   14   15 1    
    16   14    6 ar   
    17    2   16 1    
    18   16   17 ar   
    19   17   18 1    
    20   17   19 ar   
    21   19   20 1    
    22   19   21 ar   
    23   21   22 ar   
    24   22   23 1    
    25   22   24 ar   
    26   24   25 1    
    27   24   16 ar   
    28   21   26 1    
    29   26   27 2    
    30   26   28 2    
    31   26   29 1    
    32   29   30 1    
    33   29   31 1    
    34    1   32 1    
    35   32   33 ar   
    36   33   34 1    
    37   33   35 ar   
    38   35   36 1    
    39   35   37 ar   
    40   37   38 ar   
    41   38   39 1    
    42   38   40 ar   
    43   40   41 1    
    44   40   32 ar   
    45   37   42 1    
@<TRIPOS>SUBSTRUCTURE
     1 ****        1 TEMP              0 ****  ****    0 ROOT 
@<TRIPOS>SET
UNITY_3DHIT     STATIC     ATOMS    <user>   **** Atoms matching 3D or FLEX Search
0
@<TRIPOS>UNITY_BOND_ATTR
1 1
S I
