#	Name:			14-15
#	Creating user name:	jeff
#	Creation time:		Fri Dec 13 09:59:12 2002

#	Modifying user name:	jeff
#	Modification time:	Fri Dec 13 09:59:14 2002

@<TRIPOS>MOLECULE
14-15
   44    47     1     0     1
SMALL
USER_CHARGES
****
From 3DB ct
@<TRIPOS>ATOM
      1 C          26.472000   22.077000   16.376000 C.ar      1 <1>        -0.053400 
      2 C          25.467000   21.575000   17.194000 C.ar      1 <1>        -0.036100 
      3 O          26.016000   21.079000   18.346000 O.3       1 <1>        -0.254900 
      4 C          27.362000   21.244000   18.266000 C.ar      1 <1>         0.349200 
      5 C          27.704000   21.856000   17.067000 C.ar      1 <1>        -0.124400 
      6 C          29.066000   22.118000   16.819000 C.ar      1 <1>        -0.096300 
      7 H          29.385000   22.603000   15.899000 H         1 <1>         0.183100 
      8 C          30.015000   21.744000   17.782000 C.ar      1 <1>        -0.245400 
      9 H          31.070000   21.941000   17.597000 H         1 <1>         0.176600 
     10 C          29.626000   21.126000   18.972000 C.ar      1 <1>        -0.028300 
     11 H          30.383000   20.846000   19.704000 H         1 <1>         0.152200 
     12 C          28.279000   20.862000   19.242000 C.ar      1 <1>        -0.380400 
     13 H          27.964000   20.386000   20.164000 H         1 <1>         0.215600 
     14 C          24.015000   21.435000   17.104000 C.ar      1 <1>         0.350300 
     15 C          23.258000   22.275000   16.275000 C.ar      1 <1>        -0.294900 
     16 H          23.739000   23.041000   15.668000 H         1 <1>         0.182600 
     17 C          21.867000   22.139000   16.195000 C.ar      1 <1>         0.065700 
     18 H          21.300000   22.801000   15.544000 H         1 <1>         0.182600 
     19 C          21.223000   21.157000   16.951000 C.ar      1 <1>        -0.634800 
     20 C          21.960000   20.303000   17.771000 C.ar      1 <1>         0.058200 
     21 H          21.470000   19.529000   18.358000 H         1 <1>         0.182600 
     22 C          23.350000   20.445000   17.846000 C.ar      1 <1>        -0.285800 
     23 H          23.912000   19.776000   18.497000 H         1 <1>         0.206400 
     24 S          19.466000   20.968000   16.820000 S.o2      1 <1>         2.477400 
     25 O          18.863000   22.253000   16.514000 O.2       1 <1>        -1.003100 
     26 O          18.989000   20.180000   17.943000 O.2       1 <1>        -1.002100 
     27 N          19.316000   20.020000   15.447000 N.pl3     1 <1>        -1.306900 
     28 H          18.802000   20.514000   14.713000 H         1 <1>         0.482400 
     29 H          18.881000   19.120000   15.666000 H         1 <1>         0.481500 
     30 C          26.257000   22.710000   15.087000 C.ar      1 <1>        -0.111400 
     31 C          26.510000   24.074000   14.925000 C.ar      1 <1>        -0.282700 
     32 H          26.880000   24.678000   15.750000 H         1 <1>         0.245100 
     33 C          26.298000   24.685000   13.689000 C.ar      1 <1>         0.342300 
     34 C          25.829000   23.956000   12.593000 C.ar      1 <1>         0.300600 
     35 C          25.572000   22.592000   12.761000 C.ar      1 <1>        -0.431200 
     36 H          25.202000   22.000000   11.926000 H         1 <1>         0.234300 
     37 C          25.780000   21.971000   13.998000 C.ar      1 <1>         0.036600 
     38 H          25.562000   20.909000   14.097000 H         1 <1>         0.142600 
     39 O          25.578000   24.422000   11.331000 O.3       1 <1>        -0.374500 
     40 C          25.819000   25.805000   11.087000 C.3       1 <1>         0.029300 
     41 H          25.572000   26.005000   10.040000 H         1 <1>         0.087400 
     42 H          26.876000   26.052000   11.231000 H         1 <1>         0.073900 
     43 H          25.170000   26.433000   11.706000 H         1 <1>         0.074400 
     44 F          26.562000   25.997000   13.595000 F         1 <1>        -0.366200 
@<TRIPOS>BOND
     1    1    2 ar   
     2    2    3 ar   
     3    3    4 ar   
     4    4    5 ar   
     5    5    1 ar   
     6    5    6 ar   
     7    6    7 1    
     8    6    8 ar   
     9    8    9 1    
    10    8   10 ar   
    11   10   11 1    
    12   10   12 ar   
    13   12   13 1    
    14   12    4 ar   
    15    2   14 1    
    16   14   15 ar   
    17   15   16 1    
    18   15   17 ar   
    19   17   18 1    
    20   17   19 ar   
    21   19   20 ar   
    22   20   21 1    
    23   20   22 ar   
    24   22   23 1    
    25   22   14 ar   
    26   19   24 1    
    27   24   25 2    
    28   24   26 2    
    29   24   27 1    
    30   27   28 1    
    31   27   29 1    
    32    1   30 1    
    33   30   31 ar   
    34   31   32 1    
    35   31   33 ar   
    36   33   34 ar   
    37   34   35 ar   
    38   35   36 1    
    39   35   37 ar   
    40   37   38 1    
    41   37   30 ar   
    42   34   39 1    
    43   39   40 1    
    44   40   41 1    
    45   40   42 1    
    46   40   43 1    
    47   33   44 1    
@<TRIPOS>SUBSTRUCTURE
     1 ****        1 TEMP              0 ****  ****    0 ROOT 
@<TRIPOS>SET
UNITY_3DHIT     STATIC     ATOMS    <user>   **** Atoms matching 3D or FLEX Search
0
