#	Name:			14-14
#	Creating user name:	jeff
#	Creation time:		Fri Dec 13 09:59:11 2002

#	Modifying user name:	jeff
#	Modification time:	Fri Dec 13 09:59:12 2002

@<TRIPOS>MOLECULE
14-14
   45    48     1     0     1
SMALL
USER_CHARGES
****
From 3DB ct
@<TRIPOS>ATOM
      1 C          26.472000   22.077000   16.377000 C.ar      1 <1>        -0.101400 
      2 C          25.467000   21.575000   17.194000 C.ar      1 <1>         0.010500 
      3 O          26.016000   21.079000   18.346000 O.3       1 <1>        -0.241500 
      4 C          27.362000   21.246000   18.268000 C.ar      1 <1>         0.306600 
      5 C          27.704000   21.857000   17.069000 C.ar      1 <1>        -0.078600 
      6 C          29.066000   22.120000   16.821000 C.ar      1 <1>        -0.116800 
      7 H          29.385000   22.605000   15.902000 H         1 <1>         0.186200 
      8 C          30.015000   21.747000   17.784000 C.ar      1 <1>        -0.235600 
      9 H          31.070000   21.944000   17.601000 H         1 <1>         0.175800 
     10 C          29.625000   21.129000   18.975000 C.ar      1 <1>        -0.037800 
     11 H          30.383000   20.849000   19.707000 H         1 <1>         0.153200 
     12 C          28.279000   20.864000   19.244000 C.ar      1 <1>        -0.360800 
     13 H          27.963000   20.388000   20.166000 H         1 <1>         0.212800 
     14 C          24.016000   21.434000   17.103000 C.ar      1 <1>         0.257400 
     15 C          23.259000   22.273000   16.272000 C.ar      1 <1>        -0.234100 
     16 H          23.742000   23.037000   15.665000 H         1 <1>         0.177100 
     17 C          21.869000   22.138000   16.190000 C.ar      1 <1>        -0.025300 
     18 H          21.305000   22.800000   15.536000 H         1 <1>         0.188500 
     19 C          21.225000   21.157000   16.947000 C.ar      1 <1>        -0.516100 
     20 C          21.961000   20.301000   17.768000 C.ar      1 <1>        -0.018000 
     21 H          21.471000   19.526000   18.354000 H         1 <1>         0.186700 
     22 C          23.351000   20.443000   17.843000 C.ar      1 <1>        -0.237600 
     23 H          23.912000   19.774000   18.494000 H         1 <1>         0.198800 
     24 S          19.460000   20.970000   16.827000 S.o2      1 <1>         2.192700 
     25 O          18.870000   22.302000   16.745000 O.2       1 <1>        -0.970400 
     26 O          19.030000   20.086000   17.905000 O.2       1 <1>        -0.971200 
     27 C          19.230000   20.144000   15.275000 C.3       1 <1>        -0.736000 
     28 H          18.159000   19.994000   15.126000 H         1 <1>         0.239500 
     29 H          19.739000   19.179000   15.306000 H         1 <1>         0.192900 
     30 H          19.632000   20.770000   14.476000 H         1 <1>         0.191600 
     31 C          26.258000   22.710000   15.087000 C.ar      1 <1>        -0.079800 
     32 C          26.510000   24.075000   14.926000 C.ar      1 <1>        -0.294600 
     33 H          26.880000   24.679000   15.750000 H         1 <1>         0.248500 
     34 C          26.299000   24.685000   13.688000 C.ar      1 <1>         0.348500 
     35 C          25.829000   23.956000   12.593000 C.ar      1 <1>         0.295100 
     36 C          25.572000   22.592000   12.762000 C.ar      1 <1>        -0.427200 
     37 H          25.203000   21.999000   11.926000 H         1 <1>         0.234000 
     38 C          25.781000   21.971000   13.998000 C.ar      1 <1>         0.015300 
     39 H          25.563000   20.909000   14.098000 H         1 <1>         0.145100 
     40 O          25.578000   24.421000   11.331000 O.3       1 <1>        -0.374600 
     41 C          25.820000   25.804000   11.086000 C.3       1 <1>         0.029600 
     42 H          25.572000   26.004000   10.040000 H         1 <1>         0.087600 
     43 H          26.878000   26.050000   11.228000 H         1 <1>         0.074300 
     44 H          25.173000   26.433000   11.706000 H         1 <1>         0.074700 
     45 F          26.564000   25.997000   13.594000 F         1 <1>        -0.365800 
@<TRIPOS>BOND
     1    1    2 ar   
     2    2    3 ar   
     3    3    4 ar   
     4    4    5 ar   
     5    5    1 ar   
     6    5    6 ar   
     7    6    7 1    
     8    6    8 ar   
     9    8    9 1    
    10    8   10 ar   
    11   10   11 1    
    12   10   12 ar   
    13   12   13 1    
    14   12    4 ar   
    15    2   14 1    
    16   14   15 ar   
    17   15   16 1    
    18   15   17 ar   
    19   17   18 1    
    20   17   19 ar   
    21   19   20 ar   
    22   20   21 1    
    23   20   22 ar   
    24   22   23 1    
    25   22   14 ar   
    26   19   24 1    
    27   24   25 2    
    28   24   26 2    
    29   24   27 1    
    30   27   28 1    
    31   27   29 1    
    32   27   30 1    
    33    1   31 1    
    34   31   32 ar   
    35   32   33 1    
    36   32   34 ar   
    37   34   35 ar   
    38   35   36 ar   
    39   36   37 1    
    40   36   38 ar   
    41   38   39 1    
    42   38   31 ar   
    43   35   40 1    
    44   40   41 1    
    45   41   42 1    
    46   41   43 1    
    47   41   44 1    
    48   34   45 1    
@<TRIPOS>SUBSTRUCTURE
     1 ****        1 TEMP              0 ****  ****    0 ROOT 
@<TRIPOS>SET
UNITY_3DHIT     STATIC     ATOMS    <user>   **** Atoms matching 3D or FLEX Search
0
