#	Name:			14-3
#	Creating user name:	jeff
#	Creation time:		Fri Dec 13 09:59:06 2002

#	Modifying user name:	jeff
#	Modification time:	Fri Dec 13 09:59:07 2002

@<TRIPOS>MOLECULE
14-3
   43    46     1     0     1
SMALL
USER_CHARGES
****
From 3DB ct
@<TRIPOS>ATOM
      1 C          26.440000   22.065000   16.407000 C.2       1 <1>        -0.090000 
      2 C          25.543000   21.529000   17.272000 C.2       1 <1>        -0.091100 
      3 C          26.192000   20.980000   18.532000 C.3       1 <1>        -0.313000 
      4 H          26.007000   19.906000   18.637000 H         1 <1>         0.155200 
      5 H          25.869000   21.519000   19.428000 H         1 <1>         0.156000 
      6 C          27.637000   21.248000   18.255000 C.ar      1 <1>         0.075900 
      7 C          27.768000   21.884000   17.016000 C.ar      1 <1>         0.073800 
      8 C          29.021000   22.252000   16.548000 C.ar      1 <1>        -0.208900 
      9 H          29.142000   22.755000   15.593000 H         1 <1>         0.182600 
     10 C          30.141000   21.964000   17.335000 C.ar      1 <1>        -0.172800 
     11 H          31.134000   22.244000   16.984000 H         1 <1>         0.164000 
     12 C          30.000000   21.320000   18.574000 C.ar      1 <1>        -0.121900 
     13 H          30.884000   21.106000   19.173000 H         1 <1>         0.155500 
     14 C          28.738000   20.957000   19.046000 C.ar      1 <1>        -0.248500 
     15 H          28.626000   20.463000   20.007000 H         1 <1>         0.191000 
     16 C          24.084000   21.430000   17.123000 C.ar      1 <1>         0.281700 
     17 C          23.391000   22.288000   16.255000 C.ar      1 <1>        -0.256500 
     18 H          23.927000   23.040000   15.676000 H         1 <1>         0.170800 
     19 C          22.005000   22.189000   16.105000 C.ar      1 <1>        -0.019600 
     20 H          21.491000   22.866000   15.426000 H         1 <1>         0.187700 
     21 C          21.301000   21.224000   16.828000 C.ar      1 <1>        -0.529300 
     22 C          21.976000   20.349000   17.682000 C.ar      1 <1>         0.007500 
     23 H          21.438000   19.587000   18.243000 H         1 <1>         0.177600 
     24 C          23.363000   20.455000   17.826000 C.ar      1 <1>        -0.299700 
     25 H          23.869000   19.773000   18.508000 H         1 <1>         0.192900 
     26 S          19.540000   21.081000   16.627000 S.o2      1 <1>         2.189000 
     27 O          19.020000   22.397000   16.272000 O.2       1 <1>        -0.972800 
     28 O          19.005000   20.420000   17.814000 O.2       1 <1>        -0.973900 
     29 C          19.363000   19.997000   15.235000 C.3       1 <1>        -0.724800 
     30 H          18.297000   19.860000   15.046000 H         1 <1>         0.237500 
     31 H          19.826000   19.037000   15.469000 H         1 <1>         0.187400 
     32 H          19.838000   20.455000   14.365000 H         1 <1>         0.187800 
     33 C          26.120000   22.698000   15.120000 C.ar      1 <1>        -0.022300 
     34 C          25.570000   21.936000   14.078000 C.ar      1 <1>        -0.037500 
     35 H          25.367000   20.875000   14.217000 H         1 <1>         0.151500 
     36 C          25.266000   22.532000   12.852000 C.ar      1 <1>        -0.441900 
     37 H          24.837000   21.944000   12.045000 H         1 <1>         0.238300 
     38 C          25.515000   23.887000   12.668000 C.ar      1 <1>         0.594600 
     39 C          26.064000   24.658000   13.685000 C.ar      1 <1>        -0.426400 
     40 H          26.254000   25.715000   13.523000 H         1 <1>         0.233700 
     41 C          26.369000   24.063000   14.911000 C.ar      1 <1>        -0.038100 
     42 H          26.802000   24.672000   15.703000 H         1 <1>         0.165500 
     43 F          25.224000   24.457000   11.491000 F         1 <1>        -0.368300 
@<TRIPOS>BOND
     1    1    2 2    
     2    2    3 1    
     3    3    4 1    
     4    3    5 1    
     5    3    6 1    
     6    6    7 ar   
     7    7    1 1    
     8    7    8 ar   
     9    8    9 1    
    10    8   10 ar   
    11   10   11 1    
    12   10   12 ar   
    13   12   13 1    
    14   12   14 ar   
    15   14   15 1    
    16   14    6 ar   
    17    2   16 1    
    18   16   17 ar   
    19   17   18 1    
    20   17   19 ar   
    21   19   20 1    
    22   19   21 ar   
    23   21   22 ar   
    24   22   23 1    
    25   22   24 ar   
    26   24   25 1    
    27   24   16 ar   
    28   21   26 1    
    29   26   27 2    
    30   26   28 2    
    31   26   29 1    
    32   29   30 1    
    33   29   31 1    
    34   29   32 1    
    35    1   33 1    
    36   33   34 ar   
    37   34   35 1    
    38   34   36 ar   
    39   36   37 1    
    40   36   38 ar   
    41   38   39 ar   
    42   39   40 1    
    43   39   41 ar   
    44   41   42 1    
    45   41   33 ar   
    46   38   43 1    
@<TRIPOS>SUBSTRUCTURE
     1 ****        1 TEMP              0 ****  ****    0 ROOT 
@<TRIPOS>SET
UNITY_3DHIT     STATIC     ATOMS    <user>   **** Atoms matching 3D or FLEX Search
0
@<TRIPOS>UNITY_BOND_ATTR
1 1
S I
