#	Name:			14-7
#	Creating user name:	jeff
#	Creation time:		Fri Dec 13 09:59:07 2002

#	Modifying user name:	jeff
#	Modification time:	Fri Dec 13 09:59:08 2002

@<TRIPOS>MOLECULE
14-7
   41    44     1     0     1
SMALL
USER_CHARGES
****
From 3DB ct
@<TRIPOS>ATOM
      1 C          26.470000   22.080000   16.377000 C.ar      1 <1>        -0.296000 
      2 C          25.466000   21.574000   17.193000 C.ar      1 <1>         0.081400 
      3 O          26.016000   21.073000   18.343000 O.3       1 <1>        -0.250500 
      4 C          27.362000   21.241000   18.263000 C.ar      1 <1>         0.301600 
      5 C          27.703000   21.857000   17.066000 C.ar      1 <1>         0.019900 
      6 C          29.064000   22.121000   16.818000 C.ar      1 <1>        -0.166300 
      7 H          29.381000   22.610000   15.899000 H         1 <1>         0.189300 
      8 C          30.014000   21.744000   17.778000 C.ar      1 <1>        -0.212100 
      9 H          31.070000   21.943000   17.593000 H         1 <1>         0.173400 
     10 C          29.627000   21.121000   18.966000 C.ar      1 <1>        -0.056900 
     11 H          30.385000   20.839000   19.697000 H         1 <1>         0.157800 
     12 C          28.280000   20.855000   19.237000 C.ar      1 <1>        -0.363000 
     13 H          27.966000   20.375000   20.157000 H         1 <1>         0.215900 
     14 C          24.014000   21.433000   17.103000 C.ar      1 <1>         0.212300 
     15 C          23.256000   22.272000   16.273000 C.ar      1 <1>        -0.232000 
     16 H          23.738000   23.037000   15.666000 H         1 <1>         0.172800 
     17 C          21.866000   22.136000   16.192000 C.ar      1 <1>        -0.012600 
     18 H          21.302000   22.798000   15.538000 H         1 <1>         0.184200 
     19 C          21.223000   21.156000   16.950000 C.ar      1 <1>        -0.515800 
     20 C          21.959000   20.300000   17.770000 C.ar      1 <1>        -0.026300 
     21 H          21.470000   19.525000   18.357000 H         1 <1>         0.188600 
     22 C          23.349000   20.443000   17.844000 C.ar      1 <1>        -0.210800 
     23 H          23.911000   19.773000   18.495000 H         1 <1>         0.192300 
     24 S          19.458000   20.968000   16.831000 S.o2      1 <1>         2.187800 
     25 O          18.867000   22.301000   16.763000 O.2       1 <1>        -0.969900 
     26 O          19.030000   20.073000   17.901000 O.2       1 <1>        -0.969600 
     27 C          19.225000   20.157000   15.271000 C.3       1 <1>        -0.726900 
     28 H          18.154000   20.007000   15.124000 H         1 <1>         0.237900 
     29 H          19.736000   19.192000   15.292000 H         1 <1>         0.190500 
     30 H          19.624000   20.791000   14.477000 H         1 <1>         0.188800 
     31 C          26.253000   22.719000   15.091000 C.ar      1 <1>         0.112200 
     32 C          25.791000   21.965000   14.003000 C.ar      1 <1>        -0.121000 
     33 H          25.581000   20.902000   14.113000 H         1 <1>         0.176400 
     34 C          25.584000   22.573000   12.763000 C.ar      1 <1>        -0.401300 
     35 H          25.223000   21.993000   11.919000 H         1 <1>         0.231900 
     36 C          25.844000   23.930000   12.613000 C.ar      1 <1>         0.561200 
     37 C          26.308000   24.692000   13.678000 C.ar      1 <1>        -0.392800 
     38 H          26.509000   25.750000   13.541000 H         1 <1>         0.228100 
     39 C          26.516000   24.086000   14.919000 C.ar      1 <1>        -0.091300 
     40 H          26.887000   24.690000   15.746000 H         1 <1>         0.175400 
     41 F          25.645000   24.512000   11.422000 F         1 <1>        -0.364500 
@<TRIPOS>BOND
     1    1    2 ar   
     2    2    3 ar   
     3    3    4 ar   
     4    4    5 ar   
     5    5    1 ar   
     6    5    6 ar   
     7    6    7 1    
     8    6    8 ar   
     9    8    9 1    
    10    8   10 ar   
    11   10   11 1    
    12   10   12 ar   
    13   12   13 1    
    14   12    4 ar   
    15    2   14 1    
    16   14   15 ar   
    17   15   16 1    
    18   15   17 ar   
    19   17   18 1    
    20   17   19 ar   
    21   19   20 ar   
    22   20   21 1    
    23   20   22 ar   
    24   22   23 1    
    25   22   14 ar   
    26   19   24 1    
    27   24   25 2    
    28   24   26 2    
    29   24   27 1    
    30   27   28 1    
    31   27   29 1    
    32   27   30 1    
    33    1   31 1    
    34   31   32 ar   
    35   32   33 1    
    36   32   34 ar   
    37   34   35 1    
    38   34   36 ar   
    39   36   37 ar   
    40   37   38 1    
    41   37   39 ar   
    42   39   40 1    
    43   39   31 ar   
    44   36   41 1    
@<TRIPOS>SUBSTRUCTURE
     1 ****        1 TEMP              0 ****  ****    0 ROOT 
@<TRIPOS>SET
UNITY_3DHIT     STATIC     ATOMS    <user>   **** Atoms matching 3D or FLEX Search
0
