#	Name:			2-20
#	Creating user name:	jeff
#	Creation time:		Fri Dec 13 09:44:13 2002

#	Modifying user name:	jeff
#	Modification time:	Fri Dec 13 09:44:16 2002

@<TRIPOS>MOLECULE
2-20
   45    47     1     0     1
SMALL
USER_CHARGES
****
From 3DB ct
@<TRIPOS>ATOM
      1 N          26.290000   22.215000   16.429000 N.pl3     1 <1>        -0.278500 
      2 C          25.447000   21.402000   17.206000 C.ar      1 <1>        -0.183900 
      3 C          26.263000   20.695000   18.074000 C.ar      1 <1>        -0.246700 
      4 H          25.934000   19.925000   18.763000 H         1 <1>         0.216900 
      5 C          27.541000   21.273000   18.026000 C.ar      1 <1>        -0.338200 
      6 H          28.379000   21.034000   18.672000 H         1 <1>         0.227300 
      7 C          27.491000   22.322000   17.125000 C.ar      1 <1>         0.124000 
      8 C          28.524000   23.386000   16.981000 C.3       1 <1>        -0.289600 
      9 H          29.184000   23.390000   17.857000 H         1 <1>         0.111700 
     10 H          28.063000   24.377000   16.941000 H         1 <1>         0.094000 
     11 H          29.162000   23.227000   16.111000 H         1 <1>         0.098100 
     12 C          23.985000   21.313000   17.119000 C.ar      1 <1>         0.322100 
     13 C          23.259000   22.201000   16.312000 C.ar      1 <1>        -0.268900 
     14 H          23.773000   22.966000   15.732000 H         1 <1>         0.193600 
     15 C          21.864000   22.130000   16.251000 C.ar      1 <1>        -0.004100 
     16 H          21.321000   22.826000   15.615000 H         1 <1>         0.185500 
     17 C          21.187000   21.178000   17.016000 C.ar      1 <1>        -0.530300 
     18 C          21.893000   20.290000   17.830000 C.ar      1 <1>        -0.032100 
     19 H          21.375000   19.542000   18.426000 H         1 <1>         0.181600 
     20 C          23.288000   20.367000   17.886000 C.ar      1 <1>        -0.272400 
     21 H          23.829000   19.672000   18.527000 H         1 <1>         0.200600 
     22 S          19.413000   21.080000   16.928000 S.o2      1 <1>         2.208100 
     23 O          18.883000   22.438000   16.986000 O.2       1 <1>        -0.975800 
     24 O          18.968000   20.117000   17.931000 O.2       1 <1>        -0.975700 
     25 C          19.109000   20.414000   15.313000 C.3       1 <1>        -0.742500 
     26 H          18.029000   20.327000   15.180000 H         1 <1>         0.240000 
     27 H          19.572000   19.428000   15.241000 H         1 <1>         0.196100 
     28 H          19.522000   21.093000   14.565000 H         1 <1>         0.191600 
     29 C          25.679000   22.749000   15.190000 C.3       1 <1>         0.356900 
     30 H          24.657000   23.008000   15.492000 H         1 <1>         0.059200 
     31 C          25.866000   21.667000   14.096000 C.3       1 <1>        -0.208500 
     32 H          25.368000   20.730000   14.347000 H         1 <1>         0.080700 
     33 H          26.933000   21.402000   14.062000 H         1 <1>         0.095900 
     34 C          25.462000   22.140000   12.697000 C.3       1 <1>        -0.265400 
     35 H          24.388000   22.340000   12.641000 H         1 <1>         0.108100 
     36 H          25.658000   21.348000   11.965000 H         1 <1>         0.094700 
     37 C          26.214000   23.397000   12.291000 C.3       1 <1>         0.553300 
     38 H          27.270000   23.165000   12.113000 H         1 <1>         0.027100 
     39 C          26.086000   24.486000   13.343000 C.3       1 <1>        -0.266800 
     40 H          25.055000   24.856000   13.376000 H         1 <1>         0.107500 
     41 H          26.705000   25.343000   13.053000 H         1 <1>         0.101300 
     42 C          26.517000   23.972000   14.715000 C.3       1 <1>        -0.244800 
     43 H          27.572000   23.669000   14.659000 H         1 <1>         0.102100 
     44 H          26.502000   24.803000   15.418000 H         1 <1>         0.104900 
     45 F          25.697000   23.858000   11.116000 F         1 <1>        -0.458500 
@<TRIPOS>BOND
     1    1    2 ar   
     2    2    3 ar   
     3    3    4 1    
     4    3    5 ar   
     5    5    6 1    
     6    5    7 ar   
     7    7    1 ar   
     8    7    8 1    
     9    8    9 1    
    10    8   10 1    
    11    8   11 1    
    12    2   12 1    
    13   12   13 ar   
    14   13   14 1    
    15   13   15 ar   
    16   15   16 1    
    17   15   17 ar   
    18   17   18 ar   
    19   18   19 1    
    20   18   20 ar   
    21   20   21 1    
    22   20   12 ar   
    23   17   22 1    
    24   22   23 2    
    25   22   24 2    
    26   22   25 1    
    27   25   26 1    
    28   25   27 1    
    29   25   28 1    
    30    1   29 1    
    31   29   30 1    
    32   29   31 1    
    33   31   32 1    
    34   31   33 1    
    35   31   34 1    
    36   34   35 1    
    37   34   36 1    
    38   34   37 1    
    39   37   38 1    
    40   37   39 1    
    41   39   40 1    
    42   39   41 1    
    43   39   42 1    
    44   42   43 1    
    45   42   44 1    
    46   42   29 1    
    47   37   45 1    
@<TRIPOS>SUBSTRUCTURE
     1 ****        1 TEMP              0 ****  ****    0 ROOT 
@<TRIPOS>SET
UNITY_3DHIT     STATIC     ATOMS    <user>   **** Atoms matching 3D or FLEX Search
0
