#	Name:			3-100
#	Creating user name:	jeff
#	Creation time:		Fri Dec 13 09:47:28 2002

#	Modifying user name:	jeff
#	Modification time:	Fri Dec 13 09:47:30 2002

@<TRIPOS>MOLECULE
3-100
   39    41     1     0     1
SMALL
USER_CHARGES
****
From 3DB ct
@<TRIPOS>ATOM
      1 C          26.409000   22.130000   16.460000 C.ar      1 <1>         0.209800 
      2 N          25.470000   21.461000   17.257000 N.pl3     1 <1>        -0.232900 
      3 C          26.199000   20.887000   18.282000 C.ar      1 <1>        -0.385000 
      4 H          25.742000   20.284000   19.054000 H         1 <1>         0.326900 
      5 C          27.495000   21.329000   18.152000 C.ar      1 <1>         0.337900 
      6 N          27.607000   22.111000   17.030000 N.ar      1 <1>        -0.628900 
      7 C          28.663000   21.061000   19.038000 C.3       1 <1>         0.137000 
      8 H          29.591000   21.073000   18.456000 H         1 <1>         0.068500 
      9 H          28.563000   20.078000   19.510000 H         1 <1>         0.036400 
     10 O          28.769000   22.047000   20.070000 O.3       1 <1>        -0.698700 
     11 H          29.564000   21.787000   20.579000 H         1 <1>         0.439300 
     12 C          24.048000   21.376000   17.121000 C.ar      1 <1>         0.476500 
     13 C          23.343000   22.260000   16.291000 C.ar      1 <1>        -0.417000 
     14 H          23.837000   23.061000   15.748000 H         1 <1>         0.221100 
     15 C          21.951000   22.171000   16.178000 C.ar      1 <1>         0.073300 
     16 H          21.424000   22.868000   15.529000 H         1 <1>         0.185000 
     17 C          21.255000   21.208000   16.909000 C.ar      1 <1>        -0.572000 
     18 C          21.940000   20.326000   17.745000 C.ar      1 <1>         0.036000 
     19 H          21.407000   19.566000   18.313000 H         1 <1>         0.192000 
     20 C          23.332000   20.417000   17.858000 C.ar      1 <1>        -0.343100 
     21 H          23.832000   19.699000   18.505000 H         1 <1>         0.209600 
     22 S          19.488000   21.084000   16.747000 S.o2      1 <1>         2.189600 
     23 O          18.960000   22.429000   16.537000 O.2       1 <1>        -0.965500 
     24 O          18.988000   20.311000   17.879000 O.2       1 <1>        -0.965100 
     25 C          19.267000   20.142000   15.261000 C.3       1 <1>        -0.730600 
     26 H          18.195000   20.023000   15.092000 H         1 <1>         0.241900 
     27 H          19.734000   19.163000   15.388000 H         1 <1>         0.194300 
     28 H          19.717000   20.682000   14.427000 H         1 <1>         0.191000 
     29 C          26.182000   22.707000   15.130000 C.ar      1 <1>         0.379700 
     30 C          26.442000   24.067000   14.908000 C.ar      1 <1>        -0.416600 
     31 H          26.793000   24.698000   15.724000 H         1 <1>         0.239200 
     32 C          26.250000   24.631000   13.643000 C.ar      1 <1>         0.303900 
     33 H          26.450000   25.689000   13.492000 H         1 <1>         0.070700 
     34 C          25.811000   23.833000   12.589000 C.ar      1 <1>        -0.669600 
     35 C          25.567000   22.476000   12.788000 C.ar      1 <1>         0.263200 
     36 H          25.232000   21.847000   11.967000 H         1 <1>         0.078200 
     37 C          25.759000   21.913000   14.054000 C.ar      1 <1>        -0.384600 
     38 H          25.577000   20.848000   14.189000 H         1 <1>         0.177400 
     39 Cl         25.575000   24.526000   11.031000 Cl        1 <1>         0.131100 
@<TRIPOS>BOND
     1    1    2 ar   
     2    2    3 ar   
     3    3    4 1    
     4    3    5 ar   
     5    5    6 ar   
     6    6    1 ar   
     7    5    7 1    
     8    7    8 1    
     9    7    9 1    
    10    7   10 1    
    11   10   11 1    
    12    2   12 1    
    13   12   13 ar   
    14   13   14 1    
    15   13   15 ar   
    16   15   16 1    
    17   15   17 ar   
    18   17   18 ar   
    19   18   19 1    
    20   18   20 ar   
    21   20   21 1    
    22   20   12 ar   
    23   17   22 1    
    24   22   23 2    
    25   22   24 2    
    26   22   25 1    
    27   25   26 1    
    28   25   27 1    
    29   25   28 1    
    30    1   29 1    
    31   29   30 ar   
    32   30   31 1    
    33   30   32 ar   
    34   32   33 1    
    35   32   34 ar   
    36   34   35 ar   
    37   35   36 1    
    38   35   37 ar   
    39   37   38 1    
    40   37   29 ar   
    41   34   39 1    
@<TRIPOS>SUBSTRUCTURE
     1 ****        1 TEMP              0 ****  ****    0 ROOT 
@<TRIPOS>SET
UNITY_3DHIT     STATIC     ATOMS    <user>   **** Atoms matching 3D or FLEX Search
0
