#	Name:			3-101
#	Creating user name:	jeff
#	Creation time:		Fri Dec 13 09:47:31 2002

#	Modifying user name:	jeff
#	Modification time:	Fri Dec 13 09:47:33 2002

@<TRIPOS>MOLECULE
3-101
   42    44     1     0     1
SMALL
USER_CHARGES
****
From 3DB ct
@<TRIPOS>ATOM
      1 C          26.408000   22.130000   16.460000 C.ar      1 <1>         0.174900 
      2 N          25.469000   21.461000   17.256000 N.pl3     1 <1>        -0.162700 
      3 C          26.198000   20.886000   18.281000 C.ar      1 <1>        -0.383600 
      4 H          25.742000   20.279000   19.049000 H         1 <1>         0.294000 
      5 C          27.493000   21.336000   18.157000 C.ar      1 <1>         0.300100 
      6 N          27.606000   22.113000   17.032000 N.ar      1 <1>        -0.553900 
      7 C          28.665000   21.068000   19.042000 C.3       1 <1>        -0.262600 
      8 H          29.584000   21.072000   18.448000 H         1 <1>         0.179000 
      9 H          28.559000   20.084000   19.511000 H         1 <1>         0.113400 
     10 S          28.791000   22.344000   20.346000 S.3       1 <1>        -0.115600 
     11 C          30.270000   21.708000   21.176000 C.3       1 <1>        -0.276600 
     12 H          30.517000   22.358000   22.019000 H         1 <1>         0.137100 
     13 H          31.118000   21.697000   20.486000 H         1 <1>         0.101000 
     14 H          30.090000   20.699000   21.555000 H         1 <1>         0.096800 
     15 C          24.047000   21.375000   17.120000 C.ar      1 <1>         0.444400 
     16 C          23.342000   22.259000   16.291000 C.ar      1 <1>        -0.407900 
     17 H          23.835000   23.061000   15.747000 H         1 <1>         0.227800 
     18 C          21.950000   22.171000   16.178000 C.ar      1 <1>         0.060400 
     19 H          21.422000   22.868000   15.529000 H         1 <1>         0.186900 
     20 C          21.254000   21.208000   16.910000 C.ar      1 <1>        -0.557200 
     21 C          21.939000   20.326000   17.745000 C.ar      1 <1>         0.029700 
     22 H          21.408000   19.565000   18.314000 H         1 <1>         0.191600 
     23 C          23.331000   20.416000   17.857000 C.ar      1 <1>        -0.336300 
     24 H          23.832000   19.698000   18.503000 H         1 <1>         0.210400 
     25 S          19.487000   21.084000   16.750000 S.o2      1 <1>         2.190000 
     26 O          18.959000   22.429000   16.544000 O.2       1 <1>        -0.965800 
     27 O          18.989000   20.308000   17.882000 O.2       1 <1>        -0.966100 
     28 C          19.264000   20.144000   15.263000 C.3       1 <1>        -0.727400 
     29 H          18.192000   20.025000   15.095000 H         1 <1>         0.240500 
     30 H          19.732000   19.166000   15.386000 H         1 <1>         0.192700 
     31 H          19.712000   20.687000   14.429000 H         1 <1>         0.190700 
     32 C          26.183000   22.707000   15.130000 C.ar      1 <1>         0.320300 
     33 C          26.443000   24.067000   14.908000 C.ar      1 <1>        -0.397100 
     34 H          26.793000   24.698000   15.725000 H         1 <1>         0.238900 
     35 C          26.254000   24.631000   13.643000 C.ar      1 <1>         0.302900 
     36 H          26.453000   25.690000   13.492000 H         1 <1>         0.069600 
     37 C          25.815000   23.834000   12.588000 C.ar      1 <1>        -0.662500 
     38 C          25.571000   22.476000   12.787000 C.ar      1 <1>         0.253600 
     39 H          25.238000   21.847000   11.965000 H         1 <1>         0.078300 
     40 C          25.762000   21.913000   14.052000 C.ar      1 <1>        -0.346100 
     41 H          25.580000   20.848000   14.187000 H         1 <1>         0.166600 
     42 Cl         25.581000   24.527000   11.031000 Cl        1 <1>         0.129800 
@<TRIPOS>BOND
     1    1    2 ar   
     2    2    3 ar   
     3    3    4 1    
     4    3    5 ar   
     5    5    6 ar   
     6    6    1 ar   
     7    5    7 1    
     8    7    8 1    
     9    7    9 1    
    10    7   10 1    
    11   10   11 1    
    12   11   12 1    
    13   11   13 1    
    14   11   14 1    
    15    2   15 1    
    16   15   16 ar   
    17   16   17 1    
    18   16   18 ar   
    19   18   19 1    
    20   18   20 ar   
    21   20   21 ar   
    22   21   22 1    
    23   21   23 ar   
    24   23   24 1    
    25   23   15 ar   
    26   20   25 1    
    27   25   26 2    
    28   25   27 2    
    29   25   28 1    
    30   28   29 1    
    31   28   30 1    
    32   28   31 1    
    33    1   32 1    
    34   32   33 ar   
    35   33   34 1    
    36   33   35 ar   
    37   35   36 1    
    38   35   37 ar   
    39   37   38 ar   
    40   38   39 1    
    41   38   40 ar   
    42   40   41 1    
    43   40   32 ar   
    44   37   42 1    
@<TRIPOS>SUBSTRUCTURE
     1 ****        1 TEMP              0 ****  ****    0 ROOT 
@<TRIPOS>SET
UNITY_3DHIT     STATIC     ATOMS    <user>   **** Atoms matching 3D or FLEX Search
0
