#	Name:			3-10
#	Creating user name:	jeff
#	Creation time:		Fri Dec 13 09:44:22 2002

#	Modifying user name:	jeff
#	Modification time:	Fri Dec 13 09:44:24 2002

@<TRIPOS>MOLECULE
3-10
   38    40     1     0     1
SMALL
USER_CHARGES
****
From 3DB ct
@<TRIPOS>ATOM
      1 C          26.409000   22.130000   16.460000 C.ar      1 <1>         0.364100 
      2 N          25.470000   21.460000   17.256000 N.pl3     1 <1>        -0.151000 
      3 C          26.198000   20.886000   18.282000 C.ar      1 <1>        -0.226000 
      4 H          25.739000   20.280000   19.051000 H         1 <1>         0.289600 
      5 C          27.501000   21.325000   18.163000 C.ar      1 <1>        -0.240100 
      6 N          27.606000   22.114000   17.031000 N.ar      1 <1>        -0.469000 
      7 C          28.668000   21.044000   19.064000 C.3       1 <1>         1.495500 
      8 F          28.351000   20.209000   20.097000 F         1 <1>        -0.475200 
      9 F          29.170000   22.180000   19.630000 F         1 <1>        -0.437300 
     10 F          29.705000   20.454000   18.400000 F         1 <1>        -0.440600 
     11 C          24.049000   21.375000   17.120000 C.ar      1 <1>         0.356800 
     12 C          23.344000   22.259000   16.290000 C.ar      1 <1>        -0.370800 
     13 H          23.837000   23.059000   15.745000 H         1 <1>         0.226000 
     14 C          21.951000   22.172000   16.177000 C.ar      1 <1>         0.063800 
     15 H          21.425000   22.869000   15.528000 H         1 <1>         0.186600 
     16 C          21.255000   21.209000   16.909000 C.ar      1 <1>        -0.542700 
     17 C          21.940000   20.326000   17.744000 C.ar      1 <1>         0.012700 
     18 H          21.407000   19.566000   18.312000 H         1 <1>         0.194600 
     19 C          23.332000   20.416000   17.856000 C.ar      1 <1>        -0.294800 
     20 H          23.831000   19.697000   18.503000 H         1 <1>         0.205900 
     21 S          19.488000   21.085000   16.748000 S.o2      1 <1>         2.184200 
     22 O          18.960000   22.431000   16.544000 O.2       1 <1>        -0.963300 
     23 O          18.989000   20.308000   17.878000 O.2       1 <1>        -0.960600 
     24 C          19.265000   20.148000   15.260000 C.3       1 <1>        -0.722800 
     25 H          18.193000   20.029000   15.092000 H         1 <1>         0.242100 
     26 H          19.733000   19.169000   15.383000 H         1 <1>         0.193300 
     27 H          19.714000   20.691000   14.427000 H         1 <1>         0.189700 
     28 C          26.182000   22.707000   15.130000 C.ar      1 <1>        -0.021000 
     29 C          26.443000   24.067000   14.908000 C.ar      1 <1>        -0.162300 
     30 H          26.794000   24.698000   15.724000 H         1 <1>         0.191100 
     31 C          26.251000   24.629000   13.644000 C.ar      1 <1>        -0.119800 
     32 H          26.448000   25.688000   13.485000 H         1 <1>         0.149700 
     33 C          25.810000   23.835000   12.587000 C.ar      1 <1>        -0.101100 
     34 H          25.661000   24.273000   11.602000 H         1 <1>         0.149700 
     35 C          25.568000   22.477000   12.790000 C.ar      1 <1>        -0.201100 
     36 H          25.232000   21.855000   11.962000 H         1 <1>         0.163900 
     37 C          25.759000   21.913000   14.054000 C.ar      1 <1>        -0.084900 
     38 H          25.577000   20.848000   14.188000 H         1 <1>         0.125400 
@<TRIPOS>BOND
     1    1    2 ar   
     2    2    3 ar   
     3    3    4 1    
     4    3    5 ar   
     5    5    6 ar   
     6    6    1 ar   
     7    5    7 1    
     8    7    8 1    
     9    7    9 1    
    10    7   10 1    
    11    2   11 1    
    12   11   12 ar   
    13   12   13 1    
    14   12   14 ar   
    15   14   15 1    
    16   14   16 ar   
    17   16   17 ar   
    18   17   18 1    
    19   17   19 ar   
    20   19   20 1    
    21   19   11 ar   
    22   16   21 1    
    23   21   22 2    
    24   21   23 2    
    25   21   24 1    
    26   24   25 1    
    27   24   26 1    
    28   24   27 1    
    29    1   28 1    
    30   28   29 ar   
    31   29   30 1    
    32   29   31 ar   
    33   31   32 1    
    34   31   33 ar   
    35   33   34 1    
    36   33   35 ar   
    37   35   36 1    
    38   35   37 ar   
    39   37   38 1    
    40   37   28 ar   
@<TRIPOS>SUBSTRUCTURE
     1 ****        1 TEMP              0 ****  ****    0 ROOT 
@<TRIPOS>SET
UNITY_3DHIT     STATIC     ATOMS    <user>   **** Atoms matching 3D or FLEX Search
0
