#	Name:			3-103
#	Creating user name:	jeff
#	Creation time:		Fri Dec 13 09:47:33 2002

#	Modifying user name:	jeff
#	Modification time:	Fri Dec 13 09:47:35 2002

@<TRIPOS>MOLECULE
3-103
   39    41     1     0     1
SMALL
USER_CHARGES
****
From 3DB ct
@<TRIPOS>ATOM
      1 C          26.409000   22.129000   16.460000 C.ar      1 <1>         0.146000 
      2 N          25.470000   21.462000   17.258000 N.pl3     1 <1>        -0.120400 
      3 C          26.201000   20.889000   18.283000 C.ar      1 <1>        -0.502600 
      4 H          25.744000   20.280000   19.051000 H         1 <1>         0.326800 
      5 C          27.498000   21.331000   18.153000 C.ar      1 <1>         0.355100 
      6 N          27.608000   22.108000   17.027000 N.ar      1 <1>        -0.556400 
      7 C          28.678000   21.047000   19.022000 C.3       1 <1>        -0.126800 
      8 H          29.592000   21.079000   18.419000 H         1 <1>         0.153800 
      9 H          28.600000   20.034000   19.433000 H         1 <1>         0.103700 
     10 C          28.764000   22.029000   20.115000 C.1       1 <1>         0.149000 
     11 N          28.846000   22.795000   20.989000 N.1       1 <1>        -0.314100 
     12 C          24.048000   21.377000   17.123000 C.ar      1 <1>         0.438800 
     13 C          23.343000   22.261000   16.294000 C.ar      1 <1>        -0.425600 
     14 H          23.835000   23.063000   15.751000 H         1 <1>         0.232700 
     15 C          21.951000   22.171000   16.179000 C.ar      1 <1>         0.075100 
     16 H          21.423000   22.866000   15.528000 H         1 <1>         0.185200 
     17 C          21.255000   21.206000   16.909000 C.ar      1 <1>        -0.553600 
     18 C          21.940000   20.326000   17.746000 C.ar      1 <1>         0.023700 
     19 H          21.408000   19.565000   18.314000 H         1 <1>         0.193300 
     20 C          23.332000   20.417000   17.860000 C.ar      1 <1>        -0.329600 
     21 H          23.832000   19.700000   18.507000 H         1 <1>         0.210500 
     22 S          19.489000   21.084000   16.742000 S.o2      1 <1>         2.183100 
     23 O          18.962000   22.427000   16.514000 O.2       1 <1>        -0.961600 
     24 O          18.985000   20.326000   17.883000 O.2       1 <1>        -0.961300 
     25 C          19.270000   20.126000   15.267000 C.3       1 <1>        -0.734300 
     26 H          18.198000   20.012000   15.093000 H         1 <1>         0.244900 
     27 H          19.730000   19.146000   15.406000 H         1 <1>         0.195600 
     28 H          19.727000   20.655000   14.428000 H         1 <1>         0.192300 
     29 C          26.181000   22.707000   15.130000 C.ar      1 <1>         0.343400 
     30 C          26.442000   24.067000   14.909000 C.ar      1 <1>        -0.410900 
     31 H          26.793000   24.697000   15.725000 H         1 <1>         0.241800 
     32 C          26.250000   24.631000   13.644000 C.ar      1 <1>         0.310100 
     33 H          26.449000   25.690000   13.493000 H         1 <1>         0.070400 
     34 C          25.809000   23.834000   12.590000 C.ar      1 <1>        -0.665300 
     35 C          25.566000   22.477000   12.789000 C.ar      1 <1>         0.254400 
     36 H          25.230000   21.848000   11.967000 H         1 <1>         0.079400 
     37 C          25.758000   21.913000   14.054000 C.ar      1 <1>        -0.353700 
     38 H          25.576000   20.848000   14.188000 H         1 <1>         0.172000 
     39 Cl         25.574000   24.528000   11.033000 Cl        1 <1>         0.135000 
@<TRIPOS>BOND
     1    1    2 ar   
     2    2    3 ar   
     3    3    4 1    
     4    3    5 ar   
     5    5    6 ar   
     6    6    1 ar   
     7    5    7 1    
     8    7    8 1    
     9    7    9 1    
    10    7   10 1    
    11   10   11 3    
    12    2   12 1    
    13   12   13 ar   
    14   13   14 1    
    15   13   15 ar   
    16   15   16 1    
    17   15   17 ar   
    18   17   18 ar   
    19   18   19 1    
    20   18   20 ar   
    21   20   21 1    
    22   20   12 ar   
    23   17   22 1    
    24   22   23 2    
    25   22   24 2    
    26   22   25 1    
    27   25   26 1    
    28   25   27 1    
    29   25   28 1    
    30    1   29 1    
    31   29   30 ar   
    32   30   31 1    
    33   30   32 ar   
    34   32   33 1    
    35   32   34 ar   
    36   34   35 ar   
    37   35   36 1    
    38   35   37 ar   
    39   37   38 1    
    40   37   29 ar   
    41   34   39 1    
@<TRIPOS>SUBSTRUCTURE
     1 ****        1 TEMP              0 ****  ****    0 ROOT 
@<TRIPOS>SET
UNITY_3DHIT     STATIC     ATOMS    <user>   **** Atoms matching 3D or FLEX Search
0
