#	Name:			3-12
#	Creating user name:	jeff
#	Creation time:		Fri Dec 13 09:44:26 2002

#	Modifying user name:	jeff
#	Modification time:	Fri Dec 13 09:44:29 2002

@<TRIPOS>MOLECULE
3-12
   42    44     1     0     1
SMALL
USER_CHARGES
****
From 3DB ct
@<TRIPOS>ATOM
      1 C          26.407000   22.132000   16.462000 C.ar      1 <1>         0.479400 
      2 N          25.471000   21.460000   17.257000 N.pl3     1 <1>        -0.222400 
      3 C          26.200000   20.880000   18.279000 C.ar      1 <1>        -0.196400 
      4 H          25.743000   20.269000   19.045000 H         1 <1>         0.287700 
      5 C          27.503000   21.320000   18.159000 C.ar      1 <1>        -0.285800 
      6 N          27.606000   22.115000   17.031000 N.ar      1 <1>        -0.466900 
      7 C          28.672000   21.034000   19.056000 C.3       1 <1>         1.526200 
      8 F          28.352000   20.211000   20.097000 F         1 <1>        -0.480700 
      9 F          29.188000   22.169000   19.610000 F         1 <1>        -0.442500 
     10 F          29.698000   20.428000   18.392000 F         1 <1>        -0.447500 
     11 C          24.049000   21.375000   17.122000 C.ar      1 <1>         0.386600 
     12 C          23.345000   22.260000   16.292000 C.ar      1 <1>        -0.358600 
     13 H          23.839000   23.061000   15.749000 H         1 <1>         0.223600 
     14 C          21.953000   22.172000   16.178000 C.ar      1 <1>         0.048800 
     15 H          21.426000   22.869000   15.529000 H         1 <1>         0.189200 
     16 C          21.256000   21.209000   16.909000 C.ar      1 <1>        -0.543500 
     17 C          21.940000   20.327000   17.746000 C.ar      1 <1>         0.014500 
     18 H          21.407000   19.567000   18.314000 H         1 <1>         0.196600 
     19 C          23.332000   20.417000   17.859000 C.ar      1 <1>        -0.304500 
     20 H          23.831000   19.699000   18.506000 H         1 <1>         0.207800 
     21 S          19.489000   21.087000   16.744000 S.o2      1 <1>         2.190400 
     22 O          18.963000   22.431000   16.527000 O.2       1 <1>        -0.965100 
     23 O          18.987000   20.319000   17.880000 O.2       1 <1>        -0.962800 
     24 C          19.269000   20.138000   15.263000 C.3       1 <1>        -0.727000 
     25 H          18.197000   20.022000   15.091000 H         1 <1>         0.242200 
     26 H          19.732000   19.158000   15.395000 H         1 <1>         0.193700 
     27 H          19.723000   20.673000   14.427000 H         1 <1>         0.193200 
     28 C          26.180000   22.710000   15.133000 C.ar      1 <1>        -0.249700 
     29 C          26.438000   24.067000   14.908000 C.ar      1 <1>        -0.081200 
     30 H          26.787000   24.701000   15.721000 H         1 <1>         0.198400 
     31 C          26.248000   24.623000   13.640000 C.ar      1 <1>        -0.321800 
     32 H          26.447000   25.683000   13.488000 H         1 <1>         0.172500 
     33 C          25.810000   23.834000   12.573000 C.ar      1 <1>         0.537400 
     34 C          25.570000   22.477000   12.785000 C.ar      1 <1>        -0.494900 
     35 H          25.239000   21.819000   11.987000 H         1 <1>         0.227500 
     36 C          25.761000   21.917000   14.055000 C.ar      1 <1>         0.105300 
     37 H          25.580000   20.852000   14.190000 H         1 <1>         0.113300 
     38 O          25.664000   24.500000   11.388000 O.3       1 <1>        -0.456200 
     39 C          25.980000   25.892000   11.391000 C.3       1 <1>         0.132200 
     40 H          25.822000   26.271000   10.377000 H         1 <1>         0.079700 
     41 H          27.032000   26.056000   11.649000 H         1 <1>         0.033700 
     42 H          25.315000   26.444000   12.062000 H         1 <1>         0.027300 
@<TRIPOS>BOND
     1    1    2 ar   
     2    2    3 ar   
     3    3    4 1    
     4    3    5 ar   
     5    5    6 ar   
     6    6    1 ar   
     7    5    7 1    
     8    7    8 1    
     9    7    9 1    
    10    7   10 1    
    11    2   11 1    
    12   11   12 ar   
    13   12   13 1    
    14   12   14 ar   
    15   14   15 1    
    16   14   16 ar   
    17   16   17 ar   
    18   17   18 1    
    19   17   19 ar   
    20   19   20 1    
    21   19   11 ar   
    22   16   21 1    
    23   21   22 2    
    24   21   23 2    
    25   21   24 1    
    26   24   25 1    
    27   24   26 1    
    28   24   27 1    
    29    1   28 1    
    30   28   29 ar   
    31   29   30 1    
    32   29   31 ar   
    33   31   32 1    
    34   31   33 ar   
    35   33   34 ar   
    36   34   35 1    
    37   34   36 ar   
    38   36   37 1    
    39   36   28 ar   
    40   33   38 1    
    41   38   39 1    
    42   39   40 1    
    43   39   41 1    
    44   39   42 1    
@<TRIPOS>SUBSTRUCTURE
     1 ****        1 TEMP              0 ****  ****    0 ROOT 
@<TRIPOS>SET
UNITY_3DHIT     STATIC     ATOMS    <user>   **** Atoms matching 3D or FLEX Search
0
