#	Name:			3-13
#	Creating user name:	jeff
#	Creation time:		Fri Dec 13 09:44:29 2002

#	Modifying user name:	jeff
#	Modification time:	Fri Dec 13 09:44:31 2002

@<TRIPOS>MOLECULE
3-13
   43    45     1     0     1
SMALL
USER_CHARGES
****
From 3DB ct
@<TRIPOS>ATOM
      1 C          26.407000   22.130000   16.461000 C.ar      1 <1>         0.454000 
      2 N          25.469000   21.459000   17.255000 N.pl3     1 <1>        -0.203500 
      3 C          26.197000   20.883000   18.281000 C.ar      1 <1>        -0.221200 
      4 H          25.738000   20.275000   19.049000 H         1 <1>         0.290300 
      5 C          27.499000   21.324000   18.163000 C.ar      1 <1>        -0.275500 
      6 N          27.604000   22.115000   17.033000 N.ar      1 <1>        -0.472000 
      7 C          28.666000   21.043000   19.065000 C.3       1 <1>         1.531000 
      8 F          29.177000   22.180000   19.620000 F         1 <1>        -0.444400 
      9 F          29.697000   20.439000   18.405000 F         1 <1>        -0.449700 
     10 F          28.345000   20.220000   20.106000 F         1 <1>        -0.483400 
     11 C          24.048000   21.373000   17.119000 C.ar      1 <1>         0.397600 
     12 C          23.343000   22.257000   16.290000 C.ar      1 <1>        -0.370000 
     13 H          23.837000   23.058000   15.745000 H         1 <1>         0.230200 
     14 C          21.950000   22.171000   16.178000 C.ar      1 <1>         0.054100 
     15 H          21.424000   22.869000   15.530000 H         1 <1>         0.186800 
     16 C          21.254000   21.208000   16.910000 C.ar      1 <1>        -0.546000 
     17 C          21.939000   20.325000   17.745000 C.ar      1 <1>         0.017100 
     18 H          21.406000   19.565000   18.313000 H         1 <1>         0.194400 
     19 C          23.331000   20.414000   17.856000 C.ar      1 <1>        -0.316600 
     20 H          23.831000   19.695000   18.502000 H         1 <1>         0.209300 
     21 S          19.487000   21.086000   16.752000 S.o2      1 <1>         2.190700 
     22 O          18.959000   22.432000   16.554000 O.2       1 <1>        -0.966200 
     23 O          18.989000   20.304000   17.880000 O.2       1 <1>        -0.964100 
     24 C          19.262000   20.154000   15.261000 C.3       1 <1>        -0.723800 
     25 H          18.189000   20.036000   15.094000 H         1 <1>         0.240000 
     26 H          19.729000   19.175000   15.379000 H         1 <1>         0.192500 
     27 H          19.709000   20.701000   14.428000 H         1 <1>         0.189600 
     28 C          26.183000   22.709000   15.132000 C.ar      1 <1>        -0.211500 
     29 C          26.442000   24.064000   14.908000 C.ar      1 <1>        -0.119700 
     30 H          26.790000   24.699000   15.721000 H         1 <1>         0.201700 
     31 C          26.252000   24.624000   13.637000 C.ar      1 <1>        -0.263200 
     32 H          26.457000   25.686000   13.503000 H         1 <1>         0.159800 
     33 C          25.814000   23.851000   12.555000 C.ar      1 <1>         0.490900 
     34 C          25.579000   22.492000   12.784000 C.ar      1 <1>        -0.530800 
     35 H          25.247000   21.839000   11.979000 H         1 <1>         0.197600 
     36 C          25.766000   21.923000   14.052000 C.ar      1 <1>         0.093700 
     37 H          25.583000   20.857000   14.180000 H         1 <1>         0.111400 
     38 N          25.645000   24.454000   11.326000 N.pl3     1 <1>        -0.760800 
     39 H          25.346000   23.884000   10.533000 H         1 <1>         0.447500 
     40 C          25.882000   25.859000   11.065000 C.3       1 <1>         0.058700 
     41 H          25.676000   26.074000   10.011000 H         1 <1>         0.071800 
     42 H          26.925000   26.126000   11.262000 H         1 <1>         0.058800 
     43 H          25.223000   26.489000   11.670000 H         1 <1>         0.052900 
@<TRIPOS>BOND
     1    1    2 ar   
     2    2    3 ar   
     3    3    4 1    
     4    3    5 ar   
     5    5    6 ar   
     6    6    1 ar   
     7    5    7 1    
     8    7    8 1    
     9    7    9 1    
    10    7   10 1    
    11    2   11 1    
    12   11   12 ar   
    13   12   13 1    
    14   12   14 ar   
    15   14   15 1    
    16   14   16 ar   
    17   16   17 ar   
    18   17   18 1    
    19   17   19 ar   
    20   19   20 1    
    21   19   11 ar   
    22   16   21 1    
    23   21   22 2    
    24   21   23 2    
    25   21   24 1    
    26   24   25 1    
    27   24   26 1    
    28   24   27 1    
    29    1   28 1    
    30   28   29 ar   
    31   29   30 1    
    32   29   31 ar   
    33   31   32 1    
    34   31   33 ar   
    35   33   34 ar   
    36   34   35 1    
    37   34   36 ar   
    38   36   37 1    
    39   36   28 ar   
    40   33   38 1    
    41   38   39 1    
    42   38   40 1    
    43   40   41 1    
    44   40   42 1    
    45   40   43 1    
@<TRIPOS>SUBSTRUCTURE
     1 ****        1 TEMP              0 ****  ****    0 ROOT 
@<TRIPOS>SET
UNITY_3DHIT     STATIC     ATOMS    <user>   **** Atoms matching 3D or FLEX Search
0
