#	Name:			3-14
#	Creating user name:	jeff
#	Creation time:		Fri Dec 13 09:44:31 2002

#	Modifying user name:	jeff
#	Modification time:	Fri Dec 13 09:44:34 2002

@<TRIPOS>MOLECULE
3-14
   46    48     1     0     1
SMALL
USER_CHARGES
****
From 3DB ct
@<TRIPOS>ATOM
      1 C          26.407000   22.130000   16.462000 C.ar      1 <1>         0.420200 
      2 N          25.469000   21.458000   17.256000 N.pl3     1 <1>        -0.189300 
      3 C          26.197000   20.881000   18.281000 C.ar      1 <1>        -0.230000 
      4 H          25.738000   20.273000   19.048000 H         1 <1>         0.290900 
      5 C          27.500000   21.320000   18.162000 C.ar      1 <1>        -0.256100 
      6 N          27.605000   22.114000   17.033000 N.ar      1 <1>        -0.481700 
      7 C          28.667000   21.035000   19.061000 C.3       1 <1>         1.524200 
      8 F          28.360000   20.167000   20.070000 F         1 <1>        -0.483100 
      9 F          29.145000   22.165000   19.662000 F         1 <1>        -0.443700 
     10 F          29.718000   20.483000   18.389000 F         1 <1>        -0.448200 
     11 C          24.048000   21.373000   17.120000 C.ar      1 <1>         0.391800 
     12 C          23.343000   22.258000   16.291000 C.ar      1 <1>        -0.372000 
     13 H          23.837000   23.058000   15.746000 H         1 <1>         0.226700 
     14 C          21.951000   22.171000   16.179000 C.ar      1 <1>         0.057000 
     15 H          21.424000   22.868000   15.530000 H         1 <1>         0.185800 
     16 C          21.254000   21.208000   16.910000 C.ar      1 <1>        -0.550000 
     17 C          21.939000   20.325000   17.745000 C.ar      1 <1>         0.018700 
     18 H          21.406000   19.565000   18.313000 H         1 <1>         0.195300 
     19 C          23.331000   20.415000   17.857000 C.ar      1 <1>        -0.311500 
     20 H          23.830000   19.696000   18.504000 H         1 <1>         0.208500 
     21 S          19.487000   21.085000   16.750000 S.o2      1 <1>         2.194100 
     22 O          18.959000   22.432000   16.550000 O.2       1 <1>        -0.967000 
     23 O          18.989000   20.305000   17.879000 O.2       1 <1>        -0.964000 
     24 C          19.264000   20.152000   15.260000 C.3       1 <1>        -0.729800 
     25 H          18.191000   20.035000   15.091000 H         1 <1>         0.241200 
     26 H          19.730000   19.172000   15.380000 H         1 <1>         0.193600 
     27 H          19.713000   20.697000   14.428000 H         1 <1>         0.192100 
     28 C          26.182000   22.709000   15.133000 C.ar      1 <1>        -0.107700 
     29 C          26.440000   24.061000   14.906000 C.ar      1 <1>        -0.127900 
     30 H          26.788000   24.698000   15.718000 H         1 <1>         0.199000 
     31 C          26.250000   24.623000   13.633000 C.ar      1 <1>        -0.273800 
     32 H          26.463000   25.686000   13.532000 H         1 <1>         0.160600 
     33 C          25.812000   23.863000   12.534000 C.ar      1 <1>         0.338100 
     34 C          25.581000   22.500000   12.785000 C.ar      1 <1>        -0.368900 
     35 H          25.249000   21.831000   11.993000 H         1 <1>         0.175100 
     36 C          25.767000   21.927000   14.054000 C.ar      1 <1>        -0.033900 
     37 H          25.584000   20.861000   14.179000 H         1 <1>         0.130700 
     38 N          25.625000   24.424000   11.277000 N.pl3     1 <1>        -0.398600 
     39 C          25.161000   23.619000   10.146000 C.3       1 <1>         0.017900 
     40 H          25.065000   24.215000    9.232000 H         1 <1>         0.082100 
     41 H          24.174000   23.192000   10.353000 H         1 <1>         0.040500 
     42 H          25.869000   22.812000    9.928000 H         1 <1>         0.053300 
     43 C          25.870000   25.848000   11.034000 C.3       1 <1>         0.037400 
     44 H          25.676000   26.124000    9.992000 H         1 <1>         0.075900 
     45 H          26.915000   26.102000   11.242000 H         1 <1>         0.045700 
     46 H          25.213000   26.465000   11.656000 H         1 <1>         0.041000 
@<TRIPOS>BOND
     1    1    2 ar   
     2    2    3 ar   
     3    3    4 1    
     4    3    5 ar   
     5    5    6 ar   
     6    6    1 ar   
     7    5    7 1    
     8    7    8 1    
     9    7    9 1    
    10    7   10 1    
    11    2   11 1    
    12   11   12 ar   
    13   12   13 1    
    14   12   14 ar   
    15   14   15 1    
    16   14   16 ar   
    17   16   17 ar   
    18   17   18 1    
    19   17   19 ar   
    20   19   20 1    
    21   19   11 ar   
    22   16   21 1    
    23   21   22 2    
    24   21   23 2    
    25   21   24 1    
    26   24   25 1    
    27   24   26 1    
    28   24   27 1    
    29    1   28 1    
    30   28   29 ar   
    31   29   30 1    
    32   29   31 ar   
    33   31   32 1    
    34   31   33 ar   
    35   33   34 ar   
    36   34   35 1    
    37   34   36 ar   
    38   36   37 1    
    39   36   28 ar   
    40   33   38 1    
    41   38   39 1    
    42   39   40 1    
    43   39   41 1    
    44   39   42 1    
    45   38   43 1    
    46   43   44 1    
    47   43   45 1    
    48   43   46 1    
@<TRIPOS>SUBSTRUCTURE
     1 ****        1 TEMP              0 ****  ****    0 ROOT 
@<TRIPOS>SET
UNITY_3DHIT     STATIC     ATOMS    <user>   **** Atoms matching 3D or FLEX Search
0
