#	Name:			3-15
#	Creating user name:	jeff
#	Creation time:		Fri Dec 13 09:44:34 2002

#	Modifying user name:	jeff
#	Modification time:	Fri Dec 13 09:44:36 2002

@<TRIPOS>MOLECULE
3-15
   42    44     1     0     1
SMALL
USER_CHARGES
****
From 3DB ct
@<TRIPOS>ATOM
      1 C          26.408000   22.129000   16.460000 C.ar      1 <1>         0.378300 
      2 N          25.470000   21.459000   17.256000 N.pl3     1 <1>        -0.180500 
      3 C          26.198000   20.885000   18.283000 C.ar      1 <1>        -0.208000 
      4 H          25.740000   20.279000   19.051000 H         1 <1>         0.289800 
      5 C          27.501000   21.325000   18.163000 C.ar      1 <1>        -0.266900 
      6 N          27.606000   22.114000   17.032000 N.ar      1 <1>        -0.461400 
      7 C          28.668000   21.045000   19.064000 C.3       1 <1>         1.520700 
      8 F          28.344000   20.235000   20.114000 F         1 <1>        -0.479700 
      9 F          29.188000   22.185000   19.608000 F         1 <1>        -0.441100 
     10 F          29.693000   20.429000   18.408000 F         1 <1>        -0.447500 
     11 C          24.049000   21.374000   17.121000 C.ar      1 <1>         0.362700 
     12 C          23.345000   22.259000   16.291000 C.ar      1 <1>        -0.354100 
     13 H          23.838000   23.060000   15.747000 H         1 <1>         0.222000 
     14 C          21.952000   22.172000   16.177000 C.ar      1 <1>         0.048700 
     15 H          21.426000   22.869000   15.529000 H         1 <1>         0.188700 
     16 C          21.255000   21.209000   16.909000 C.ar      1 <1>        -0.537800 
     17 C          21.940000   20.326000   17.744000 C.ar      1 <1>         0.010400 
     18 H          21.407000   19.566000   18.312000 H         1 <1>         0.196500 
     19 C          23.332000   20.416000   17.857000 C.ar      1 <1>        -0.296500 
     20 H          23.831000   19.697000   18.504000 H         1 <1>         0.207000 
     21 S          19.489000   21.086000   16.747000 S.o2      1 <1>         2.189700 
     22 O          18.961000   22.431000   16.543000 O.2       1 <1>        -0.964700 
     23 O          18.989000   20.308000   17.877000 O.2       1 <1>        -0.963200 
     24 C          19.266000   20.148000   15.259000 C.3       1 <1>        -0.717700 
     25 H          18.194000   20.029000   15.091000 H         1 <1>         0.240200 
     26 H          19.735000   19.170000   15.381000 H         1 <1>         0.191200 
     27 H          19.714000   20.693000   14.426000 H         1 <1>         0.189800 
     28 C          26.183000   22.706000   15.130000 C.ar      1 <1>         0.069800 
     29 C          26.440000   24.064000   14.908000 C.ar      1 <1>        -0.353400 
     30 H          26.784000   24.697000   15.725000 H         1 <1>         0.232000 
     31 C          26.250000   24.630000   13.642000 C.ar      1 <1>         0.071300 
     32 H          26.434000   25.694000   13.515000 H         1 <1>         0.125100 
     33 C          25.820000   23.840000   12.572000 C.ar      1 <1>        -0.110600 
     34 C          25.568000   22.482000   12.789000 C.ar      1 <1>        -0.191100 
     35 H          25.229000   21.843000   11.975000 H         1 <1>         0.203100 
     36 C          25.759000   21.916000   14.054000 C.ar      1 <1>        -0.127400 
     37 H          25.573000   20.851000   14.187000 H         1 <1>         0.135900 
     38 S          25.538000   24.515000   10.943000 S.3       1 <1>        -0.051000 
     39 C          26.006000   26.249000   11.217000 C.3       1 <1>        -0.223700 
     40 H          26.027000   26.766000   10.253000 H         1 <1>         0.144900 
     41 H          27.001000   26.313000   11.666000 H         1 <1>         0.081400 
     42 H          25.279000   26.753000   11.858000 H         1 <1>         0.077200 
@<TRIPOS>BOND
     1    1    2 ar   
     2    2    3 ar   
     3    3    4 1    
     4    3    5 ar   
     5    5    6 ar   
     6    6    1 ar   
     7    5    7 1    
     8    7    8 1    
     9    7    9 1    
    10    7   10 1    
    11    2   11 1    
    12   11   12 ar   
    13   12   13 1    
    14   12   14 ar   
    15   14   15 1    
    16   14   16 ar   
    17   16   17 ar   
    18   17   18 1    
    19   17   19 ar   
    20   19   20 1    
    21   19   11 ar   
    22   16   21 1    
    23   21   22 2    
    24   21   23 2    
    25   21   24 1    
    26   24   25 1    
    27   24   26 1    
    28   24   27 1    
    29    1   28 1    
    30   28   29 ar   
    31   29   30 1    
    32   29   31 ar   
    33   31   32 1    
    34   31   33 ar   
    35   33   34 ar   
    36   34   35 1    
    37   34   36 ar   
    38   36   37 1    
    39   36   28 ar   
    40   33   38 1    
    41   38   39 1    
    42   39   40 1    
    43   39   41 1    
    44   39   42 1    
@<TRIPOS>SUBSTRUCTURE
     1 ****        1 TEMP              0 ****  ****    0 ROOT 
@<TRIPOS>SET
UNITY_3DHIT     STATIC     ATOMS    <user>   **** Atoms matching 3D or FLEX Search
0
