#	Name:			3-16
#	Creating user name:	jeff
#	Creation time:		Fri Dec 13 09:44:36 2002

#	Modifying user name:	jeff
#	Modification time:	Fri Dec 13 09:44:38 2002

@<TRIPOS>MOLECULE
3-16
   43    45     1     0     1
SMALL
USER_CHARGES
****
From 3DB ct
@<TRIPOS>ATOM
      1 C          26.408000   22.130000   16.460000 C.ar      1 <1>         0.389600 
      2 N          25.470000   21.459000   17.256000 N.pl3     1 <1>        -0.182700 
      3 C          26.199000   20.885000   18.282000 C.ar      1 <1>        -0.197200 
      4 H          25.741000   20.277000   19.049000 H         1 <1>         0.288700 
      5 C          27.501000   21.326000   18.163000 C.ar      1 <1>        -0.254800 
      6 N          27.605000   22.116000   17.032000 N.ar      1 <1>        -0.474800 
      7 C          28.668000   21.046000   19.064000 C.3       1 <1>         1.510700 
      8 F          28.353000   20.211000   20.096000 F         1 <1>        -0.477800 
      9 F          29.168000   22.183000   19.631000 F         1 <1>        -0.439900 
     10 F          29.706000   20.458000   18.400000 F         1 <1>        -0.443300 
     11 C          24.049000   21.374000   17.120000 C.ar      1 <1>         0.350200 
     12 C          23.344000   22.258000   16.291000 C.ar      1 <1>        -0.344600 
     13 H          23.838000   23.060000   15.747000 H         1 <1>         0.203000 
     14 C          21.952000   22.171000   16.178000 C.ar      1 <1>         0.053400 
     15 H          21.425000   22.869000   15.529000 H         1 <1>         0.193400 
     16 C          21.255000   21.208000   16.909000 C.ar      1 <1>        -0.537600 
     17 C          21.940000   20.325000   17.744000 C.ar      1 <1>         0.010300 
     18 H          21.407000   19.565000   18.312000 H         1 <1>         0.197100 
     19 C          23.332000   20.415000   17.856000 C.ar      1 <1>        -0.286000 
     20 H          23.831000   19.696000   18.503000 H         1 <1>         0.205400 
     21 S          19.488000   21.087000   16.749000 S.o2      1 <1>         2.183200 
     22 O          18.961000   22.433000   16.544000 O.2       1 <1>        -0.962600 
     23 O          18.989000   20.311000   17.880000 O.2       1 <1>        -0.960800 
     24 C          19.264000   20.148000   15.261000 C.3       1 <1>        -0.719700 
     25 H          18.192000   20.030000   15.093000 H         1 <1>         0.243100 
     26 H          19.731000   19.169000   15.384000 H         1 <1>         0.193600 
     27 H          19.714000   20.691000   14.427000 H         1 <1>         0.192000 
     28 C          26.182000   22.707000   15.130000 C.ar      1 <1>         0.066100 
     29 C          26.441000   24.066000   14.908000 C.ar      1 <1>        -0.172300 
     30 H          26.788000   24.698000   15.725000 H         1 <1>         0.190000 
     31 C          26.251000   24.629000   13.642000 C.ar      1 <1>        -0.065200 
     32 H          26.448000   25.691000   13.502000 H         1 <1>         0.148600 
     33 C          25.817000   23.837000   12.574000 C.ar      1 <1>        -0.401500 
     34 C          25.571000   22.478000   12.787000 C.ar      1 <1>         0.131100 
     35 H          25.236000   21.841000   11.971000 H         1 <1>         0.143100 
     36 C          25.761000   21.914000   14.054000 C.ar      1 <1>        -0.288600 
     37 H          25.577000   20.849000   14.187000 H         1 <1>         0.173600 
     38 S          25.574000   24.597000   10.950000 S.o       1 <1>         1.041300 
     39 O          24.904000   23.558000   10.091000 O.2       1 <1>        -0.849500 
     40 C          27.321000   24.668000   10.474000 C.3       1 <1>        -0.483500 
     41 H          27.384000   25.035000    9.447000 H         1 <1>         0.170100 
     42 H          27.766000   23.672000   10.529000 H         1 <1>         0.150500 
     43 H          27.855000   25.356000   11.134000 H         1 <1>         0.114500 
@<TRIPOS>BOND
     1    1    2 ar   
     2    2    3 ar   
     3    3    4 1    
     4    3    5 ar   
     5    5    6 ar   
     6    6    1 ar   
     7    5    7 1    
     8    7    8 1    
     9    7    9 1    
    10    7   10 1    
    11    2   11 1    
    12   11   12 ar   
    13   12   13 1    
    14   12   14 ar   
    15   14   15 1    
    16   14   16 ar   
    17   16   17 ar   
    18   17   18 1    
    19   17   19 ar   
    20   19   20 1    
    21   19   11 ar   
    22   16   21 1    
    23   21   22 2    
    24   21   23 2    
    25   21   24 1    
    26   24   25 1    
    27   24   26 1    
    28   24   27 1    
    29    1   28 1    
    30   28   29 ar   
    31   29   30 1    
    32   29   31 ar   
    33   31   32 1    
    34   31   33 ar   
    35   33   34 ar   
    36   34   35 1    
    37   34   36 ar   
    38   36   37 1    
    39   36   28 ar   
    40   33   38 1    
    41   38   39 2    
    42   38   40 1    
    43   40   41 1    
    44   40   42 1    
    45   40   43 1    
@<TRIPOS>SUBSTRUCTURE
     1 ****        1 TEMP              0 ****  ****    0 ROOT 
@<TRIPOS>SET
UNITY_3DHIT     STATIC     ATOMS    <user>   **** Atoms matching 3D or FLEX Search
0
