#	Name:			3-17
#	Creating user name:	jeff
#	Creation time:		Fri Dec 13 09:44:38 2002

#	Modifying user name:	jeff
#	Modification time:	Fri Dec 13 09:44:41 2002

@<TRIPOS>MOLECULE
3-17
   44    46     1     0     1
SMALL
USER_CHARGES
****
From 3DB ct
@<TRIPOS>ATOM
      1 C          26.407000   22.130000   16.460000 C.ar      1 <1>         0.323800 
      2 N          25.470000   21.460000   17.256000 N.pl3     1 <1>        -0.154100 
      3 C          26.198000   20.886000   18.282000 C.ar      1 <1>        -0.208300 
      4 H          25.739000   20.279000   19.051000 H         1 <1>         0.296200 
      5 C          27.500000   21.325000   18.162000 C.ar      1 <1>        -0.246700 
      6 N          27.605000   22.115000   17.031000 N.ar      1 <1>        -0.457100 
      7 C          28.667000   21.045000   19.063000 C.3       1 <1>         1.508400 
      8 F          28.351000   20.210000   20.096000 F         1 <1>        -0.475600 
      9 F          29.168000   22.181000   19.630000 F         1 <1>        -0.438000 
     10 F          29.705000   20.456000   18.400000 F         1 <1>        -0.443400 
     11 C          24.048000   21.375000   17.121000 C.ar      1 <1>         0.347900 
     12 C          23.344000   22.259000   16.291000 C.ar      1 <1>        -0.363600 
     13 H          23.837000   23.061000   15.748000 H         1 <1>         0.224800 
     14 C          21.952000   22.171000   16.178000 C.ar      1 <1>         0.055100 
     15 H          21.425000   22.868000   15.529000 H         1 <1>         0.192200 
     16 C          21.256000   21.208000   16.910000 C.ar      1 <1>        -0.536200 
     17 C          21.940000   20.326000   17.745000 C.ar      1 <1>         0.017500 
     18 H          21.407000   19.566000   18.313000 H         1 <1>         0.198500 
     19 C          23.332000   20.415000   17.857000 C.ar      1 <1>        -0.294900 
     20 H          23.832000   19.697000   18.504000 H         1 <1>         0.206200 
     21 S          19.489000   21.085000   16.748000 S.o2      1 <1>         2.184200 
     22 O          18.961000   22.430000   16.541000 O.2       1 <1>        -0.958200 
     23 O          18.989000   20.310000   17.879000 O.2       1 <1>        -0.959200 
     24 C          19.267000   20.145000   15.261000 C.3       1 <1>        -0.729500 
     25 H          18.195000   20.027000   15.092000 H         1 <1>         0.245900 
     26 H          19.734000   19.166000   15.386000 H         1 <1>         0.194800 
     27 H          19.718000   20.687000   14.427000 H         1 <1>         0.198000 
     28 C          26.181000   22.707000   15.129000 C.ar      1 <1>         0.120100 
     29 C          26.442000   24.067000   14.908000 C.ar      1 <1>        -0.275100 
     30 H          26.794000   24.696000   15.725000 H         1 <1>         0.225300 
     31 C          26.253000   24.633000   13.643000 C.ar      1 <1>         0.056800 
     32 H          26.458000   25.692000   13.495000 H         1 <1>         0.170400 
     33 C          25.806000   23.833000   12.590000 C.ar      1 <1>        -0.521600 
     34 C          25.569000   22.470000   12.785000 C.ar      1 <1>        -0.047700 
     35 H          25.238000   21.835000   11.966000 H         1 <1>         0.194400 
     36 C          25.760000   21.910000   14.052000 C.ar      1 <1>        -0.164500 
     37 H          25.582000   20.845000   14.189000 H         1 <1>         0.153100 
     38 S          25.585000   24.547000   10.975000 S.o2      1 <1>         2.188400 
     39 O          25.372000   25.981000   11.142000 O.2       1 <1>        -0.968800 
     40 O          24.565000   23.770000   10.278000 O.2       1 <1>        -0.973000 
     41 C          27.151000   24.287000   10.184000 C.3       1 <1>        -0.697000 
     42 H          27.096000   24.708000    9.178000 H         1 <1>         0.235400 
     43 H          27.348000   23.215000   10.128000 H         1 <1>         0.187600 
     44 H          27.927000   24.795000   10.758000 H         1 <1>         0.187400 
@<TRIPOS>BOND
     1    1    2 ar   
     2    2    3 ar   
     3    3    4 1    
     4    3    5 ar   
     5    5    6 ar   
     6    6    1 ar   
     7    5    7 1    
     8    7    8 1    
     9    7    9 1    
    10    7   10 1    
    11    2   11 1    
    12   11   12 ar   
    13   12   13 1    
    14   12   14 ar   
    15   14   15 1    
    16   14   16 ar   
    17   16   17 ar   
    18   17   18 1    
    19   17   19 ar   
    20   19   20 1    
    21   19   11 ar   
    22   16   21 1    
    23   21   22 2    
    24   21   23 2    
    25   21   24 1    
    26   24   25 1    
    27   24   26 1    
    28   24   27 1    
    29    1   28 1    
    30   28   29 ar   
    31   29   30 1    
    32   29   31 ar   
    33   31   32 1    
    34   31   33 ar   
    35   33   34 ar   
    36   34   35 1    
    37   34   36 ar   
    38   36   37 1    
    39   36   28 ar   
    40   33   38 1    
    41   38   39 2    
    42   38   40 2    
    43   38   41 1    
    44   41   42 1    
    45   41   43 1    
    46   41   44 1    
@<TRIPOS>SUBSTRUCTURE
     1 ****        1 TEMP              0 ****  ****    0 ROOT 
@<TRIPOS>SET
UNITY_3DHIT     STATIC     ATOMS    <user>   **** Atoms matching 3D or FLEX Search
0
