#	Name:			3-18
#	Creating user name:	jeff
#	Creation time:		Fri Dec 13 09:44:41 2002

#	Modifying user name:	jeff
#	Modification time:	Fri Dec 13 09:44:43 2002

@<TRIPOS>MOLECULE
3-18
   37    39     1     0     1
SMALL
USER_CHARGES
****
From 3DB ct
@<TRIPOS>ATOM
      1 C          26.407000   22.130000   16.460000 C.ar      1 <1>         0.302300 
      2 N          25.470000   21.460000   17.257000 N.pl3     1 <1>        -0.170600 
      3 C          26.200000   20.884000   18.281000 C.ar      1 <1>        -0.226000 
      4 H          25.742000   20.277000   19.050000 H         1 <1>         0.288300 
      5 C          27.502000   21.323000   18.160000 C.ar      1 <1>        -0.212400 
      6 N          27.605000   22.115000   17.029000 N.ar      1 <1>        -0.474300 
      7 C          28.671000   21.040000   19.058000 C.3       1 <1>         1.481200 
      8 F          28.360000   20.190000   20.080000 F         1 <1>        -0.471900 
      9 F          29.163000   22.173000   19.639000 F         1 <1>        -0.433800 
     10 F          29.713000   20.467000   18.388000 F         1 <1>        -0.437300 
     11 C          24.049000   21.374000   17.122000 C.ar      1 <1>         0.441400 
     12 C          23.344000   22.259000   16.293000 C.ar      1 <1>        -0.443200 
     13 H          23.837000   23.061000   15.749000 H         1 <1>         0.234300 
     14 C          21.951000   22.171000   16.181000 C.ar      1 <1>         0.145900 
     15 H          21.420000   22.868000   15.536000 H         1 <1>         0.184900 
     16 C          21.254000   21.207000   16.912000 C.ar      1 <1>        -0.643200 
     17 C          21.940000   20.326000   17.748000 C.ar      1 <1>         0.083400 
     18 H          21.407000   19.567000   18.317000 H         1 <1>         0.192200 
     19 C          23.332000   20.416000   17.859000 C.ar      1 <1>        -0.337200 
     20 H          23.832000   19.698000   18.506000 H         1 <1>         0.213000 
     21 S          19.495000   21.088000   16.740000 S.o2      1 <1>         2.455100 
     22 O          18.948000   22.399000   16.438000 O.2       1 <1>        -0.989700 
     23 O          18.965000   20.304000   17.841000 O.2       1 <1>        -0.986000 
     24 N          19.338000   20.166000   15.350000 N.pl3     1 <1>        -1.296300 
     25 H          18.861000   20.690000   14.612000 H         1 <1>         0.484200 
     26 H          18.862000   19.282000   15.546000 H         1 <1>         0.485100 
     27 C          26.180000   22.707000   15.131000 C.ar      1 <1>         0.212000 
     28 C          26.439000   24.067000   14.909000 C.ar      1 <1>        -0.371400 
     29 H          26.789000   24.699000   15.724000 H         1 <1>         0.228100 
     30 C          26.249000   24.630000   13.643000 C.ar      1 <1>         0.314000 
     31 H          26.448000   25.689000   13.491000 H         1 <1>         0.068800 
     32 C          25.811000   23.831000   12.589000 C.ar      1 <1>        -0.658000 
     33 C          25.567000   22.474000   12.788000 C.ar      1 <1>         0.248000 
     34 H          25.234000   21.844000   11.967000 H         1 <1>         0.080300 
     35 C          25.758000   21.912000   14.054000 C.ar      1 <1>        -0.292100 
     36 H          25.576000   20.846000   14.190000 H         1 <1>         0.162000 
     37 Cl         25.578000   24.523000   11.030000 Cl        1 <1>         0.138700 
@<TRIPOS>BOND
     1    1    2 ar   
     2    2    3 ar   
     3    3    4 1    
     4    3    5 ar   
     5    5    6 ar   
     6    6    1 ar   
     7    5    7 1    
     8    7    8 1    
     9    7    9 1    
    10    7   10 1    
    11    2   11 1    
    12   11   12 ar   
    13   12   13 1    
    14   12   14 ar   
    15   14   15 1    
    16   14   16 ar   
    17   16   17 ar   
    18   17   18 1    
    19   17   19 ar   
    20   19   20 1    
    21   19   11 ar   
    22   16   21 1    
    23   21   22 2    
    24   21   23 2    
    25   21   24 1    
    26   24   25 1    
    27   24   26 1    
    28    1   27 1    
    29   27   28 ar   
    30   28   29 1    
    31   28   30 ar   
    32   30   31 1    
    33   30   32 ar   
    34   32   33 ar   
    35   33   34 1    
    36   33   35 ar   
    37   35   36 1    
    38   35   27 ar   
    39   32   37 1    
@<TRIPOS>SUBSTRUCTURE
     1 ****        1 TEMP              0 ****  ****    0 ROOT 
@<TRIPOS>SET
UNITY_3DHIT     STATIC     ATOMS    <user>   **** Atoms matching 3D or FLEX Search
0
