#	Name:			3-20
#	Creating user name:	jeff
#	Creation time:		Fri Dec 13 09:44:45 2002

#	Modifying user name:	jeff
#	Modification time:	Fri Dec 13 09:44:47 2002

@<TRIPOS>MOLECULE
3-20
   37    39     1     0     1
SMALL
USER_CHARGES
****
From 3DB ct
@<TRIPOS>ATOM
      1 C          26.408000   22.130000   16.460000 C.ar      1 <1>         0.391100 
      2 N          25.470000   21.460000   17.256000 N.pl3     1 <1>        -0.207200 
      3 C          26.199000   20.886000   18.282000 C.ar      1 <1>        -0.218100 
      4 H          25.741000   20.280000   19.051000 H         1 <1>         0.285900 
      5 C          27.502000   21.323000   18.160000 C.ar      1 <1>        -0.233300 
      6 N          27.606000   22.113000   17.029000 N.ar      1 <1>        -0.479200 
      7 C          28.671000   21.041000   19.059000 C.3       1 <1>         1.497800 
      8 F          28.361000   20.188000   20.079000 F         1 <1>        -0.476700 
      9 F          29.160000   22.173000   19.643000 F         1 <1>        -0.438600 
     10 F          29.715000   20.471000   18.388000 F         1 <1>        -0.440900 
     11 C          24.048000   21.374000   17.122000 C.ar      1 <1>         0.452700 
     12 C          23.343000   22.259000   16.293000 C.ar      1 <1>        -0.426400 
     13 H          23.835000   23.060000   15.748000 H         1 <1>         0.232000 
     14 C          21.950000   22.170000   16.181000 C.ar      1 <1>         0.140600 
     15 H          21.419000   22.867000   15.536000 H         1 <1>         0.184600 
     16 C          21.253000   21.206000   16.912000 C.ar      1 <1>        -0.649600 
     17 C          21.940000   20.325000   17.748000 C.ar      1 <1>         0.081500 
     18 H          21.407000   19.566000   18.317000 H         1 <1>         0.192200 
     19 C          23.332000   20.415000   17.859000 C.ar      1 <1>        -0.340000 
     20 H          23.832000   19.698000   18.506000 H         1 <1>         0.213200 
     21 S          19.494000   21.088000   16.741000 S.o2      1 <1>         2.463600 
     22 O          18.946000   22.401000   16.449000 O.2       1 <1>        -0.994200 
     23 O          18.965000   20.296000   17.837000 O.2       1 <1>        -0.989600 
     24 N          19.336000   20.177000   15.344000 N.pl3     1 <1>        -1.297000 
     25 H          18.860000   20.707000   14.610000 H         1 <1>         0.483200 
     26 H          18.860000   19.291000   15.534000 H         1 <1>         0.483500 
     27 C          26.180000   22.708000   15.130000 C.ar      1 <1>        -0.023900 
     28 C          26.441000   24.067000   14.908000 C.ar      1 <1>        -0.160400 
     29 H          26.791000   24.698000   15.724000 H         1 <1>         0.189200 
     30 C          26.249000   24.629000   13.644000 C.ar      1 <1>        -0.126500 
     31 H          26.447000   25.688000   13.484000 H         1 <1>         0.150800 
     32 C          25.810000   23.834000   12.587000 C.ar      1 <1>        -0.101800 
     33 H          25.662000   24.272000   11.601000 H         1 <1>         0.149400 
     34 C          25.568000   22.476000   12.790000 C.ar      1 <1>        -0.189400 
     35 H          25.234000   21.853000   11.962000 H         1 <1>         0.161300 
     36 C          25.759000   21.913000   14.054000 C.ar      1 <1>        -0.089100 
     37 H          25.576000   20.848000   14.189000 H         1 <1>         0.129300 
@<TRIPOS>BOND
     1    1    2 ar   
     2    2    3 ar   
     3    3    4 1    
     4    3    5 ar   
     5    5    6 ar   
     6    6    1 ar   
     7    5    7 1    
     8    7    8 1    
     9    7    9 1    
    10    7   10 1    
    11    2   11 1    
    12   11   12 ar   
    13   12   13 1    
    14   12   14 ar   
    15   14   15 1    
    16   14   16 ar   
    17   16   17 ar   
    18   17   18 1    
    19   17   19 ar   
    20   19   20 1    
    21   19   11 ar   
    22   16   21 1    
    23   21   22 2    
    24   21   23 2    
    25   21   24 1    
    26   24   25 1    
    27   24   26 1    
    28    1   27 1    
    29   27   28 ar   
    30   28   29 1    
    31   28   30 ar   
    32   30   31 1    
    33   30   32 ar   
    34   32   33 1    
    35   32   34 ar   
    36   34   35 1    
    37   34   36 ar   
    38   36   37 1    
    39   36   27 ar   
@<TRIPOS>SUBSTRUCTURE
     1 ****        1 TEMP              0 ****  ****    0 ROOT 
@<TRIPOS>SET
UNITY_3DHIT     STATIC     ATOMS    <user>   **** Atoms matching 3D or FLEX Search
0
