#	Name:			3-22
#	Creating user name:	jeff
#	Creation time:		Fri Dec 13 09:44:49 2002

#	Modifying user name:	jeff
#	Modification time:	Fri Dec 13 09:44:51 2002

@<TRIPOS>MOLECULE
3-22
   38    40     1     0     1
SMALL
USER_CHARGES
****
From 3DB ct
@<TRIPOS>ATOM
      1 C          26.407000   22.131000   16.460000 C.ar      1 <1>         0.328900 
      2 N          25.470000   21.460000   17.255000 N.pl3     1 <1>        -0.142500 
      3 C          26.199000   20.884000   18.280000 C.ar      1 <1>        -0.230900 
      4 H          25.741000   20.276000   19.048000 H         1 <1>         0.291900 
      5 C          27.501000   21.325000   18.160000 C.ar      1 <1>        -0.217400 
      6 N          27.604000   22.117000   17.030000 N.ar      1 <1>        -0.460500 
      7 C          28.669000   21.044000   19.061000 C.3       1 <1>         1.472900 
      8 F          28.355000   20.200000   20.087000 F         1 <1>        -0.469300 
      9 F          29.163000   22.179000   19.636000 F         1 <1>        -0.430000 
     10 F          29.710000   20.465000   18.394000 F         1 <1>        -0.437400 
     11 C          24.048000   21.374000   17.120000 C.ar      1 <1>         0.376200 
     12 C          23.344000   22.259000   16.291000 C.ar      1 <1>        -0.420600 
     13 H          23.837000   23.060000   15.747000 H         1 <1>         0.243000 
     14 C          21.951000   22.172000   16.178000 C.ar      1 <1>         0.089900 
     15 H          21.424000   22.869000   15.530000 H         1 <1>         0.181600 
     16 C          21.255000   21.209000   16.910000 C.ar      1 <1>        -0.546400 
     17 C          21.940000   20.326000   17.745000 C.ar      1 <1>         0.018000 
     18 H          21.407000   19.566000   18.313000 H         1 <1>         0.194400 
     19 C          23.332000   20.416000   17.857000 C.ar      1 <1>        -0.301400 
     20 H          23.832000   19.697000   18.503000 H         1 <1>         0.207600 
     21 S          19.488000   21.085000   16.749000 S.o2      1 <1>         2.178700 
     22 O          18.960000   22.431000   16.545000 O.2       1 <1>        -0.959600 
     23 O          18.989000   20.308000   17.880000 O.2       1 <1>        -0.957000 
     24 C          19.265000   20.148000   15.261000 C.3       1 <1>        -0.724200 
     25 H          18.192000   20.030000   15.092000 H         1 <1>         0.244200 
     26 H          19.731000   19.168000   15.384000 H         1 <1>         0.193900 
     27 H          19.715000   20.690000   14.428000 H         1 <1>         0.190100 
     28 C          26.181000   22.709000   15.130000 C.ar      1 <1>        -0.096700 
     29 C          26.442000   24.069000   14.912000 C.ar      1 <1>         0.204400 
     30 H          26.790000   24.693000   15.733000 H         1 <1>         0.117200 
     31 C          26.253000   24.624000   13.647000 C.ar      1 <1>        -0.599200 
     32 C          25.816000   23.835000   12.585000 C.ar      1 <1>         0.262900 
     33 H          25.668000   24.266000   11.598000 H         1 <1>         0.081000 
     34 C          25.574000   22.476000   12.787000 C.ar      1 <1>        -0.335100 
     35 H          25.242000   21.853000   11.959000 H         1 <1>         0.192300 
     36 C          25.762000   21.914000   14.052000 C.ar      1 <1>         0.011000 
     37 H          25.582000   20.849000   14.186000 H         1 <1>         0.119300 
     38 Cl         26.563000   26.299000   13.393000 Cl        1 <1>         0.128600 
@<TRIPOS>BOND
     1    1    2 ar   
     2    2    3 ar   
     3    3    4 1    
     4    3    5 ar   
     5    5    6 ar   
     6    6    1 ar   
     7    5    7 1    
     8    7    8 1    
     9    7    9 1    
    10    7   10 1    
    11    2   11 1    
    12   11   12 ar   
    13   12   13 1    
    14   12   14 ar   
    15   14   15 1    
    16   14   16 ar   
    17   16   17 ar   
    18   17   18 1    
    19   17   19 ar   
    20   19   20 1    
    21   19   11 ar   
    22   16   21 1    
    23   21   22 2    
    24   21   23 2    
    25   21   24 1    
    26   24   25 1    
    27   24   26 1    
    28   24   27 1    
    29    1   28 1    
    30   28   29 ar   
    31   29   30 1    
    32   29   31 ar   
    33   31   32 ar   
    34   32   33 1    
    35   32   34 ar   
    36   34   35 1    
    37   34   36 ar   
    38   36   37 1    
    39   36   28 ar   
    40   31   38 1    
@<TRIPOS>SUBSTRUCTURE
     1 ****        1 TEMP              0 ****  ****    0 ROOT 
@<TRIPOS>SET
UNITY_3DHIT     STATIC     ATOMS    <user>   **** Atoms matching 3D or FLEX Search
0
