#	Name:			3-27
#	Creating user name:	jeff
#	Creation time:		Fri Dec 13 09:45:00 2002

#	Modifying user name:	jeff
#	Modification time:	Fri Dec 13 09:45:02 2002

@<TRIPOS>MOLECULE
3-27
   42    44     1     0     1
SMALL
USER_CHARGES
****
From 3DB ct
@<TRIPOS>ATOM
      1 C          26.408000   22.128000   16.459000 C.ar      1 <1>         0.455700 
      2 N          25.470000   21.460000   17.257000 N.pl3     1 <1>        -0.191200 
      3 C          26.198000   20.887000   18.283000 C.ar      1 <1>        -0.202400 
      4 H          25.740000   20.282000   19.053000 H         1 <1>         0.288100 
      5 C          27.501000   21.326000   18.162000 C.ar      1 <1>        -0.275400 
      6 N          27.605000   22.114000   17.029000 N.ar      1 <1>        -0.473300 
      7 C          28.668000   21.047000   19.063000 C.3       1 <1>         1.524400 
      8 F          28.349000   20.222000   20.104000 F         1 <1>        -0.480600 
      9 F          29.176000   22.185000   19.620000 F         1 <1>        -0.442600 
     10 F          29.701000   20.446000   18.403000 F         1 <1>        -0.446400 
     11 C          24.048000   21.375000   17.122000 C.ar      1 <1>         0.343400 
     12 C          23.344000   22.259000   16.292000 C.ar      1 <1>        -0.321800 
     13 H          23.837000   23.060000   15.748000 H         1 <1>         0.204700 
     14 C          21.951000   22.171000   16.179000 C.ar      1 <1>         0.037900 
     15 H          21.425000   22.868000   15.530000 H         1 <1>         0.193100 
     16 C          21.255000   21.208000   16.910000 C.ar      1 <1>        -0.538000 
     17 C          21.940000   20.326000   17.746000 C.ar      1 <1>         0.005200 
     18 H          21.407000   19.566000   18.314000 H         1 <1>         0.197600 
     19 C          23.332000   20.416000   17.859000 C.ar      1 <1>        -0.282500 
     20 H          23.831000   19.698000   18.506000 H         1 <1>         0.204900 
     21 S          19.488000   21.084000   16.746000 S.o2      1 <1>         2.188500 
     22 O          18.961000   22.429000   16.538000 O.2       1 <1>        -0.964000 
     23 O          18.988000   20.310000   17.878000 O.2       1 <1>        -0.961000 
     24 C          19.268000   20.143000   15.260000 C.3       1 <1>        -0.730900 
     25 H          18.196000   20.026000   15.089000 H         1 <1>         0.244200 
     26 H          19.734000   19.164000   15.386000 H         1 <1>         0.195100 
     27 H          19.720000   20.684000   14.426000 H         1 <1>         0.192900 
     28 C          26.181000   22.704000   15.128000 C.ar      1 <1>        -0.041900 
     29 C          26.441000   24.064000   14.905000 C.ar      1 <1>        -0.317900 
     30 H          26.791000   24.687000   15.728000 H         1 <1>         0.196400 
     31 C          26.254000   24.637000   13.643000 C.ar      1 <1>         0.496600 
     32 C          25.813000   23.838000   12.588000 C.ar      1 <1>        -0.356900 
     33 H          25.653000   24.237000   11.590000 H         1 <1>         0.206900 
     34 C          25.571000   22.477000   12.793000 C.ar      1 <1>        -0.059400 
     35 H          25.236000   21.855000   11.964000 H         1 <1>         0.157700 
     36 C          25.760000   21.910000   14.054000 C.ar      1 <1>        -0.207100 
     37 H          25.577000   20.845000   14.187000 H         1 <1>         0.146900 
     38 O          26.535000   25.974000   13.573000 O.3       1 <1>        -0.457200 
     39 C          26.974000   26.602000   14.777000 C.3       1 <1>         0.098500 
     40 H          27.156000   27.657000   14.554000 H         1 <1>         0.087100 
     41 H          27.916000   26.166000   15.126000 H         1 <1>         0.046900 
     42 H          26.201000   26.552000   15.551000 H         1 <1>         0.037800 
@<TRIPOS>BOND
     1    1    2 ar   
     2    2    3 ar   
     3    3    4 1    
     4    3    5 ar   
     5    5    6 ar   
     6    6    1 ar   
     7    5    7 1    
     8    7    8 1    
     9    7    9 1    
    10    7   10 1    
    11    2   11 1    
    12   11   12 ar   
    13   12   13 1    
    14   12   14 ar   
    15   14   15 1    
    16   14   16 ar   
    17   16   17 ar   
    18   17   18 1    
    19   17   19 ar   
    20   19   20 1    
    21   19   11 ar   
    22   16   21 1    
    23   21   22 2    
    24   21   23 2    
    25   21   24 1    
    26   24   25 1    
    27   24   26 1    
    28   24   27 1    
    29    1   28 1    
    30   28   29 ar   
    31   29   30 1    
    32   29   31 ar   
    33   31   32 ar   
    34   32   33 1    
    35   32   34 ar   
    36   34   35 1    
    37   34   36 ar   
    38   36   37 1    
    39   36   28 ar   
    40   31   38 1    
    41   38   39 1    
    42   39   40 1    
    43   39   41 1    
    44   39   42 1    
@<TRIPOS>SUBSTRUCTURE
     1 ****        1 TEMP              0 ****  ****    0 ROOT 
@<TRIPOS>SET
UNITY_3DHIT     STATIC     ATOMS    <user>   **** Atoms matching 3D or FLEX Search
0
