#	Name:			3-28
#	Creating user name:	jeff
#	Creation time:		Fri Dec 13 09:45:02 2002

#	Modifying user name:	jeff
#	Modification time:	Fri Dec 13 09:45:05 2002

@<TRIPOS>MOLECULE
3-28
   42    44     1     0     1
SMALL
USER_CHARGES
****
From 3DB ct
@<TRIPOS>ATOM
      1 C          26.408000   22.129000   16.459000 C.ar      1 <1>         0.437900 
      2 N          25.470000   21.460000   17.256000 N.pl3     1 <1>        -0.169700 
      3 C          26.198000   20.887000   18.283000 C.ar      1 <1>        -0.215000 
      4 H          25.740000   20.282000   19.053000 H         1 <1>         0.289200 
      5 C          27.501000   21.326000   18.163000 C.ar      1 <1>        -0.258400 
      6 N          27.606000   22.115000   17.030000 N.ar      1 <1>        -0.470400 
      7 C          28.668000   21.047000   19.064000 C.3       1 <1>         1.511500 
      8 F          28.351000   20.215000   20.099000 F         1 <1>        -0.477800 
      9 F          29.171000   22.184000   19.628000 F         1 <1>        -0.441900 
     10 F          29.704000   20.454000   18.402000 F         1 <1>        -0.442700 
     11 C          24.049000   21.374000   17.120000 C.ar      1 <1>         0.363200 
     12 C          23.344000   22.259000   16.290000 C.ar      1 <1>        -0.380200 
     13 H          23.837000   23.059000   15.746000 H         1 <1>         0.226100 
     14 C          21.952000   22.171000   16.177000 C.ar      1 <1>         0.073800 
     15 H          21.425000   22.869000   15.529000 H         1 <1>         0.185700 
     16 C          21.255000   21.208000   16.909000 C.ar      1 <1>        -0.549400 
     17 C          21.940000   20.325000   17.744000 C.ar      1 <1>         0.014000 
     18 H          21.407000   19.565000   18.312000 H         1 <1>         0.195900 
     19 C          23.332000   20.415000   17.855000 C.ar      1 <1>        -0.292400 
     20 H          23.832000   19.696000   18.502000 H         1 <1>         0.205400 
     21 S          19.488000   21.086000   16.748000 S.o2      1 <1>         2.190400 
     22 O          18.961000   22.431000   16.541000 O.2       1 <1>        -0.965000 
     23 O          18.989000   20.312000   17.881000 O.2       1 <1>        -0.961800 
     24 C          19.265000   20.145000   15.262000 C.3       1 <1>        -0.718000 
     25 H          18.192000   20.029000   15.093000 H         1 <1>         0.240600 
     26 H          19.729000   19.165000   15.388000 H         1 <1>         0.191900 
     27 H          19.716000   20.685000   14.428000 H         1 <1>         0.188000 
     28 C          26.182000   22.704000   15.129000 C.ar      1 <1>        -0.255600 
     29 C          26.448000   24.064000   14.906000 C.ar      1 <1>         0.060600 
     30 H          26.802000   24.678000   15.733000 H         1 <1>         0.156500 
     31 C          26.252000   24.637000   13.643000 C.ar      1 <1>        -0.146300 
     32 C          25.821000   23.829000   12.587000 C.ar      1 <1>        -0.063500 
     33 H          25.688000   24.236000   11.587000 H         1 <1>         0.183400 
     34 C          25.575000   22.470000   12.792000 C.ar      1 <1>        -0.262100 
     35 H          25.247000   21.846000   11.963000 H         1 <1>         0.178300 
     36 C          25.758000   21.909000   14.056000 C.ar      1 <1>         0.037000 
     37 H          25.573000   20.844000   14.193000 H         1 <1>         0.112800 
     38 S          26.611000   26.372000   13.423000 S.3       1 <1>        -0.060900 
     39 C          27.101000   26.823000   15.114000 C.3       1 <1>        -0.195900 
     40 H          27.498000   27.842000   15.108000 H         1 <1>         0.138700 
     41 H          27.881000   26.150000   15.481000 H         1 <1>         0.078100 
     42 H          26.243000   26.795000   15.790000 H         1 <1>         0.068100 
@<TRIPOS>BOND
     1    1    2 ar   
     2    2    3 ar   
     3    3    4 1    
     4    3    5 ar   
     5    5    6 ar   
     6    6    1 ar   
     7    5    7 1    
     8    7    8 1    
     9    7    9 1    
    10    7   10 1    
    11    2   11 1    
    12   11   12 ar   
    13   12   13 1    
    14   12   14 ar   
    15   14   15 1    
    16   14   16 ar   
    17   16   17 ar   
    18   17   18 1    
    19   17   19 ar   
    20   19   20 1    
    21   19   11 ar   
    22   16   21 1    
    23   21   22 2    
    24   21   23 2    
    25   21   24 1    
    26   24   25 1    
    27   24   26 1    
    28   24   27 1    
    29    1   28 1    
    30   28   29 ar   
    31   29   30 1    
    32   29   31 ar   
    33   31   32 ar   
    34   32   33 1    
    35   32   34 ar   
    36   34   35 1    
    37   34   36 ar   
    38   36   37 1    
    39   36   28 ar   
    40   31   38 1    
    41   38   39 1    
    42   39   40 1    
    43   39   41 1    
    44   39   42 1    
@<TRIPOS>SUBSTRUCTURE
     1 ****        1 TEMP              0 ****  ****    0 ROOT 
@<TRIPOS>SET
UNITY_3DHIT     STATIC     ATOMS    <user>   **** Atoms matching 3D or FLEX Search
0
