#	Name:			3-29
#	Creating user name:	jeff
#	Creation time:		Fri Dec 13 09:45:05 2002

#	Modifying user name:	jeff
#	Modification time:	Fri Dec 13 09:45:07 2002

@<TRIPOS>MOLECULE
3-29
   45    47     1     0     1
SMALL
USER_CHARGES
****
From 3DB ct
@<TRIPOS>ATOM
      1 C          26.407000   22.130000   16.460000 C.ar      1 <1>         0.351800 
      2 N          25.469000   21.459000   17.256000 N.pl3     1 <1>        -0.153100 
      3 C          26.198000   20.884000   18.281000 C.ar      1 <1>        -0.205000 
      4 H          25.739000   20.276000   19.049000 H         1 <1>         0.285000 
      5 C          27.500000   21.324000   18.162000 C.ar      1 <1>        -0.266200 
      6 N          27.604000   22.116000   17.032000 N.ar      1 <1>        -0.453200 
      7 C          28.667000   21.044000   19.062000 C.3       1 <1>         1.513600 
      8 F          28.362000   20.175000   20.071000 F         1 <1>        -0.479100 
      9 F          29.141000   22.174000   19.662000 F         1 <1>        -0.440200 
     10 F          29.720000   20.494000   18.390000 F         1 <1>        -0.444200 
     11 C          24.048000   21.374000   17.121000 C.ar      1 <1>         0.338700 
     12 C          23.343000   22.258000   16.291000 C.ar      1 <1>        -0.339800 
     13 H          23.837000   23.058000   15.746000 H         1 <1>         0.211600 
     14 C          21.951000   22.172000   16.179000 C.ar      1 <1>         0.045100 
     15 H          21.424000   22.869000   15.530000 H         1 <1>         0.189600 
     16 C          21.254000   21.209000   16.910000 C.ar      1 <1>        -0.537600 
     17 C          21.939000   20.326000   17.746000 C.ar      1 <1>         0.008400 
     18 H          21.406000   19.566000   18.314000 H         1 <1>         0.196600 
     19 C          23.331000   20.415000   17.858000 C.ar      1 <1>        -0.285200 
     20 H          23.830000   19.697000   18.505000 H         1 <1>         0.203500 
     21 S          19.487000   21.084000   16.751000 S.o2      1 <1>         2.188700 
     22 O          18.959000   22.430000   16.552000 O.2       1 <1>        -0.965500 
     23 O          18.989000   20.302000   17.879000 O.2       1 <1>        -0.962600 
     24 C          19.265000   20.150000   15.261000 C.3       1 <1>        -0.720800 
     25 H          18.192000   20.028000   15.095000 H         1 <1>         0.241000 
     26 H          19.736000   19.173000   15.379000 H         1 <1>         0.192100 
     27 H          19.709000   20.698000   14.428000 H         1 <1>         0.189700 
     28 C          26.181000   22.705000   15.129000 C.ar      1 <1>        -0.012500 
     29 C          26.438000   24.067000   14.907000 C.ar      1 <1>        -0.203600 
     30 H          26.779000   24.689000   15.735000 H         1 <1>         0.216500 
     31 C          26.258000   24.640000   13.638000 C.ar      1 <1>        -0.005100 
     32 C          25.808000   23.831000   12.586000 C.ar      1 <1>        -0.129400 
     33 H          25.647000   24.256000   11.596000 H         1 <1>         0.187400 
     34 C          25.570000   22.471000   12.791000 C.ar      1 <1>        -0.211100 
     35 H          25.235000   21.848000   11.964000 H         1 <1>         0.167900 
     36 C          25.764000   21.909000   14.053000 C.ar      1 <1>        -0.067400 
     37 H          25.585000   20.843000   14.188000 H         1 <1>         0.124800 
     38 C          26.512000   26.108000   13.419000 C.3       1 <1>         0.119200 
     39 H          26.325000   26.667000   14.344000 H         1 <1>         0.062400 
     40 H          25.842000   26.499000   12.643000 H         1 <1>         0.047300 
     41 O          27.876000   26.266000   13.015000 O.3       1 <1>        -0.394700 
     42 C          28.186000   27.643000   12.807000 C.3       1 <1>         0.001300 
     43 H          29.233000   27.715000   12.500000 H         1 <1>         0.092100 
     44 H          28.054000   28.209000   13.734000 H         1 <1>         0.054600 
     45 H          27.559000   28.061000   12.014000 H         1 <1>         0.047500 
@<TRIPOS>BOND
     1    1    2 ar   
     2    2    3 ar   
     3    3    4 1    
     4    3    5 ar   
     5    5    6 ar   
     6    6    1 ar   
     7    5    7 1    
     8    7    8 1    
     9    7    9 1    
    10    7   10 1    
    11    2   11 1    
    12   11   12 ar   
    13   12   13 1    
    14   12   14 ar   
    15   14   15 1    
    16   14   16 ar   
    17   16   17 ar   
    18   17   18 1    
    19   17   19 ar   
    20   19   20 1    
    21   19   11 ar   
    22   16   21 1    
    23   21   22 2    
    24   21   23 2    
    25   21   24 1    
    26   24   25 1    
    27   24   26 1    
    28   24   27 1    
    29    1   28 1    
    30   28   29 ar   
    31   29   30 1    
    32   29   31 ar   
    33   31   32 ar   
    34   32   33 1    
    35   32   34 ar   
    36   34   35 1    
    37   34   36 ar   
    38   36   37 1    
    39   36   28 ar   
    40   31   38 1    
    41   38   39 1    
    42   38   40 1    
    43   38   41 1    
    44   41   42 1    
    45   42   43 1    
    46   42   44 1    
    47   42   45 1    
@<TRIPOS>SUBSTRUCTURE
     1 ****        1 TEMP              0 ****  ****    0 ROOT 
@<TRIPOS>SET
UNITY_3DHIT     STATIC     ATOMS    <user>   **** Atoms matching 3D or FLEX Search
0
