#	Name:			3-30
#	Creating user name:	jeff
#	Creation time:		Fri Dec 13 09:45:07 2002

#	Modifying user name:	jeff
#	Modification time:	Fri Dec 13 09:45:10 2002

@<TRIPOS>MOLECULE
3-30
   46    48     1     0     1
SMALL
USER_CHARGES
****
From 3DB ct
@<TRIPOS>ATOM
      1 C          26.406000   22.125000   16.457000 C.ar      1 <1>         0.411900 
      2 N          25.468000   21.460000   17.257000 N.pl3     1 <1>        -0.169700 
      3 C          26.197000   20.892000   18.287000 C.ar      1 <1>        -0.224600 
      4 H          25.738000   20.290000   19.059000 H         1 <1>         0.292000 
      5 C          27.499000   21.329000   18.163000 C.ar      1 <1>        -0.264100 
      6 N          27.604000   22.113000   17.028000 N.ar      1 <1>        -0.471200 
      7 C          28.667000   21.051000   19.064000 C.3       1 <1>         1.528300 
      8 F          28.358000   20.199000   20.085000 F         1 <1>        -0.483100 
      9 F          29.152000   22.186000   19.648000 F         1 <1>        -0.444600 
     10 F          29.714000   20.484000   18.397000 F         1 <1>        -0.448600 
     11 C          24.047000   21.375000   17.123000 C.ar      1 <1>         0.360100 
     12 C          23.341000   22.258000   16.293000 C.ar      1 <1>        -0.346300 
     13 H          23.835000   23.059000   15.748000 H         1 <1>         0.217900 
     14 C          21.949000   22.170000   16.180000 C.ar      1 <1>         0.049500 
     15 H          21.422000   22.867000   15.531000 H         1 <1>         0.188100 
     16 C          21.253000   21.207000   16.912000 C.ar      1 <1>        -0.546700 
     17 C          21.939000   20.325000   17.748000 C.ar      1 <1>         0.015100 
     18 H          21.407000   19.564000   18.316000 H         1 <1>         0.195900 
     19 C          23.331000   20.416000   17.860000 C.ar      1 <1>        -0.297300 
     20 H          23.831000   19.698000   18.507000 H         1 <1>         0.205800 
     21 S          19.487000   21.081000   16.750000 S.o2      1 <1>         2.193600 
     22 O          18.957000   22.426000   16.546000 O.2       1 <1>        -0.967100 
     23 O          18.988000   20.303000   17.880000 O.2       1 <1>        -0.963900 
     24 C          19.266000   20.144000   15.261000 C.3       1 <1>        -0.728600 
     25 H          18.193000   20.026000   15.091000 H         1 <1>         0.241600 
     26 H          19.732000   19.165000   15.385000 H         1 <1>         0.193800 
     27 H          19.716000   20.687000   14.429000 H         1 <1>         0.192300 
     28 C          26.180000   22.694000   15.123000 C.ar      1 <1>         0.003800 
     29 C          26.442000   24.060000   14.895000 C.ar      1 <1>        -0.335500 
     30 H          26.790000   24.645000   15.744000 H         1 <1>         0.200800 
     31 C          26.266000   24.668000   13.637000 C.ar      1 <1>         0.357500 
     32 C          25.822000   23.826000   12.603000 C.ar      1 <1>        -0.282400 
     33 H          25.657000   24.209000   11.597000 H         1 <1>         0.165500 
     34 C          25.576000   22.462000   12.802000 C.ar      1 <1>        -0.142700 
     35 H          25.242000   21.844000   11.970000 H         1 <1>         0.167400 
     36 C          25.762000   21.895000   14.058000 C.ar      1 <1>        -0.169500 
     37 H          25.579000   20.830000   14.193000 H         1 <1>         0.131300 
     38 N          26.517000   26.020000   13.429000 N.pl3     1 <1>        -0.412200 
     39 C          26.329000   26.635000   12.114000 C.3       1 <1>        -0.006600 
     40 H          26.575000   27.703000   12.123000 H         1 <1>         0.092000 
     41 H          25.286000   26.551000   11.792000 H         1 <1>         0.046100 
     42 H          26.981000   26.165000   11.369000 H         1 <1>         0.053900 
     43 C          26.978000   26.885000   14.517000 C.3       1 <1>         0.021700 
     44 H          27.124000   27.918000   14.183000 H         1 <1>         0.078600 
     45 H          27.940000   26.537000   14.908000 H         1 <1>         0.057000 
     46 H          26.242000   26.913000   15.328000 H         1 <1>         0.043000 
@<TRIPOS>BOND
     1    1    2 ar   
     2    2    3 ar   
     3    3    4 1    
     4    3    5 ar   
     5    5    6 ar   
     6    6    1 ar   
     7    5    7 1    
     8    7    8 1    
     9    7    9 1    
    10    7   10 1    
    11    2   11 1    
    12   11   12 ar   
    13   12   13 1    
    14   12   14 ar   
    15   14   15 1    
    16   14   16 ar   
    17   16   17 ar   
    18   17   18 1    
    19   17   19 ar   
    20   19   20 1    
    21   19   11 ar   
    22   16   21 1    
    23   21   22 2    
    24   21   23 2    
    25   21   24 1    
    26   24   25 1    
    27   24   26 1    
    28   24   27 1    
    29    1   28 1    
    30   28   29 ar   
    31   29   30 1    
    32   29   31 ar   
    33   31   32 ar   
    34   32   33 1    
    35   32   34 ar   
    36   34   35 1    
    37   34   36 ar   
    38   36   37 1    
    39   36   28 ar   
    40   31   38 1    
    41   38   39 1    
    42   39   40 1    
    43   39   41 1    
    44   39   42 1    
    45   38   43 1    
    46   43   44 1    
    47   43   45 1    
    48   43   46 1    
@<TRIPOS>SUBSTRUCTURE
     1 ****        1 TEMP              0 ****  ****    0 ROOT 
@<TRIPOS>SET
UNITY_3DHIT     STATIC     ATOMS    <user>   **** Atoms matching 3D or FLEX Search
0
