#	Name:			3-31
#	Creating user name:	jeff
#	Creation time:		Fri Dec 13 09:45:10 2002

#	Modifying user name:	jeff
#	Modification time:	Fri Dec 13 09:45:12 2002

@<TRIPOS>MOLECULE
3-31
   43    45     1     0     1
SMALL
USER_CHARGES
****
From 3DB ct
@<TRIPOS>ATOM
      1 C          26.407000   22.127000   16.458000 C.ar      1 <1>         0.439100 
      2 N          25.469000   21.461000   17.257000 N.pl3     1 <1>        -0.178200 
      3 C          26.197000   20.890000   18.285000 C.ar      1 <1>        -0.225100 
      4 H          25.739000   20.287000   19.056000 H         1 <1>         0.291200 
      5 C          27.500000   21.327000   18.163000 C.ar      1 <1>        -0.257500 
      6 N          27.605000   22.113000   17.029000 N.ar      1 <1>        -0.479800 
      7 C          28.668000   21.048000   19.064000 C.3       1 <1>         1.520400 
      8 F          28.354000   20.210000   20.095000 F         1 <1>        -0.481900 
      9 F          29.166000   22.184000   19.632000 F         1 <1>        -0.443700 
     10 F          29.707000   20.462000   18.399000 F         1 <1>        -0.445400 
     11 C          24.048000   21.375000   17.122000 C.ar      1 <1>         0.361200 
     12 C          23.342000   22.259000   16.292000 C.ar      1 <1>        -0.349800 
     13 H          23.835000   23.059000   15.747000 H         1 <1>         0.215200 
     14 C          21.950000   22.170000   16.179000 C.ar      1 <1>         0.058900 
     15 H          21.423000   22.867000   15.530000 H         1 <1>         0.187100 
     16 C          21.254000   21.207000   16.910000 C.ar      1 <1>        -0.549100 
     17 C          21.939000   20.325000   17.746000 C.ar      1 <1>         0.009500 
     18 H          21.407000   19.564000   18.314000 H         1 <1>         0.196100 
     19 C          23.331000   20.416000   17.858000 C.ar      1 <1>        -0.291500 
     20 H          23.831000   19.697000   18.505000 H         1 <1>         0.205000 
     21 S          19.487000   21.084000   16.749000 S.o2      1 <1>         2.193500 
     22 O          18.959000   22.428000   16.538000 O.2       1 <1>        -0.967200 
     23 O          18.987000   20.312000   17.882000 O.2       1 <1>        -0.964100 
     24 C          19.266000   20.140000   15.264000 C.3       1 <1>        -0.726200 
     25 H          18.193000   20.023000   15.094000 H         1 <1>         0.241200 
     26 H          19.730000   19.160000   15.392000 H         1 <1>         0.193700 
     27 H          19.717000   20.679000   14.429000 H         1 <1>         0.190700 
     28 C          26.181000   22.699000   15.126000 C.ar      1 <1>        -0.030000 
     29 C          26.443000   24.062000   14.899000 C.ar      1 <1>        -0.279900 
     30 H          26.793000   24.674000   15.730000 H         1 <1>         0.190100 
     31 C          26.259000   24.652000   13.640000 C.ar      1 <1>         0.468500 
     32 C          25.816000   23.832000   12.597000 C.ar      1 <1>        -0.414500 
     33 H          25.656000   24.235000   11.599000 H         1 <1>         0.181700 
     34 C          25.572000   22.469000   12.798000 C.ar      1 <1>        -0.047500 
     35 H          25.237000   21.850000   11.967000 H         1 <1>         0.152000 
     36 C          25.760000   21.903000   14.056000 C.ar      1 <1>        -0.222200 
     37 H          25.577000   20.838000   14.191000 H         1 <1>         0.142200 
     38 N          26.520000   25.999000   13.486000 N.pl3     1 <1>        -0.775300 
     39 H          26.386000   26.427000   12.569000 H         1 <1>         0.445100 
     40 C          26.983000   26.868000   14.548000 C.3       1 <1>         0.065800 
     41 H          27.113000   27.883000   14.159000 H         1 <1>         0.069000 
     42 H          27.950000   26.533000   14.938000 H         1 <1>         0.059500 
     43 H          26.256000   26.914000   15.365000 H         1 <1>         0.052100 
@<TRIPOS>BOND
     1    1    2 ar   
     2    2    3 ar   
     3    3    4 1    
     4    3    5 ar   
     5    5    6 ar   
     6    6    1 ar   
     7    5    7 1    
     8    7    8 1    
     9    7    9 1    
    10    7   10 1    
    11    2   11 1    
    12   11   12 ar   
    13   12   13 1    
    14   12   14 ar   
    15   14   15 1    
    16   14   16 ar   
    17   16   17 ar   
    18   17   18 1    
    19   17   19 ar   
    20   19   20 1    
    21   19   11 ar   
    22   16   21 1    
    23   21   22 2    
    24   21   23 2    
    25   21   24 1    
    26   24   25 1    
    27   24   26 1    
    28   24   27 1    
    29    1   28 1    
    30   28   29 ar   
    31   29   30 1    
    32   29   31 ar   
    33   31   32 ar   
    34   32   33 1    
    35   32   34 ar   
    36   34   35 1    
    37   34   36 ar   
    38   36   37 1    
    39   36   28 ar   
    40   31   38 1    
    41   38   39 1    
    42   38   40 1    
    43   40   41 1    
    44   40   42 1    
    45   40   43 1    
@<TRIPOS>SUBSTRUCTURE
     1 ****        1 TEMP              0 ****  ****    0 ROOT 
@<TRIPOS>SET
UNITY_3DHIT     STATIC     ATOMS    <user>   **** Atoms matching 3D or FLEX Search
0
