#	Name:			3-32
#	Creating user name:	jeff
#	Creation time:		Fri Dec 13 09:45:12 2002

#	Modifying user name:	jeff
#	Modification time:	Fri Dec 13 09:45:14 2002

@<TRIPOS>MOLECULE
3-32
   40    42     1     0     1
SMALL
USER_CHARGES
****
From 3DB ct
@<TRIPOS>ATOM
      1 C          26.407000   22.129000   16.458000 C.ar      1 <1>         0.471700 
      2 N          25.469000   21.461000   17.256000 N.pl3     1 <1>        -0.219400 
      3 C          26.197000   20.890000   18.284000 C.ar      1 <1>        -0.205700 
      4 H          25.738000   20.286000   19.054000 H         1 <1>         0.290200 
      5 C          27.500000   21.327000   18.162000 C.ar      1 <1>        -0.281300 
      6 N          27.605000   22.114000   17.029000 N.ar      1 <1>        -0.476400 
      7 C          28.667000   21.047000   19.063000 C.3       1 <1>         1.535000 
      8 F          28.356000   20.196000   20.084000 F         1 <1>        -0.484000 
      9 F          29.155000   22.181000   19.645000 F         1 <1>        -0.445400 
     10 F          29.712000   20.476000   18.395000 F         1 <1>        -0.448700 
     11 C          24.047000   21.374000   17.120000 C.ar      1 <1>         0.383100 
     12 C          23.341000   22.258000   16.291000 C.ar      1 <1>        -0.347500 
     13 H          23.834000   23.059000   15.747000 H         1 <1>         0.222900 
     14 C          21.949000   22.170000   16.179000 C.ar      1 <1>         0.049200 
     15 H          21.421000   22.867000   15.531000 H         1 <1>         0.189100 
     16 C          21.253000   21.207000   16.911000 C.ar      1 <1>        -0.548600 
     17 C          21.939000   20.324000   17.746000 C.ar      1 <1>         0.012600 
     18 H          21.407000   19.564000   18.315000 H         1 <1>         0.196000 
     19 C          23.331000   20.414000   17.857000 C.ar      1 <1>        -0.303300 
     20 H          23.831000   19.696000   18.503000 H         1 <1>         0.207700 
     21 S          19.486000   21.084000   16.752000 S.o2      1 <1>         2.194900 
     22 O          18.959000   22.428000   16.541000 O.2       1 <1>        -0.966900 
     23 O          18.987000   20.313000   17.886000 O.2       1 <1>        -0.964700 
     24 C          19.262000   20.140000   15.268000 C.3       1 <1>        -0.725100 
     25 H          18.190000   20.022000   15.099000 H         1 <1>         0.240200 
     26 H          19.727000   19.160000   15.395000 H         1 <1>         0.193100 
     27 H          19.713000   20.678000   14.432000 H         1 <1>         0.191800 
     28 C          26.181000   22.704000   15.127000 C.ar      1 <1>         0.030200 
     29 C          26.432000   24.068000   14.906000 C.ar      1 <1>        -0.509100 
     30 H          26.766000   24.689000   15.737000 H         1 <1>         0.236300 
     31 C          26.260000   24.642000   13.643000 C.ar      1 <1>         0.770500 
     32 C          25.796000   23.838000   12.600000 C.ar      1 <1>        -0.455200 
     33 H          25.619000   24.267000   11.615000 H         1 <1>         0.198900 
     34 C          25.562000   22.476000   12.796000 C.ar      1 <1>        -0.059800 
     35 H          25.219000   21.858000   11.968000 H         1 <1>         0.160000 
     36 C          25.764000   21.907000   14.053000 C.ar      1 <1>        -0.248400 
     37 H          25.587000   20.841000   14.187000 H         1 <1>         0.145500 
     38 N          26.437000   26.001000   13.457000 N.pl3     1 <1>        -1.288400 
     39 H          26.438000   26.396000   12.520000 H         1 <1>         0.525600 
     40 H          26.897000   26.563000   14.169000 H         1 <1>         0.533400 
@<TRIPOS>BOND
     1    1    2 ar   
     2    2    3 ar   
     3    3    4 1    
     4    3    5 ar   
     5    5    6 ar   
     6    6    1 ar   
     7    5    7 1    
     8    7    8 1    
     9    7    9 1    
    10    7   10 1    
    11    2   11 1    
    12   11   12 ar   
    13   12   13 1    
    14   12   14 ar   
    15   14   15 1    
    16   14   16 ar   
    17   16   17 ar   
    18   17   18 1    
    19   17   19 ar   
    20   19   20 1    
    21   19   11 ar   
    22   16   21 1    
    23   21   22 2    
    24   21   23 2    
    25   21   24 1    
    26   24   25 1    
    27   24   26 1    
    28   24   27 1    
    29    1   28 1    
    30   28   29 ar   
    31   29   30 1    
    32   29   31 ar   
    33   31   32 ar   
    34   32   33 1    
    35   32   34 ar   
    36   34   35 1    
    37   34   36 ar   
    38   36   37 1    
    39   36   28 ar   
    40   31   38 1    
    41   38   39 1    
    42   38   40 1    
@<TRIPOS>SUBSTRUCTURE
     1 ****        1 TEMP              0 ****  ****    0 ROOT 
@<TRIPOS>SET
UNITY_3DHIT     STATIC     ATOMS    <user>   **** Atoms matching 3D or FLEX Search
0
