#	Name:			3-33
#	Creating user name:	jeff
#	Creation time:		Fri Dec 13 09:45:14 2002

#	Modifying user name:	jeff
#	Modification time:	Fri Dec 13 09:45:16 2002

@<TRIPOS>MOLECULE
3-33
   40    42     1     0     1
SMALL
USER_CHARGES
****
From 3DB ct
@<TRIPOS>ATOM
      1 C          26.406000   22.131000   16.460000 C.ar      1 <1>         0.372500 
      2 N          25.469000   21.459000   17.255000 N.pl3     1 <1>        -0.191800 
      3 C          26.199000   20.882000   18.279000 C.ar      1 <1>        -0.192400 
      4 H          25.741000   20.273000   19.046000 H         1 <1>         0.294400 
      5 C          27.500000   21.324000   18.160000 C.ar      1 <1>        -0.264900 
      6 N          27.603000   22.118000   17.032000 N.ar      1 <1>        -0.449800 
      7 C          28.668000   21.043000   19.061000 C.3       1 <1>         1.515700 
      8 F          28.358000   20.191000   20.081000 F         1 <1>        -0.477000 
      9 F          29.156000   22.177000   19.644000 F         1 <1>        -0.435900 
     10 F          29.713000   20.474000   18.392000 F         1 <1>        -0.443500 
     11 C          24.048000   21.373000   17.121000 C.ar      1 <1>         0.362100 
     12 C          23.343000   22.258000   16.291000 C.ar      1 <1>        -0.348700 
     13 H          23.836000   23.059000   15.748000 H         1 <1>         0.209400 
     14 C          21.951000   22.171000   16.179000 C.ar      1 <1>         0.052300 
     15 H          21.424000   22.868000   15.530000 H         1 <1>         0.193000 
     16 C          21.254000   21.208000   16.911000 C.ar      1 <1>        -0.543800 
     17 C          21.939000   20.325000   17.746000 C.ar      1 <1>         0.020400 
     18 H          21.407000   19.565000   18.314000 H         1 <1>         0.196800 
     19 C          23.331000   20.414000   17.857000 C.ar      1 <1>        -0.301900 
     20 H          23.831000   19.696000   18.504000 H         1 <1>         0.209100 
     21 S          19.487000   21.086000   16.751000 S.o2      1 <1>         2.185600 
     22 O          18.961000   22.432000   16.542000 O.2       1 <1>        -0.957900 
     23 O          18.988000   20.313000   17.884000 O.2       1 <1>        -0.956000 
     24 C          19.263000   20.145000   15.265000 C.3       1 <1>        -0.727400 
     25 H          18.191000   20.027000   15.097000 H         1 <1>         0.246500 
     26 H          19.729000   19.165000   15.391000 H         1 <1>         0.194200 
     27 H          19.713000   20.685000   14.431000 H         1 <1>         0.190500 
     28 C          26.181000   22.711000   15.131000 C.ar      1 <1>         0.022000 
     29 C          26.442000   24.072000   14.915000 C.ar      1 <1>        -0.238600 
     30 H          26.788000   24.686000   15.744000 H         1 <1>         0.269700 
     31 C          26.255000   24.627000   13.641000 C.ar      1 <1>         0.118400 
     32 C          25.819000   23.831000   12.574000 C.ar      1 <1>        -0.156500 
     33 H          25.668000   24.246000   11.581000 H         1 <1>         0.228100 
     34 C          25.579000   22.472000   12.784000 C.ar      1 <1>        -0.174300 
     35 H          25.249000   21.844000   11.958000 H         1 <1>         0.185300 
     36 C          25.766000   21.915000   14.052000 C.ar      1 <1>        -0.078800 
     37 H          25.587000   20.849000   14.187000 H         1 <1>         0.149500 
     38 N          26.521000   26.054000   13.422000 N.2       1 <1>         0.741900 
     39 O          26.433000   26.501000   12.263000 O.2       1 <1>        -0.517500 
     40 O          26.823000   26.756000   14.406000 O.3       1 <1>        -0.500900 
@<TRIPOS>BOND
     1    1    2 ar   
     2    2    3 ar   
     3    3    4 1    
     4    3    5 ar   
     5    5    6 ar   
     6    6    1 ar   
     7    5    7 1    
     8    7    8 1    
     9    7    9 1    
    10    7   10 1    
    11    2   11 1    
    12   11   12 ar   
    13   12   13 1    
    14   12   14 ar   
    15   14   15 1    
    16   14   16 ar   
    17   16   17 ar   
    18   17   18 1    
    19   17   19 ar   
    20   19   20 1    
    21   19   11 ar   
    22   16   21 1    
    23   21   22 2    
    24   21   23 2    
    25   21   24 1    
    26   24   25 1    
    27   24   26 1    
    28   24   27 1    
    29    1   28 1    
    30   28   29 ar   
    31   29   30 1    
    32   29   31 ar   
    33   31   32 ar   
    34   32   33 1    
    35   32   34 ar   
    36   34   35 1    
    37   34   36 ar   
    38   36   37 1    
    39   36   28 ar   
    40   31   38 1    
    41   38   39 2    
    42   38   40 1    
@<TRIPOS>SUBSTRUCTURE
     1 ****        1 TEMP              0 ****  ****    0 ROOT 
@<TRIPOS>SET
UNITY_3DHIT     STATIC     ATOMS    <user>   **** Atoms matching 3D or FLEX Search
0
@<TRIPOS>UNITY_ATOM_ATTR
38 1
AtomExpr +1
