#	Name:			3-38
#	Creating user name:	jeff
#	Creation time:		Fri Dec 13 09:45:25 2002

#	Modifying user name:	jeff
#	Modification time:	Fri Dec 13 09:45:27 2002

@<TRIPOS>MOLECULE
3-38
   38    40     1     0     1
SMALL
USER_CHARGES
****
From 3DB ct
@<TRIPOS>ATOM
      1 C          26.421000   22.129000   16.466000 C.ar      1 <1>         0.033200 
      2 N          25.473000   21.480000   17.268000 N.pl3     1 <1>        -0.032000 
      3 C          26.196000   20.903000   18.298000 C.ar      1 <1>        -0.237200 
      4 H          25.727000   20.329000   19.085000 H         1 <1>         0.292500 
      5 C          27.515000   21.274000   18.142000 C.ar      1 <1>        -0.178000 
      6 N          27.634000   22.037000   16.996000 N.ar      1 <1>        -0.463600 
      7 C          28.688000   20.948000   19.020000 C.3       1 <1>         1.487700 
      8 F          28.343000   20.203000   20.111000 F         1 <1>        -0.479800 
      9 F          29.302000   22.068000   19.502000 F         1 <1>        -0.435600 
     10 F          29.648000   20.236000   18.360000 F         1 <1>        -0.438300 
     11 C          24.051000   21.394000   17.124000 C.ar      1 <1>         0.221000 
     12 C          23.343000   22.269000   16.288000 C.ar      1 <1>        -0.315500 
     13 H          23.826000   23.074000   15.744000 H         1 <1>         0.195800 
     14 C          21.951000   22.172000   16.168000 C.ar      1 <1>         0.075400 
     15 H          21.424000   22.864000   15.514000 H         1 <1>         0.181000 
     16 C          21.256000   21.206000   16.896000 C.ar      1 <1>        -0.543300 
     17 C          21.942000   20.331000   17.736000 C.ar      1 <1>        -0.004500 
     18 H          21.412000   19.567000   18.303000 H         1 <1>         0.195500 
     19 C          23.333000   20.430000   17.855000 C.ar      1 <1>        -0.214300 
     20 H          23.831000   19.713000   18.505000 H         1 <1>         0.182900 
     21 S          19.491000   21.072000   16.724000 S.o2      1 <1>         2.174300 
     22 O          18.958000   22.412000   16.496000 O.2       1 <1>        -0.958600 
     23 O          18.988000   20.309000   17.862000 O.2       1 <1>        -0.954700 
     24 C          19.283000   20.113000   15.247000 C.3       1 <1>        -0.732100 
     25 H          18.213000   19.988000   15.072000 H         1 <1>         0.247200 
     26 H          19.752000   19.137000   15.388000 H         1 <1>         0.195200 
     27 H          19.738000   20.646000   14.410000 H         1 <1>         0.190300 
     28 C          26.186000   22.735000   15.151000 C.ar      1 <1>         0.746100 
     29 C          26.426000   24.096000   14.899000 C.ar      1 <1>        -0.844400 
     30 C          26.212000   24.627000   13.622000 C.ar      1 <1>         0.353900 
     31 H          26.388000   25.683000   13.427000 H         1 <1>         0.058000 
     32 C          25.767000   23.807000   12.586000 C.ar      1 <1>        -0.314600 
     33 H          25.602000   24.224000   11.594000 H         1 <1>         0.189500 
     34 C          25.536000   22.454000   12.820000 C.ar      1 <1>        -0.014900 
     35 H          25.192000   21.811000   12.011000 H         1 <1>         0.152300 
     36 C          25.748000   21.919000   14.093000 C.ar      1 <1>        -0.415400 
     37 H          25.571000   20.856000   14.253000 H         1 <1>         0.205000 
     38 Cl         26.948000   25.184000   16.141000 Cl        1 <1>         0.199900 
@<TRIPOS>BOND
     1    1    2 ar   
     2    2    3 ar   
     3    3    4 1    
     4    3    5 ar   
     5    5    6 ar   
     6    6    1 ar   
     7    5    7 1    
     8    7    8 1    
     9    7    9 1    
    10    7   10 1    
    11    2   11 1    
    12   11   12 ar   
    13   12   13 1    
    14   12   14 ar   
    15   14   15 1    
    16   14   16 ar   
    17   16   17 ar   
    18   17   18 1    
    19   17   19 ar   
    20   19   20 1    
    21   19   11 ar   
    22   16   21 1    
    23   21   22 2    
    24   21   23 2    
    25   21   24 1    
    26   24   25 1    
    27   24   26 1    
    28   24   27 1    
    29    1   28 1    
    30   28   29 ar   
    31   29   30 ar   
    32   30   31 1    
    33   30   32 ar   
    34   32   33 1    
    35   32   34 ar   
    36   34   35 1    
    37   34   36 ar   
    38   36   37 1    
    39   36   28 ar   
    40   29   38 1    
@<TRIPOS>SUBSTRUCTURE
     1 ****        1 TEMP              0 ****  ****    0 ROOT 
@<TRIPOS>SET
UNITY_3DHIT     STATIC     ATOMS    <user>   **** Atoms matching 3D or FLEX Search
0
