#	Name:			3-40
#	Creating user name:	jeff
#	Creation time:		Fri Dec 13 09:45:29 2002

#	Modifying user name:	jeff
#	Modification time:	Fri Dec 13 09:45:31 2002

@<TRIPOS>MOLECULE
3-40
   41    43     1     0     1
SMALL
USER_CHARGES
****
From 3DB ct
@<TRIPOS>ATOM
      1 C          26.418000   22.131000   16.468000 C.ar      1 <1>         0.543900 
      2 N          25.474000   21.468000   17.262000 N.pl3     1 <1>        -0.214300 
      3 C          26.199000   20.886000   18.288000 C.ar      1 <1>        -0.201900 
      4 H          25.735000   20.293000   19.063000 H         1 <1>         0.292600 
      5 C          27.511000   21.288000   18.151000 C.ar      1 <1>        -0.307800 
      6 N          27.625000   22.070000   17.016000 N.ar      1 <1>        -0.469500 
      7 C          28.682000   20.976000   19.037000 C.3       1 <1>         1.548900 
      8 F          28.330000   20.266000   20.149000 F         1 <1>        -0.485700 
      9 F          29.307000   22.103000   19.485000 F         1 <1>        -0.445900 
     10 F          29.633000   20.236000   18.395000 F         1 <1>        -0.450400 
     11 C          24.052000   21.383000   17.121000 C.ar      1 <1>         0.348700 
     12 C          23.347000   22.264000   16.287000 C.ar      1 <1>        -0.322100 
     13 H          23.836000   23.065000   15.742000 H         1 <1>         0.211100 
     14 C          21.955000   22.173000   16.169000 C.ar      1 <1>         0.035300 
     15 H          21.430000   22.869000   15.518000 H         1 <1>         0.191700 
     16 C          21.257000   21.210000   16.898000 C.ar      1 <1>        -0.533100 
     17 C          21.941000   20.329000   17.736000 C.ar      1 <1>        -0.003500 
     18 H          21.408000   19.568000   18.302000 H         1 <1>         0.199100 
     19 C          23.332000   20.422000   17.853000 C.ar      1 <1>        -0.282100 
     20 H          23.829000   19.703000   18.501000 H         1 <1>         0.203500 
     21 S          19.491000   21.084000   16.731000 S.o2      1 <1>         2.191900 
     22 O          18.964000   22.426000   16.503000 O.2       1 <1>        -0.965000 
     23 O          18.986000   20.325000   17.871000 O.2       1 <1>        -0.963100 
     24 C          19.276000   20.123000   15.257000 C.3       1 <1>        -0.727800 
     25 H          18.204000   20.003000   15.085000 H         1 <1>         0.242600 
     26 H          19.741000   19.146000   15.398000 H         1 <1>         0.194200 
     27 H          19.729000   20.653000   14.418000 H         1 <1>         0.191300 
     28 C          26.184000   22.735000   15.148000 C.ar      1 <1>        -0.303200 
     29 C          26.425000   24.105000   14.908000 C.ar      1 <1>         0.244900 
     30 C          26.215000   24.622000   13.618000 C.ar      1 <1>        -0.255700 
     31 H          26.396000   25.676000   13.411000 H         1 <1>         0.178700 
     32 C          25.770000   23.799000   12.582000 C.ar      1 <1>        -0.069300 
     33 H          25.610000   24.215000   11.589000 H         1 <1>         0.150300 
     34 C          25.540000   22.448000   12.816000 C.ar      1 <1>        -0.229400 
     35 H          25.200000   21.804000   12.008000 H         1 <1>         0.168000 
     36 C          25.751000   21.917000   14.089000 C.ar      1 <1>        -0.023600 
     37 H          25.577000   20.853000   14.250000 H         1 <1>         0.126600 
     38 C          26.913000   25.027000   15.993000 C.3       1 <1>        -0.303500 
     39 H          27.951000   24.793000   16.249000 H         1 <1>         0.122800 
     40 H          26.286000   24.940000   16.886000 H         1 <1>         0.081000 
     41 H          26.874000   26.075000   15.675000 H         1 <1>         0.089400 
@<TRIPOS>BOND
     1    1    2 ar   
     2    2    3 ar   
     3    3    4 1    
     4    3    5 ar   
     5    5    6 ar   
     6    6    1 ar   
     7    5    7 1    
     8    7    8 1    
     9    7    9 1    
    10    7   10 1    
    11    2   11 1    
    12   11   12 ar   
    13   12   13 1    
    14   12   14 ar   
    15   14   15 1    
    16   14   16 ar   
    17   16   17 ar   
    18   17   18 1    
    19   17   19 ar   
    20   19   20 1    
    21   19   11 ar   
    22   16   21 1    
    23   21   22 2    
    24   21   23 2    
    25   21   24 1    
    26   24   25 1    
    27   24   26 1    
    28   24   27 1    
    29    1   28 1    
    30   28   29 ar   
    31   29   30 ar   
    32   30   31 1    
    33   30   32 ar   
    34   32   33 1    
    35   32   34 ar   
    36   34   35 1    
    37   34   36 ar   
    38   36   37 1    
    39   36   28 ar   
    40   29   38 1    
    41   38   39 1    
    42   38   40 1    
    43   38   41 1    
@<TRIPOS>SUBSTRUCTURE
     1 ****        1 TEMP              0 ****  ****    0 ROOT 
@<TRIPOS>SET
UNITY_3DHIT     STATIC     ATOMS    <user>   **** Atoms matching 3D or FLEX Search
0
