#	Name:			3-41
#	Creating user name:	jeff
#	Creation time:		Fri Dec 13 09:45:31 2002

#	Modifying user name:	jeff
#	Modification time:	Fri Dec 13 09:45:34 2002

@<TRIPOS>MOLECULE
3-41
   42    44     1     0     1
SMALL
USER_CHARGES
****
From 3DB ct
@<TRIPOS>ATOM
      1 C          26.420000   22.133000   16.466000 C.ar      1 <1>         0.516700 
      2 N          25.471000   21.480000   17.265000 N.pl3     1 <1>        -0.183100 
      3 C          26.193000   20.902000   18.294000 C.ar      1 <1>        -0.189200 
      4 H          25.724000   20.324000   19.079000 H         1 <1>         0.287300 
      5 C          27.512000   21.276000   18.144000 C.ar      1 <1>        -0.303200 
      6 N          27.632000   22.043000   17.000000 N.ar      1 <1>        -0.459100 
      7 C          28.683000   20.947000   19.023000 C.3       1 <1>         1.535100 
      8 F          28.322000   20.275000   20.155000 F         1 <1>        -0.484400 
      9 F          29.351000   22.063000   19.438000 F         1 <1>        -0.444700 
     10 F          29.601000   20.162000   18.387000 F         1 <1>        -0.448900 
     11 C          24.049000   21.392000   17.120000 C.ar      1 <1>         0.243200 
     12 C          23.340000   22.267000   16.284000 C.ar      1 <1>        -0.205000 
     13 H          23.825000   23.071000   15.739000 H         1 <1>         0.154900 
     14 C          21.948000   22.171000   16.166000 C.ar      1 <1>         0.008900 
     15 H          21.420000   22.863000   15.513000 H         1 <1>         0.193900 
     16 C          21.253000   21.207000   16.897000 C.ar      1 <1>        -0.530200 
     17 C          21.941000   20.329000   17.734000 C.ar      1 <1>        -0.021200 
     18 H          21.410000   19.565000   18.300000 H         1 <1>         0.198300 
     19 C          23.332000   20.428000   17.851000 C.ar      1 <1>        -0.216400 
     20 H          23.831000   19.709000   18.498000 H         1 <1>         0.185700 
     21 S          19.487000   21.070000   16.737000 S.o2      1 <1>         2.190200 
     22 O          18.951000   22.415000   16.549000 O.2       1 <1>        -0.966100 
     23 O          18.993000   20.277000   17.859000 O.2       1 <1>        -0.962300 
     24 C          19.269000   20.145000   15.241000 C.3       1 <1>        -0.730500 
     25 H          18.197000   20.019000   15.074000 H         1 <1>         0.243000 
     26 H          19.744000   19.168000   15.353000 H         1 <1>         0.193200 
     27 H          19.711000   20.699000   14.411000 H         1 <1>         0.190900 
     28 C          26.186000   22.736000   15.147000 C.ar      1 <1>        -0.414300 
     29 C          26.435000   24.105000   14.909000 C.ar      1 <1>         0.619500 
     30 C          26.223000   24.626000   13.627000 C.ar      1 <1>        -0.421700 
     31 H          26.386000   25.676000   13.398000 H         1 <1>         0.199500 
     32 C          25.782000   23.800000   12.589000 C.ar      1 <1>         0.006100 
     33 H          25.620000   24.218000   11.596000 H         1 <1>         0.150600 
     34 C          25.549000   22.448000   12.818000 C.ar      1 <1>        -0.308300 
     35 H          25.211000   21.807000   12.006000 H         1 <1>         0.179300 
     36 C          25.754000   21.916000   14.089000 C.ar      1 <1>         0.048100 
     37 H          25.579000   20.853000   14.252000 H         1 <1>         0.146900 
     38 O          26.846000   24.849000   15.987000 O.3       1 <1>        -0.447900 
     39 C          27.069000   26.241000   15.776000 C.3       1 <1>         0.036800 
     40 H          27.457000   26.660000   16.709000 H         1 <1>         0.107600 
     41 H          26.132000   26.757000   15.543000 H         1 <1>         0.048400 
     42 H          27.821000   26.408000   14.998000 H         1 <1>         0.052400 
@<TRIPOS>BOND
     1    1    2 ar   
     2    2    3 ar   
     3    3    4 1    
     4    3    5 ar   
     5    5    6 ar   
     6    6    1 ar   
     7    5    7 1    
     8    7    8 1    
     9    7    9 1    
    10    7   10 1    
    11    2   11 1    
    12   11   12 ar   
    13   12   13 1    
    14   12   14 ar   
    15   14   15 1    
    16   14   16 ar   
    17   16   17 ar   
    18   17   18 1    
    19   17   19 ar   
    20   19   20 1    
    21   19   11 ar   
    22   16   21 1    
    23   21   22 2    
    24   21   23 2    
    25   21   24 1    
    26   24   25 1    
    27   24   26 1    
    28   24   27 1    
    29    1   28 1    
    30   28   29 ar   
    31   29   30 ar   
    32   30   31 1    
    33   30   32 ar   
    34   32   33 1    
    35   32   34 ar   
    36   34   35 1    
    37   34   36 ar   
    38   36   37 1    
    39   36   28 ar   
    40   29   38 1    
    41   38   39 1    
    42   39   40 1    
    43   39   41 1    
    44   39   42 1    
@<TRIPOS>SUBSTRUCTURE
     1 ****        1 TEMP              0 ****  ****    0 ROOT 
@<TRIPOS>SET
UNITY_3DHIT     STATIC     ATOMS    <user>   **** Atoms matching 3D or FLEX Search
0
