#	Name:			3-42
#	Creating user name:	jeff
#	Creation time:		Fri Dec 13 09:45:34 2002

#	Modifying user name:	jeff
#	Modification time:	Fri Dec 13 09:45:36 2002

@<TRIPOS>MOLECULE
3-42
   37    39     1     0     1
SMALL
USER_CHARGES
****
From 3DB ct
@<TRIPOS>ATOM
      1 C          26.413000   22.131000   16.462000 C.ar      1 <1>         0.615400 
      2 N          25.472000   21.470000   17.262000 N.pl3     1 <1>        -0.297700 
      3 C          26.200000   20.894000   18.288000 C.ar      1 <1>        -0.179900 
      4 H          25.737000   20.300000   19.065000 H         1 <1>         0.290500 
      5 C          27.510000   21.303000   18.151000 C.ar      1 <1>        -0.290600 
      6 N          27.619000   22.083000   17.014000 N.ar      1 <1>        -0.472800 
      7 C          28.681000   21.000000   19.040000 C.3       1 <1>         1.534000 
      8 F          28.366000   20.151000   20.061000 F         1 <1>        -0.483900 
      9 F          29.194000   22.124000   19.621000 F         1 <1>        -0.442600 
     10 F          29.710000   20.415000   18.360000 F         1 <1>        -0.444700 
     11 C          24.050000   21.384000   17.124000 C.ar      1 <1>         0.447600 
     12 C          23.345000   22.265000   16.292000 C.ar      1 <1>        -0.379600 
     13 H          23.832000   23.069000   15.749000 H         1 <1>         0.210500 
     14 C          21.952000   22.172000   16.176000 C.ar      1 <1>         0.133700 
     15 H          21.420000   22.866000   15.529000 H         1 <1>         0.184900 
     16 C          21.255000   21.206000   16.905000 C.ar      1 <1>        -0.656000 
     17 C          21.942000   20.328000   17.744000 C.ar      1 <1>         0.084600 
     18 H          21.410000   19.568000   18.312000 H         1 <1>         0.191900 
     19 C          23.334000   20.424000   17.859000 C.ar      1 <1>        -0.325800 
     20 H          23.833000   19.707000   18.508000 H         1 <1>         0.207000 
     21 S          19.497000   21.082000   16.727000 S.o2      1 <1>         2.460900 
     22 O          18.946000   22.393000   16.431000 O.2       1 <1>        -0.991900 
     23 O          18.967000   20.289000   17.822000 O.2       1 <1>        -0.986800 
     24 N          19.348000   20.168000   15.331000 N.pl3     1 <1>        -1.301200 
     25 H          18.874000   20.696000   14.594000 H         1 <1>         0.484800 
     26 H          18.872000   19.282000   15.520000 H         1 <1>         0.484900 
     27 C          26.179000   22.711000   15.138000 C.ar      1 <1>        -0.471300 
     28 C          26.430000   24.067000   14.902000 C.ar      1 <1>         0.650800 
     29 C          26.233000   24.629000   13.642000 C.ar      1 <1>        -0.400000 
     30 H          26.426000   25.687000   13.486000 H         1 <1>         0.225600 
     31 C          25.788000   23.830000   12.590000 C.ar      1 <1>         0.016600 
     32 H          25.633000   24.263000   11.604000 H         1 <1>         0.155500 
     33 C          25.548000   22.472000   12.803000 C.ar      1 <1>        -0.297000 
     34 H          25.207000   21.845000   11.980000 H         1 <1>         0.183400 
     35 C          25.747000   21.913000   14.068000 C.ar      1 <1>         0.083900 
     36 H          25.564000   20.848000   14.210000 H         1 <1>         0.133700 
     37 F          26.849000   24.864000   15.898000 F         1 <1>        -0.358200 
@<TRIPOS>BOND
     1    1    2 ar   
     2    2    3 ar   
     3    3    4 1    
     4    3    5 ar   
     5    5    6 ar   
     6    6    1 ar   
     7    5    7 1    
     8    7    8 1    
     9    7    9 1    
    10    7   10 1    
    11    2   11 1    
    12   11   12 ar   
    13   12   13 1    
    14   12   14 ar   
    15   14   15 1    
    16   14   16 ar   
    17   16   17 ar   
    18   17   18 1    
    19   17   19 ar   
    20   19   20 1    
    21   19   11 ar   
    22   16   21 1    
    23   21   22 2    
    24   21   23 2    
    25   21   24 1    
    26   24   25 1    
    27   24   26 1    
    28    1   27 1    
    29   27   28 ar   
    30   28   29 ar   
    31   29   30 1    
    32   29   31 ar   
    33   31   32 1    
    34   31   33 ar   
    35   33   34 1    
    36   33   35 ar   
    37   35   36 1    
    38   35   27 ar   
    39   28   37 1    
@<TRIPOS>SUBSTRUCTURE
     1 ****        1 TEMP              0 ****  ****    0 ROOT 
@<TRIPOS>SET
UNITY_3DHIT     STATIC     ATOMS    <user>   **** Atoms matching 3D or FLEX Search
0
