#	Name:			3-43
#	Creating user name:	jeff
#	Creation time:		Fri Dec 13 09:45:36 2002

#	Modifying user name:	jeff
#	Modification time:	Fri Dec 13 09:45:38 2002

@<TRIPOS>MOLECULE
3-43
   40    42     1     0     1
SMALL
USER_CHARGES
****
From 3DB ct
@<TRIPOS>ATOM
      1 C          26.418000   22.130000   16.467000 C.ar      1 <1>         0.580100 
      2 N          25.474000   21.468000   17.263000 N.pl3     1 <1>        -0.271000 
      3 C          26.199000   20.887000   18.288000 C.ar      1 <1>        -0.191500 
      4 H          25.735000   20.295000   19.065000 H         1 <1>         0.288500 
      5 C          27.512000   21.288000   18.150000 C.ar      1 <1>        -0.304300 
      6 N          27.624000   22.069000   17.015000 N.ar      1 <1>        -0.478700 
      7 C          28.683000   20.975000   19.034000 C.3       1 <1>         1.553500 
      8 F          28.330000   20.273000   20.151000 F         1 <1>        -0.487600 
      9 F          29.316000   22.101000   19.475000 F         1 <1>        -0.447100 
     10 F          29.628000   20.226000   18.395000 F         1 <1>        -0.451600 
     11 C          24.051000   21.383000   17.121000 C.ar      1 <1>         0.444800 
     12 C          23.346000   22.263000   16.288000 C.ar      1 <1>        -0.378400 
     13 H          23.834000   23.065000   15.743000 H         1 <1>         0.216100 
     14 C          21.954000   22.172000   16.173000 C.ar      1 <1>         0.118700 
     15 H          21.424000   22.868000   15.525000 H         1 <1>         0.188800 
     16 C          21.255000   21.208000   16.901000 C.ar      1 <1>        -0.645300 
     17 C          21.941000   20.329000   17.739000 C.ar      1 <1>         0.078100 
     18 H          21.408000   19.569000   18.307000 H         1 <1>         0.193100 
     19 C          23.333000   20.422000   17.854000 C.ar      1 <1>        -0.336900 
     20 H          23.830000   19.703000   18.503000 H         1 <1>         0.212300 
     21 S          19.497000   21.086000   16.726000 S.o2      1 <1>         2.465800 
     22 O          18.947000   22.398000   16.431000 O.2       1 <1>        -0.994700 
     23 O          18.966000   20.294000   17.821000 O.2       1 <1>        -0.990200 
     24 N          19.346000   20.171000   15.331000 N.pl3     1 <1>        -1.298700 
     25 H          18.869000   20.698000   14.595000 H         1 <1>         0.483800 
     26 H          18.873000   19.284000   15.521000 H         1 <1>         0.483500 
     27 C          26.183000   22.735000   15.148000 C.ar      1 <1>        -0.329300 
     28 C          26.423000   24.105000   14.908000 C.ar      1 <1>         0.253600 
     29 C          26.214000   24.622000   13.619000 C.ar      1 <1>        -0.260100 
     30 H          26.396000   25.677000   13.412000 H         1 <1>         0.178400 
     31 C          25.771000   23.800000   12.582000 C.ar      1 <1>        -0.067100 
     32 H          25.611000   24.216000   11.589000 H         1 <1>         0.149700 
     33 C          25.540000   22.448000   12.816000 C.ar      1 <1>        -0.226500 
     34 H          25.201000   21.805000   12.006000 H         1 <1>         0.167000 
     35 C          25.750000   21.917000   14.089000 C.ar      1 <1>        -0.009200 
     36 H          25.576000   20.853000   14.249000 H         1 <1>         0.126200 
     37 C          26.910000   25.027000   15.995000 C.3       1 <1>        -0.306900 
     38 H          27.948000   24.794000   16.252000 H         1 <1>         0.123300 
     39 H          26.282000   24.938000   16.887000 H         1 <1>         0.080400 
     40 H          26.870000   26.074000   15.677000 H         1 <1>         0.089400 
@<TRIPOS>BOND
     1    1    2 ar   
     2    2    3 ar   
     3    3    4 1    
     4    3    5 ar   
     5    5    6 ar   
     6    6    1 ar   
     7    5    7 1    
     8    7    8 1    
     9    7    9 1    
    10    7   10 1    
    11    2   11 1    
    12   11   12 ar   
    13   12   13 1    
    14   12   14 ar   
    15   14   15 1    
    16   14   16 ar   
    17   16   17 ar   
    18   17   18 1    
    19   17   19 ar   
    20   19   20 1    
    21   19   11 ar   
    22   16   21 1    
    23   21   22 2    
    24   21   23 2    
    25   21   24 1    
    26   24   25 1    
    27   24   26 1    
    28    1   27 1    
    29   27   28 ar   
    30   28   29 ar   
    31   29   30 1    
    32   29   31 ar   
    33   31   32 1    
    34   31   33 ar   
    35   33   34 1    
    36   33   35 ar   
    37   35   36 1    
    38   35   27 ar   
    39   28   37 1    
    40   37   38 1    
    41   37   39 1    
    42   37   40 1    
@<TRIPOS>SUBSTRUCTURE
     1 ****        1 TEMP              0 ****  ****    0 ROOT 
@<TRIPOS>SET
UNITY_3DHIT     STATIC     ATOMS    <user>   **** Atoms matching 3D or FLEX Search
0
