#	Name:			3-44
#	Creating user name:	jeff
#	Creation time:		Fri Dec 13 09:45:38 2002

#	Modifying user name:	jeff
#	Modification time:	Fri Dec 13 09:45:40 2002

@<TRIPOS>MOLECULE
3-44
   42    44     1     0     1
SMALL
USER_CHARGES
****
From 3DB ct
@<TRIPOS>ATOM
      1 C          26.406000   22.131000   16.460000 C.ar      1 <1>         0.550500 
      2 N          25.469000   21.459000   17.256000 N.pl3     1 <1>        -0.266700 
      3 C          26.199000   20.883000   18.279000 C.ar      1 <1>        -0.166600 
      4 H          25.742000   20.273000   19.046000 H         1 <1>         0.287700 
      5 C          27.500000   21.326000   18.160000 C.ar      1 <1>        -0.314400 
      6 N          27.603000   22.119000   17.031000 N.ar      1 <1>        -0.460500 
      7 C          28.668000   21.047000   19.061000 C.3       1 <1>         1.537600 
      8 F          28.355000   20.206000   20.090000 F         1 <1>        -0.481700 
      9 F          29.164000   22.183000   19.632000 F         1 <1>        -0.443000 
     10 F          29.708000   20.464000   18.395000 F         1 <1>        -0.446800 
     11 C          24.048000   21.374000   17.121000 C.ar      1 <1>         0.387800 
     12 C          23.344000   22.259000   16.291000 C.ar      1 <1>        -0.334600 
     13 H          23.838000   23.060000   15.748000 H         1 <1>         0.208900 
     14 C          21.952000   22.172000   16.178000 C.ar      1 <1>         0.043700 
     15 H          21.425000   22.869000   15.530000 H         1 <1>         0.193700 
     16 C          21.255000   21.209000   16.910000 C.ar      1 <1>        -0.546300 
     17 C          21.940000   20.326000   17.746000 C.ar      1 <1>         0.014800 
     18 H          21.407000   19.566000   18.314000 H         1 <1>         0.196900 
     19 C          23.332000   20.416000   17.858000 C.ar      1 <1>        -0.305300 
     20 H          23.832000   19.698000   18.505000 H         1 <1>         0.209100 
     21 S          19.489000   21.086000   16.749000 S.o2      1 <1>         2.193600 
     22 O          18.961000   22.431000   16.541000 O.2       1 <1>        -0.963800 
     23 O          18.989000   20.312000   17.881000 O.2       1 <1>        -0.961700 
     24 C          19.266000   20.145000   15.262000 C.3       1 <1>        -0.728400 
     25 H          18.194000   20.027000   15.094000 H         1 <1>         0.243400 
     26 H          19.732000   19.166000   15.388000 H         1 <1>         0.194400 
     27 H          19.716000   20.686000   14.428000 H         1 <1>         0.193000 
     28 C          26.180000   22.708000   15.130000 C.ar      1 <1>        -0.262000 
     29 C          26.440000   24.065000   14.910000 C.ar      1 <1>        -0.274400 
     30 H          26.787000   24.701000   15.720000 H         1 <1>         0.263900 
     31 C          26.253000   24.623000   13.645000 C.ar      1 <1>         0.383500 
     32 C          25.818000   23.845000   12.569000 C.ar      1 <1>         0.320300 
     33 C          25.578000   22.485000   12.785000 C.ar      1 <1>        -0.421700 
     34 H          25.247000   21.852000   11.963000 H         1 <1>         0.233500 
     35 C          25.764000   21.918000   14.051000 C.ar      1 <1>         0.064800 
     36 H          25.583000   20.851000   14.181000 H         1 <1>         0.128300 
     37 O          25.593000   24.257000   11.283000 O.3       1 <1>        -0.389700 
     38 C          25.817000   25.634000   10.992000 C.3       1 <1>         0.053000 
     39 H          25.578000   25.792000    9.935000 H         1 <1>         0.088500 
     40 H          26.869000   25.900000   11.137000 H         1 <1>         0.073900 
     41 H          25.153000   26.275000   11.581000 H         1 <1>         0.067100 
     42 F          26.512000   25.932000   13.503000 F         1 <1>        -0.364700 
@<TRIPOS>BOND
     1    1    2 ar   
     2    2    3 ar   
     3    3    4 1    
     4    3    5 ar   
     5    5    6 ar   
     6    6    1 ar   
     7    5    7 1    
     8    7    8 1    
     9    7    9 1    
    10    7   10 1    
    11    2   11 1    
    12   11   12 ar   
    13   12   13 1    
    14   12   14 ar   
    15   14   15 1    
    16   14   16 ar   
    17   16   17 ar   
    18   17   18 1    
    19   17   19 ar   
    20   19   20 1    
    21   19   11 ar   
    22   16   21 1    
    23   21   22 2    
    24   21   23 2    
    25   21   24 1    
    26   24   25 1    
    27   24   26 1    
    28   24   27 1    
    29    1   28 1    
    30   28   29 ar   
    31   29   30 1    
    32   29   31 ar   
    33   31   32 ar   
    34   32   33 ar   
    35   33   34 1    
    36   33   35 ar   
    37   35   36 1    
    38   35   28 ar   
    39   32   37 1    
    40   37   38 1    
    41   38   39 1    
    42   38   40 1    
    43   38   41 1    
    44   31   42 1    
@<TRIPOS>SUBSTRUCTURE
     1 ****        1 TEMP              0 ****  ****    0 ROOT 
@<TRIPOS>SET
UNITY_3DHIT     STATIC     ATOMS    <user>   **** Atoms matching 3D or FLEX Search
0
