#	Name:			3-46
#	Creating user name:	jeff
#	Creation time:		Fri Dec 13 09:45:43 2002

#	Modifying user name:	jeff
#	Modification time:	Fri Dec 13 09:45:45 2002

@<TRIPOS>MOLECULE
3-46
   42    44     1     0     1
SMALL
USER_CHARGES
****
From 3DB ct
@<TRIPOS>ATOM
      1 C          26.406000   22.131000   16.460000 C.ar      1 <1>         0.421100 
      2 N          25.469000   21.459000   17.255000 N.pl3     1 <1>        -0.222000 
      3 C          26.199000   20.883000   18.279000 C.ar      1 <1>        -0.211200 
      4 H          25.741000   20.273000   19.046000 H         1 <1>         0.295400 
      5 C          27.500000   21.328000   18.162000 C.ar      1 <1>        -0.241700 
      6 N          27.602000   22.120000   17.032000 N.ar      1 <1>        -0.466400 
      7 C          28.667000   21.050000   19.063000 C.3       1 <1>         1.515000 
      8 F          28.345000   20.238000   20.112000 F         1 <1>        -0.479300 
      9 F          29.185000   22.190000   19.607000 F         1 <1>        -0.438700 
     10 F          29.694000   20.436000   18.405000 F         1 <1>        -0.446700 
     11 C          24.048000   21.373000   17.120000 C.ar      1 <1>         0.416600 
     12 C          23.343000   22.258000   16.291000 C.ar      1 <1>        -0.404100 
     13 H          23.836000   23.059000   15.748000 H         1 <1>         0.227200 
     14 C          21.951000   22.170000   16.179000 C.ar      1 <1>         0.071100 
     15 H          21.423000   22.868000   15.531000 H         1 <1>         0.183600 
     16 C          21.254000   21.207000   16.911000 C.ar      1 <1>        -0.544300 
     17 C          21.940000   20.324000   17.745000 C.ar      1 <1>         0.038500 
     18 H          21.407000   19.564000   18.314000 H         1 <1>         0.192100 
     19 C          23.332000   20.414000   17.857000 C.ar      1 <1>        -0.311900 
     20 H          23.832000   19.696000   18.503000 H         1 <1>         0.206300 
     21 S          19.487000   21.087000   16.752000 S.o2      1 <1>         2.164800 
     22 O          18.961000   22.433000   16.543000 O.2       1 <1>        -0.952300 
     23 O          18.988000   20.314000   17.885000 O.2       1 <1>        -0.952800 
     24 C          19.261000   20.145000   15.266000 C.3       1 <1>        -0.728700 
     25 H          18.188000   20.031000   15.098000 H         1 <1>         0.248700 
     26 H          19.723000   19.165000   15.392000 H         1 <1>         0.193500 
     27 H          19.713000   20.684000   14.432000 H         1 <1>         0.190500 
     28 C          26.181000   22.707000   15.130000 C.ar      1 <1>        -0.148700 
     29 C          26.439000   24.065000   14.909000 C.ar      1 <1>         0.134400 
     30 H          26.783000   24.687000   15.735000 H         1 <1>         0.131000 
     31 C          26.256000   24.631000   13.642000 C.ar      1 <1>        -0.478100 
     32 C          25.826000   23.838000   12.565000 C.ar      1 <1>         0.303800 
     33 C          25.580000   22.476000   12.786000 C.ar      1 <1>        -0.335200 
     34 H          25.248000   21.833000   11.972000 H         1 <1>         0.198700 
     35 C          25.765000   21.914000   14.053000 C.ar      1 <1>         0.020000 
     36 H          25.583000   20.848000   14.186000 H         1 <1>         0.122800 
     37 S          25.559000   24.468000   10.909000 S.3       1 <1>        -0.121200 
     38 C          25.026000   22.924000   10.119000 C.3       1 <1>        -0.199300 
     39 H          24.809000   23.117000    9.065000 H         1 <1>         0.145300 
     40 H          24.119000   22.543000   10.597000 H         1 <1>         0.072000 
     41 H          25.812000   22.167000   10.179000 H         1 <1>         0.068700 
     42 Cl         26.581000   26.323000   13.473000 Cl        1 <1>         0.121500 
@<TRIPOS>BOND
     1    1    2 ar   
     2    2    3 ar   
     3    3    4 1    
     4    3    5 ar   
     5    5    6 ar   
     6    6    1 ar   
     7    5    7 1    
     8    7    8 1    
     9    7    9 1    
    10    7   10 1    
    11    2   11 1    
    12   11   12 ar   
    13   12   13 1    
    14   12   14 ar   
    15   14   15 1    
    16   14   16 ar   
    17   16   17 ar   
    18   17   18 1    
    19   17   19 ar   
    20   19   20 1    
    21   19   11 ar   
    22   16   21 1    
    23   21   22 2    
    24   21   23 2    
    25   21   24 1    
    26   24   25 1    
    27   24   26 1    
    28   24   27 1    
    29    1   28 1    
    30   28   29 ar   
    31   29   30 1    
    32   29   31 ar   
    33   31   32 ar   
    34   32   33 ar   
    35   33   34 1    
    36   33   35 ar   
    37   35   36 1    
    38   35   28 ar   
    39   32   37 1    
    40   37   38 1    
    41   38   39 1    
    42   38   40 1    
    43   38   41 1    
    44   31   42 1    
@<TRIPOS>SUBSTRUCTURE
     1 ****        1 TEMP              0 ****  ****    0 ROOT 
@<TRIPOS>SET
UNITY_3DHIT     STATIC     ATOMS    <user>   **** Atoms matching 3D or FLEX Search
0
