#	Name:			3-47
#	Creating user name:	jeff
#	Creation time:		Fri Dec 13 09:45:45 2002

#	Modifying user name:	jeff
#	Modification time:	Fri Dec 13 09:45:47 2002

@<TRIPOS>MOLECULE
3-47
   46    48     1     0     1
SMALL
USER_CHARGES
****
From 3DB ct
@<TRIPOS>ATOM
      1 C          26.406000   22.130000   16.460000 C.ar      1 <1>         0.490900 
      2 N          25.469000   21.459000   17.256000 N.pl3     1 <1>        -0.257100 
      3 C          26.199000   20.882000   18.280000 C.ar      1 <1>        -0.189400 
      4 H          25.742000   20.273000   19.047000 H         1 <1>         0.288000 
      5 C          27.501000   21.322000   18.159000 C.ar      1 <1>        -0.267100 
      6 N          27.604000   22.116000   17.030000 N.ar      1 <1>        -0.473200 
      7 C          28.670000   21.039000   19.058000 C.3       1 <1>         1.514900 
      8 F          28.361000   20.183000   20.076000 F         1 <1>        -0.479200 
      9 F          29.158000   22.171000   19.644000 F         1 <1>        -0.436100 
     10 F          29.715000   20.472000   18.386000 F         1 <1>        -0.446700 
     11 C          24.048000   21.375000   17.122000 C.ar      1 <1>         0.445200 
     12 C          23.343000   22.259000   16.292000 C.ar      1 <1>        -0.442400 
     13 H          23.836000   23.060000   15.749000 H         1 <1>         0.251500 
     14 C          21.951000   22.171000   16.180000 C.ar      1 <1>         0.100900 
     15 H          21.424000   22.868000   15.531000 H         1 <1>         0.181300 
     16 C          21.254000   21.208000   16.911000 C.ar      1 <1>        -0.556700 
     17 C          21.939000   20.326000   17.747000 C.ar      1 <1>         0.019300 
     18 H          21.407000   19.566000   18.315000 H         1 <1>         0.193600 
     19 C          23.331000   20.416000   17.859000 C.ar      1 <1>        -0.322700 
     20 H          23.831000   19.698000   18.506000 H         1 <1>         0.212500 
     21 S          19.488000   21.085000   16.747000 S.o2      1 <1>         2.183800 
     22 O          18.961000   22.429000   16.532000 O.2       1 <1>        -0.961500 
     23 O          18.987000   20.317000   17.883000 O.2       1 <1>        -0.958800 
     24 C          19.266000   20.137000   15.266000 C.3       1 <1>        -0.722300 
     25 H          18.193000   20.022000   15.095000 H         1 <1>         0.242700 
     26 H          19.728000   19.157000   15.397000 H         1 <1>         0.193600 
     27 H          19.720000   20.672000   14.430000 H         1 <1>         0.188100 
     28 C          26.180000   22.709000   15.131000 C.ar      1 <1>        -0.265500 
     29 C          26.442000   24.064000   14.909000 C.ar      1 <1>         0.242700 
     30 H          26.797000   24.685000   15.729000 H         1 <1>         0.119500 
     31 C          26.253000   24.626000   13.640000 C.ar      1 <1>        -0.769400 
     32 C          25.809000   23.848000   12.547000 C.ar      1 <1>         1.061500 
     33 C          25.577000   22.483000   12.785000 C.ar      1 <1>        -0.597100 
     34 H          25.227000   21.832000   11.986000 H         1 <1>         0.247000 
     35 C          25.765000   21.919000   14.054000 C.ar      1 <1>         0.063700 
     36 H          25.581000   20.854000   14.185000 H         1 <1>         0.125000 
     37 N          25.591000   24.403000   11.280000 N.pl3     1 <1>        -0.842400 
     38 C          26.450000   23.976000   10.175000 C.3       1 <1>         0.002500 
     39 H          26.370000   24.685000    9.344000 H         1 <1>         0.116300 
     40 H          26.161000   22.987000    9.803000 H         1 <1>         0.048800 
     41 H          27.502000   23.952000   10.481000 H         1 <1>         0.056600 
     42 C          24.186000   24.653000   10.944000 C.3       1 <1>         0.096600 
     43 H          24.118000   25.276000   10.046000 H         1 <1>         0.092700 
     44 H          23.654000   25.177000   11.744000 H         1 <1>         0.034500 
     45 H          23.666000   23.709000   10.744000 H         1 <1>         0.016500 
     46 Cl         26.646000   26.306000   13.453000 Cl        1 <1>         0.157300 
@<TRIPOS>BOND
     1    1    2 ar   
     2    2    3 ar   
     3    3    4 1    
     4    3    5 ar   
     5    5    6 ar   
     6    6    1 ar   
     7    5    7 1    
     8    7    8 1    
     9    7    9 1    
    10    7   10 1    
    11    2   11 1    
    12   11   12 ar   
    13   12   13 1    
    14   12   14 ar   
    15   14   15 1    
    16   14   16 ar   
    17   16   17 ar   
    18   17   18 1    
    19   17   19 ar   
    20   19   20 1    
    21   19   11 ar   
    22   16   21 1    
    23   21   22 2    
    24   21   23 2    
    25   21   24 1    
    26   24   25 1    
    27   24   26 1    
    28   24   27 1    
    29    1   28 1    
    30   28   29 ar   
    31   29   30 1    
    32   29   31 ar   
    33   31   32 ar   
    34   32   33 ar   
    35   33   34 1    
    36   33   35 ar   
    37   35   36 1    
    38   35   28 ar   
    39   32   37 1    
    40   37   38 1    
    41   38   39 1    
    42   38   40 1    
    43   38   41 1    
    44   37   42 1    
    45   42   43 1    
    46   42   44 1    
    47   42   45 1    
    48   31   46 1    
@<TRIPOS>SUBSTRUCTURE
     1 ****        1 TEMP              0 ****  ****    0 ROOT 
@<TRIPOS>SET
UNITY_3DHIT     STATIC     ATOMS    <user>   **** Atoms matching 3D or FLEX Search
0
