#	Name:			3-49
#	Creating user name:	jeff
#	Creation time:		Fri Dec 13 09:45:50 2002

#	Modifying user name:	jeff
#	Modification time:	Fri Dec 13 09:45:52 2002

@<TRIPOS>MOLECULE
3-49
   43    45     1     0     1
SMALL
USER_CHARGES
****
From 3DB ct
@<TRIPOS>ATOM
      1 C          26.405000   22.131000   16.460000 C.ar      1 <1>         0.416500 
      2 N          25.468000   21.459000   17.254000 N.pl3     1 <1>        -0.184500 
      3 C          26.197000   20.884000   18.280000 C.ar      1 <1>        -0.224100 
      4 H          25.739000   20.275000   19.047000 H         1 <1>         0.289200 
      5 C          27.498000   21.326000   18.162000 C.ar      1 <1>        -0.241900 
      6 N          27.602000   22.118000   17.032000 N.ar      1 <1>        -0.469300 
      7 C          28.666000   21.046000   19.063000 C.3       1 <1>         1.494100 
      8 F          28.350000   20.209000   20.094000 F         1 <1>        -0.474800 
      9 F          29.164000   22.182000   19.631000 F         1 <1>        -0.435600 
     10 F          29.704000   20.459000   18.399000 F         1 <1>        -0.442200 
     11 C          24.047000   21.372000   17.119000 C.ar      1 <1>         0.396500 
     12 C          23.341000   22.257000   16.291000 C.ar      1 <1>        -0.400700 
     13 H          23.833000   23.058000   15.747000 H         1 <1>         0.234600 
     14 C          21.948000   22.169000   16.180000 C.ar      1 <1>         0.079300 
     15 H          21.420000   22.866000   15.532000 H         1 <1>         0.182600 
     16 C          21.253000   21.206000   16.913000 C.ar      1 <1>        -0.553700 
     17 C          21.939000   20.323000   17.747000 C.ar      1 <1>         0.019400 
     18 H          21.408000   19.563000   18.316000 H         1 <1>         0.194900 
     19 C          23.331000   20.413000   17.856000 C.ar      1 <1>        -0.310500 
     20 H          23.832000   19.694000   18.502000 H         1 <1>         0.208800 
     21 S          19.486000   21.086000   16.755000 S.o2      1 <1>         2.189900 
     22 O          18.959000   22.432000   16.547000 O.2       1 <1>        -0.964200 
     23 O          18.988000   20.314000   17.889000 O.2       1 <1>        -0.961300 
     24 C          19.258000   20.145000   15.270000 C.3       1 <1>        -0.728200 
     25 H          18.185000   20.031000   15.102000 H         1 <1>         0.242400 
     26 H          19.721000   19.164000   15.395000 H         1 <1>         0.193400 
     27 H          19.710000   20.684000   14.435000 H         1 <1>         0.191300 
     28 C          26.182000   22.710000   15.130000 C.ar      1 <1>        -0.290300 
     29 C          26.442000   24.066000   14.911000 C.ar      1 <1>         0.328600 
     30 H          26.786000   24.691000   15.733000 H         1 <1>         0.114700 
     31 C          26.259000   24.623000   13.640000 C.ar      1 <1>        -0.868500 
     32 C          25.822000   23.849000   12.544000 C.ar      1 <1>         0.936000 
     33 C          25.588000   22.488000   12.780000 C.ar      1 <1>        -0.562900 
     34 H          25.261000   21.830000   11.977000 H         1 <1>         0.217800 
     35 C          25.771000   21.922000   14.050000 C.ar      1 <1>         0.097100 
     36 H          25.590000   20.856000   14.178000 H         1 <1>         0.125900 
     37 N          25.647000   24.423000   11.296000 N.pl3     1 <1>        -0.897400 
     38 H          25.833000   25.423000   11.204000 H         1 <1>         0.459100 
     39 C          25.199000   23.720000   10.113000 C.3       1 <1>         0.097800 
     40 H          25.149000   24.417000    9.271000 H         1 <1>         0.090800 
     41 H          24.199000   23.300000   10.260000 H         1 <1>         0.041400 
     42 H          25.895000   22.920000    9.843000 H         1 <1>         0.048100 
     43 Cl         26.588000   26.316000   13.447000 Cl        1 <1>         0.119700 
@<TRIPOS>BOND
     1    1    2 ar   
     2    2    3 ar   
     3    3    4 1    
     4    3    5 ar   
     5    5    6 ar   
     6    6    1 ar   
     7    5    7 1    
     8    7    8 1    
     9    7    9 1    
    10    7   10 1    
    11    2   11 1    
    12   11   12 ar   
    13   12   13 1    
    14   12   14 ar   
    15   14   15 1    
    16   14   16 ar   
    17   16   17 ar   
    18   17   18 1    
    19   17   19 ar   
    20   19   20 1    
    21   19   11 ar   
    22   16   21 1    
    23   21   22 2    
    24   21   23 2    
    25   21   24 1    
    26   24   25 1    
    27   24   26 1    
    28   24   27 1    
    29    1   28 1    
    30   28   29 ar   
    31   29   30 1    
    32   29   31 ar   
    33   31   32 ar   
    34   32   33 ar   
    35   33   34 1    
    36   33   35 ar   
    37   35   36 1    
    38   35   28 ar   
    39   32   37 1    
    40   37   38 1    
    41   37   39 1    
    42   39   40 1    
    43   39   41 1    
    44   39   42 1    
    45   31   43 1    
@<TRIPOS>SUBSTRUCTURE
     1 ****        1 TEMP              0 ****  ****    0 ROOT 
@<TRIPOS>SET
UNITY_3DHIT     STATIC     ATOMS    <user>   **** Atoms matching 3D or FLEX Search
0
