#	Name:			3-5
#	Creating user name:	jeff
#	Creation time:		Fri Dec 13 09:44:16 2002

#	Modifying user name:	jeff
#	Modification time:	Fri Dec 13 09:44:18 2002

@<TRIPOS>MOLECULE
3-5
   38    40     1     0     1
SMALL
USER_CHARGES
****
From 3DB ct
@<TRIPOS>ATOM
      1 C          26.409000   22.130000   16.460000 C.ar      1 <1>         0.102600 
      2 N          25.469000   21.461000   17.256000 N.pl3     1 <1>        -0.129300 
      3 C          26.199000   20.889000   18.282000 C.ar      1 <1>        -0.523200 
      4 H          25.742000   20.284000   19.053000 H         1 <1>         0.319100 
      5 C          27.493000   21.330000   18.148000 C.ar      1 <1>         0.429200 
      6 N          27.607000   22.111000   17.031000 N.ar      1 <1>        -0.543300 
      7 C          28.661000   21.069000   19.018000 C.3       1 <1>        -0.385600 
      8 H          28.949000   21.982000   19.547000 H         1 <1>         0.126800 
      9 H          29.513000   20.732000   18.420000 H         1 <1>         0.130700 
     10 H          28.439000   20.297000   19.761000 H         1 <1>         0.093100 
     11 C          24.047000   21.375000   17.120000 C.ar      1 <1>         0.454500 
     12 C          23.342000   22.259000   16.291000 C.ar      1 <1>        -0.428800 
     13 H          23.835000   23.061000   15.747000 H         1 <1>         0.232900 
     14 C          21.950000   22.171000   16.178000 C.ar      1 <1>         0.069900 
     15 H          21.422000   22.868000   15.529000 H         1 <1>         0.185700 
     16 C          21.254000   21.208000   16.910000 C.ar      1 <1>        -0.557600 
     17 C          21.939000   20.326000   17.745000 C.ar      1 <1>         0.025000 
     18 H          21.407000   19.565000   18.313000 H         1 <1>         0.191100 
     19 C          23.331000   20.416000   17.857000 C.ar      1 <1>        -0.337800 
     20 H          23.832000   19.698000   18.504000 H         1 <1>         0.211600 
     21 S          19.487000   21.084000   16.749000 S.o2      1 <1>         2.187400 
     22 O          18.959000   22.429000   16.544000 O.2       1 <1>        -0.965800 
     23 O          18.988000   20.307000   17.880000 O.2       1 <1>        -0.965300 
     24 C          19.264000   20.146000   15.261000 C.3       1 <1>        -0.729700 
     25 H          18.192000   20.027000   15.093000 H         1 <1>         0.241700 
     26 H          19.731000   19.167000   15.384000 H         1 <1>         0.194000 
     27 H          19.713000   20.689000   14.428000 H         1 <1>         0.191300 
     28 C          26.183000   22.707000   15.130000 C.ar      1 <1>         0.371500 
     29 C          26.443000   24.068000   14.909000 C.ar      1 <1>        -0.418000 
     30 H          26.793000   24.698000   15.725000 H         1 <1>         0.238900 
     31 C          26.253000   24.632000   13.643000 C.ar      1 <1>         0.309300 
     32 H          26.452000   25.690000   13.492000 H         1 <1>         0.069900 
     33 C          25.814000   23.834000   12.589000 C.ar      1 <1>        -0.668400 
     34 C          25.570000   22.476000   12.787000 C.ar      1 <1>         0.253300 
     35 H          25.236000   21.848000   11.965000 H         1 <1>         0.079200 
     36 C          25.761000   21.913000   14.053000 C.ar      1 <1>        -0.361600 
     37 H          25.579000   20.848000   14.188000 H         1 <1>         0.174800 
     38 Cl         25.579000   24.527000   11.031000 Cl        1 <1>         0.130900 
@<TRIPOS>BOND
     1    1    2 ar   
     2    2    3 ar   
     3    3    4 1    
     4    3    5 ar   
     5    5    6 ar   
     6    6    1 ar   
     7    5    7 1    
     8    7    8 1    
     9    7    9 1    
    10    7   10 1    
    11    2   11 1    
    12   11   12 ar   
    13   12   13 1    
    14   12   14 ar   
    15   14   15 1    
    16   14   16 ar   
    17   16   17 ar   
    18   17   18 1    
    19   17   19 ar   
    20   19   20 1    
    21   19   11 ar   
    22   16   21 1    
    23   21   22 2    
    24   21   23 2    
    25   21   24 1    
    26   24   25 1    
    27   24   26 1    
    28   24   27 1    
    29    1   28 1    
    30   28   29 ar   
    31   29   30 1    
    32   29   31 ar   
    33   31   32 1    
    34   31   33 ar   
    35   33   34 ar   
    36   34   35 1    
    37   34   36 ar   
    38   36   37 1    
    39   36   28 ar   
    40   33   38 1    
@<TRIPOS>SUBSTRUCTURE
     1 ****        1 TEMP              0 ****  ****    0 ROOT 
@<TRIPOS>SET
UNITY_3DHIT     STATIC     ATOMS    <user>   **** Atoms matching 3D or FLEX Search
0
