#	Name:			3-50
#	Creating user name:	jeff
#	Creation time:		Fri Dec 13 09:45:53 2002

#	Modifying user name:	jeff
#	Modification time:	Fri Dec 13 09:45:55 2002

@<TRIPOS>MOLECULE
3-50
   41    43     1     0     1
SMALL
USER_CHARGES
****
From 3DB ct
@<TRIPOS>ATOM
      1 C          26.407000   22.130000   16.459000 C.ar      1 <1>         0.407600 
      2 N          25.469000   21.459000   17.256000 N.pl3     1 <1>        -0.207100 
      3 C          26.198000   20.885000   18.281000 C.ar      1 <1>        -0.208100 
      4 H          25.740000   20.277000   19.049000 H         1 <1>         0.291400 
      5 C          27.500000   21.326000   18.162000 C.ar      1 <1>        -0.248100 
      6 N          27.604000   22.117000   17.031000 N.ar      1 <1>        -0.457700 
      7 C          28.668000   21.047000   19.062000 C.3       1 <1>         1.495100 
      8 F          28.351000   20.215000   20.098000 F         1 <1>        -0.473700 
      9 F          29.171000   22.184000   19.625000 F         1 <1>        -0.433500 
     10 F          29.703000   20.454000   18.399000 F         1 <1>        -0.441900 
     11 C          24.048000   21.374000   17.120000 C.ar      1 <1>         0.418300 
     12 C          23.344000   22.258000   16.291000 C.ar      1 <1>        -0.424300 
     13 H          23.837000   23.059000   15.747000 H         1 <1>         0.245200 
     14 C          21.951000   22.171000   16.178000 C.ar      1 <1>         0.086600 
     15 H          21.424000   22.869000   15.530000 H         1 <1>         0.182500 
     16 C          21.255000   21.208000   16.910000 C.ar      1 <1>        -0.552200 
     17 C          21.940000   20.325000   17.745000 C.ar      1 <1>         0.025600 
     18 H          21.407000   19.565000   18.313000 H         1 <1>         0.194500 
     19 C          23.332000   20.415000   17.857000 C.ar      1 <1>        -0.321100 
     20 H          23.831000   19.697000   18.504000 H         1 <1>         0.211600 
     21 S          19.488000   21.086000   16.750000 S.o2      1 <1>         2.183000 
     22 O          18.960000   22.431000   16.545000 O.2       1 <1>        -0.960200 
     23 O          18.989000   20.310000   17.881000 O.2       1 <1>        -0.958200 
     24 C          19.264000   20.147000   15.263000 C.3       1 <1>        -0.728300 
     25 H          18.191000   20.029000   15.095000 H         1 <1>         0.244700 
     26 H          19.730000   19.168000   15.386000 H         1 <1>         0.194300 
     27 H          19.713000   20.689000   14.429000 H         1 <1>         0.192000 
     28 C          26.181000   22.707000   15.130000 C.ar      1 <1>        -0.181800 
     29 C          26.442000   24.065000   14.909000 C.ar      1 <1>         0.197000 
     30 H          26.790000   24.686000   15.733000 H         1 <1>         0.121300 
     31 C          26.254000   24.628000   13.643000 C.ar      1 <1>        -0.650800 
     32 C          25.813000   23.843000   12.568000 C.ar      1 <1>         0.548500 
     33 C          25.575000   22.478000   12.787000 C.ar      1 <1>        -0.432500 
     34 H          25.243000   21.837000   11.972000 H         1 <1>         0.208300 
     35 C          25.764000   21.915000   14.053000 C.ar      1 <1>         0.041000 
     36 H          25.583000   20.849000   14.186000 H         1 <1>         0.123300 
     37 C          25.602000   24.417000   11.195000 C.3       1 <1>        -0.402200 
     38 H          24.855000   25.217000   11.226000 H         1 <1>         0.101400 
     39 H          25.238000   23.658000   10.494000 H         1 <1>         0.113700 
     40 H          26.543000   24.808000   10.796000 H         1 <1>         0.112300 
     41 Cl         26.585000   26.314000   13.452000 Cl        1 <1>         0.142200 
@<TRIPOS>BOND
     1    1    2 ar   
     2    2    3 ar   
     3    3    4 1    
     4    3    5 ar   
     5    5    6 ar   
     6    6    1 ar   
     7    5    7 1    
     8    7    8 1    
     9    7    9 1    
    10    7   10 1    
    11    2   11 1    
    12   11   12 ar   
    13   12   13 1    
    14   12   14 ar   
    15   14   15 1    
    16   14   16 ar   
    17   16   17 ar   
    18   17   18 1    
    19   17   19 ar   
    20   19   20 1    
    21   19   11 ar   
    22   16   21 1    
    23   21   22 2    
    24   21   23 2    
    25   21   24 1    
    26   24   25 1    
    27   24   26 1    
    28   24   27 1    
    29    1   28 1    
    30   28   29 ar   
    31   29   30 1    
    32   29   31 ar   
    33   31   32 ar   
    34   32   33 ar   
    35   33   34 1    
    36   33   35 ar   
    37   35   36 1    
    38   35   28 ar   
    39   32   37 1    
    40   37   38 1    
    41   37   39 1    
    42   37   40 1    
    43   31   41 1    
@<TRIPOS>SUBSTRUCTURE
     1 ****        1 TEMP              0 ****  ****    0 ROOT 
@<TRIPOS>SET
UNITY_3DHIT     STATIC     ATOMS    <user>   **** Atoms matching 3D or FLEX Search
0
