#	Name:			3-52
#	Creating user name:	jeff
#	Creation time:		Fri Dec 13 09:45:57 2002

#	Modifying user name:	jeff
#	Modification time:	Fri Dec 13 09:45:59 2002

@<TRIPOS>MOLECULE
3-52
   41    43     1     0     1
SMALL
USER_CHARGES
****
From 3DB ct
@<TRIPOS>ATOM
      1 C          26.408000   22.129000   16.460000 C.ar      1 <1>         0.532500 
      2 N          25.470000   21.460000   17.257000 N.pl3     1 <1>        -0.250700 
      3 C          26.199000   20.887000   18.284000 C.ar      1 <1>        -0.175500 
      4 H          25.740000   20.282000   19.054000 H         1 <1>         0.288300 
      5 C          27.501000   21.327000   18.163000 C.ar      1 <1>        -0.299600 
      6 N          27.605000   22.114000   17.030000 N.ar      1 <1>        -0.471000 
      7 C          28.669000   21.048000   19.064000 C.3       1 <1>         1.535600 
      8 F          28.356000   20.205000   20.091000 F         1 <1>        -0.482300 
      9 F          29.162000   22.184000   19.637000 F         1 <1>        -0.443800 
     10 F          29.710000   20.469000   18.398000 F         1 <1>        -0.446400 
     11 C          24.049000   21.374000   17.121000 C.ar      1 <1>         0.370600 
     12 C          23.345000   22.258000   16.291000 C.ar      1 <1>        -0.327500 
     13 H          23.838000   23.060000   15.748000 H         1 <1>         0.204600 
     14 C          21.952000   22.171000   16.177000 C.ar      1 <1>         0.043100 
     15 H          21.426000   22.868000   15.528000 H         1 <1>         0.192700 
     16 C          21.256000   21.208000   16.908000 C.ar      1 <1>        -0.542700 
     17 C          21.940000   20.325000   17.744000 C.ar      1 <1>         0.008500 
     18 H          21.407000   19.565000   18.311000 H         1 <1>         0.198300 
     19 C          23.332000   20.415000   17.856000 C.ar      1 <1>        -0.294700 
     20 H          23.831000   19.696000   18.503000 H         1 <1>         0.207900 
     21 S          19.489000   21.087000   16.748000 S.o2      1 <1>         2.194100 
     22 O          18.963000   22.432000   16.536000 O.2       1 <1>        -0.964000 
     23 O          18.988000   20.317000   17.883000 O.2       1 <1>        -0.962000 
     24 C          19.265000   20.141000   15.265000 C.3       1 <1>        -0.724300 
     25 H          18.192000   20.024000   15.097000 H         1 <1>         0.242600 
     26 H          19.730000   19.162000   15.393000 H         1 <1>         0.193100 
     27 H          19.715000   20.679000   14.429000 H         1 <1>         0.191000 
     28 C          26.180000   22.704000   15.130000 C.ar      1 <1>        -0.252000 
     29 C          26.437000   24.068000   14.909000 C.ar      1 <1>        -0.124600 
     30 H          26.779000   24.689000   15.737000 H         1 <1>         0.217400 
     31 C          26.253000   24.640000   13.642000 C.ar      1 <1>        -0.011600 
     32 C          25.799000   23.828000   12.600000 C.ar      1 <1>         0.511200 
     33 C          25.560000   22.471000   12.794000 C.ar      1 <1>        -0.436500 
     34 H          25.220000   21.858000   11.964000 H         1 <1>         0.241600 
     35 C          25.758000   21.907000   14.055000 C.ar      1 <1>         0.015500 
     36 H          25.579000   20.842000   14.191000 H         1 <1>         0.142500 
     37 F          25.594000   24.354000   11.384000 F         1 <1>        -0.340100 
     38 C          26.485000   26.104000   13.419000 C.3       1 <1>        -0.315200 
     39 H          26.939000   26.280000   12.439000 H         1 <1>         0.115700 
     40 H          27.168000   26.514000   14.171000 H         1 <1>         0.107800 
     41 H          25.536000   26.646000   13.477000 H         1 <1>         0.109600 
@<TRIPOS>BOND
     1    1    2 ar   
     2    2    3 ar   
     3    3    4 1    
     4    3    5 ar   
     5    5    6 ar   
     6    6    1 ar   
     7    5    7 1    
     8    7    8 1    
     9    7    9 1    
    10    7   10 1    
    11    2   11 1    
    12   11   12 ar   
    13   12   13 1    
    14   12   14 ar   
    15   14   15 1    
    16   14   16 ar   
    17   16   17 ar   
    18   17   18 1    
    19   17   19 ar   
    20   19   20 1    
    21   19   11 ar   
    22   16   21 1    
    23   21   22 2    
    24   21   23 2    
    25   21   24 1    
    26   24   25 1    
    27   24   26 1    
    28   24   27 1    
    29    1   28 1    
    30   28   29 ar   
    31   29   30 1    
    32   29   31 ar   
    33   31   32 ar   
    34   32   33 ar   
    35   33   34 1    
    36   33   35 ar   
    37   35   36 1    
    38   35   28 ar   
    39   32   37 1    
    40   31   38 1    
    41   38   39 1    
    42   38   40 1    
    43   38   41 1    
@<TRIPOS>SUBSTRUCTURE
     1 ****        1 TEMP              0 ****  ****    0 ROOT 
@<TRIPOS>SET
UNITY_3DHIT     STATIC     ATOMS    <user>   **** Atoms matching 3D or FLEX Search
0
