#	Name:			3-54
#	Creating user name:	jeff
#	Creation time:		Fri Dec 13 09:46:02 2002

#	Modifying user name:	jeff
#	Modification time:	Fri Dec 13 09:46:04 2002

@<TRIPOS>MOLECULE
3-54
   42    44     1     0     1
SMALL
USER_CHARGES
****
From 3DB ct
@<TRIPOS>ATOM
      1 C          26.407000   22.127000   16.458000 C.ar      1 <1>         0.404900 
      2 N          25.470000   21.461000   17.258000 N.pl3     1 <1>        -0.193200 
      3 C          26.200000   20.889000   18.284000 C.ar      1 <1>        -0.194300 
      4 H          25.742000   20.286000   19.056000 H         1 <1>         0.288800 
      5 C          27.503000   21.325000   18.159000 C.ar      1 <1>        -0.270700 
      6 N          27.606000   22.112000   17.026000 N.ar      1 <1>        -0.468200 
      7 C          28.672000   21.044000   19.058000 C.3       1 <1>         1.517700 
      8 F          28.360000   20.201000   20.085000 F         1 <1>        -0.477800 
      9 F          29.169000   22.179000   19.631000 F         1 <1>        -0.439800 
     10 F          29.711000   20.463000   18.389000 F         1 <1>        -0.444300 
     11 C          24.049000   21.376000   17.123000 C.ar      1 <1>         0.361500 
     12 C          23.344000   22.260000   16.293000 C.ar      1 <1>        -0.345700 
     13 H          23.837000   23.062000   15.751000 H         1 <1>         0.208800 
     14 C          21.952000   22.171000   16.179000 C.ar      1 <1>         0.048000 
     15 H          21.425000   22.867000   15.529000 H         1 <1>         0.193400 
     16 C          21.255000   21.207000   16.909000 C.ar      1 <1>        -0.544400 
     17 C          21.940000   20.326000   17.746000 C.ar      1 <1>         0.019100 
     18 H          21.408000   19.565000   18.314000 H         1 <1>         0.196200 
     19 C          23.332000   20.417000   17.860000 C.ar      1 <1>        -0.294300 
     20 H          23.832000   19.699000   18.507000 H         1 <1>         0.206900 
     21 S          19.489000   21.085000   16.744000 S.o2      1 <1>         2.181700 
     22 O          18.963000   22.427000   16.516000 O.2       1 <1>        -0.959800 
     23 O          18.986000   20.326000   17.884000 O.2       1 <1>        -0.957100 
     24 C          19.270000   20.126000   15.268000 C.3       1 <1>        -0.731800 
     25 H          18.198000   20.008000   15.097000 H         1 <1>         0.246000 
     26 H          19.733000   19.147000   15.408000 H         1 <1>         0.196500 
     27 H          19.725000   20.655000   14.429000 H         1 <1>         0.194200 
     28 C          26.179000   22.703000   15.127000 C.ar      1 <1>         0.169400 
     29 C          26.442000   24.067000   14.908000 C.ar      1 <1>        -0.595500 
     30 H          26.791000   24.658000   15.751000 H         1 <1>         0.251100 
     31 C          26.254000   24.642000   13.645000 C.ar      1 <1>         1.022100 
     32 C          25.811000   23.827000   12.590000 C.ar      1 <1>        -0.898600 
     33 C          25.567000   22.467000   12.793000 C.ar      1 <1>         0.332000 
     34 H          25.232000   21.836000   11.973000 H         1 <1>         0.085600 
     35 C          25.758000   21.905000   14.056000 C.ar      1 <1>        -0.373200 
     36 H          25.576000   20.840000   14.193000 H         1 <1>         0.171000 
     37 Cl         25.556000   24.468000   11.003000 Cl        1 <1>         0.185600 
     38 O          26.477000   25.964000   13.352000 O.3       1 <1>        -0.594600 
     39 C          26.909000   26.809000   14.416000 C.3       1 <1>         0.156400 
     40 H          27.028000   27.819000   14.011000 H         1 <1>         0.099000 
     41 H          27.882000   26.488000   14.802000 H         1 <1>         0.028200 
     42 H          26.159000   26.855000   15.211000 H         1 <1>         0.019300 
@<TRIPOS>BOND
     1    1    2 ar   
     2    2    3 ar   
     3    3    4 1    
     4    3    5 ar   
     5    5    6 ar   
     6    6    1 ar   
     7    5    7 1    
     8    7    8 1    
     9    7    9 1    
    10    7   10 1    
    11    2   11 1    
    12   11   12 ar   
    13   12   13 1    
    14   12   14 ar   
    15   14   15 1    
    16   14   16 ar   
    17   16   17 ar   
    18   17   18 1    
    19   17   19 ar   
    20   19   20 1    
    21   19   11 ar   
    22   16   21 1    
    23   21   22 2    
    24   21   23 2    
    25   21   24 1    
    26   24   25 1    
    27   24   26 1    
    28   24   27 1    
    29    1   28 1    
    30   28   29 ar   
    31   29   30 1    
    32   29   31 ar   
    33   31   32 ar   
    34   32   33 ar   
    35   33   34 1    
    36   33   35 ar   
    37   35   36 1    
    38   35   28 ar   
    39   32   37 1    
    40   31   38 1    
    41   38   39 1    
    42   39   40 1    
    43   39   41 1    
    44   39   42 1    
@<TRIPOS>SUBSTRUCTURE
     1 ****        1 TEMP              0 ****  ****    0 ROOT 
@<TRIPOS>SET
UNITY_3DHIT     STATIC     ATOMS    <user>   **** Atoms matching 3D or FLEX Search
0
