#	Name:			3-55
#	Creating user name:	jeff
#	Creation time:		Fri Dec 13 09:46:04 2002

#	Modifying user name:	jeff
#	Modification time:	Fri Dec 13 09:46:06 2002

@<TRIPOS>MOLECULE
3-55
   46    48     1     0     1
SMALL
USER_CHARGES
****
From 3DB ct
@<TRIPOS>ATOM
      1 C          26.407000   22.126000   16.459000 C.ar      1 <1>         0.456800 
      2 N          25.470000   21.460000   17.258000 N.pl3     1 <1>        -0.205000 
      3 C          26.198000   20.889000   18.285000 C.ar      1 <1>        -0.202600 
      4 H          25.739000   20.285000   19.056000 H         1 <1>         0.293100 
      5 C          27.501000   21.327000   18.163000 C.ar      1 <1>        -0.282000 
      6 N          27.605000   22.114000   17.029000 N.ar      1 <1>        -0.470000 
      7 C          28.668000   21.049000   19.065000 C.3       1 <1>         1.535900 
      8 F          28.377000   20.144000   20.045000 F         1 <1>        -0.482700 
      9 F          29.108000   22.174000   19.701000 F         1 <1>        -0.444700 
     10 F          29.740000   20.546000   18.386000 F         1 <1>        -0.447600 
     11 C          24.049000   21.375000   17.122000 C.ar      1 <1>         0.382100 
     12 C          23.345000   22.259000   16.292000 C.ar      1 <1>        -0.369500 
     13 H          23.838000   23.061000   15.749000 H         1 <1>         0.220500 
     14 C          21.952000   22.172000   16.178000 C.ar      1 <1>         0.055100 
     15 H          21.426000   22.869000   15.529000 H         1 <1>         0.189900 
     16 C          21.256000   21.208000   16.909000 C.ar      1 <1>        -0.547100 
     17 C          21.940000   20.326000   17.745000 C.ar      1 <1>         0.026800 
     18 H          21.407000   19.566000   18.313000 H         1 <1>         0.195300 
     19 C          23.332000   20.416000   17.859000 C.ar      1 <1>        -0.307800 
     20 H          23.831000   19.698000   18.506000 H         1 <1>         0.208400 
     21 S          19.489000   21.084000   16.746000 S.o2      1 <1>         2.183400 
     22 O          18.961000   22.429000   16.539000 O.2       1 <1>        -0.960600 
     23 O          18.989000   20.308000   17.877000 O.2       1 <1>        -0.959300 
     24 C          19.268000   20.144000   15.259000 C.3       1 <1>        -0.725600 
     25 H          18.196000   20.024000   15.090000 H         1 <1>         0.244000 
     26 H          19.736000   19.166000   15.384000 H         1 <1>         0.194400 
     27 H          19.718000   20.686000   14.426000 H         1 <1>         0.191100 
     28 C          26.181000   22.697000   15.126000 C.ar      1 <1>        -0.019500 
     29 C          26.442000   24.060000   14.900000 C.ar      1 <1>        -0.482300 
     30 H          26.775000   24.666000   15.742000 H         1 <1>         0.252000 
     31 C          26.257000   24.656000   13.639000 C.ar      1 <1>         1.034500 
     32 C          25.811000   23.823000   12.588000 C.ar      1 <1>        -0.747100 
     33 C          25.567000   22.461000   12.796000 C.ar      1 <1>         0.147200 
     34 H          25.239000   21.827000   11.975000 H         1 <1>         0.110000 
     35 C          25.756000   21.899000   14.058000 C.ar      1 <1>        -0.196500 
     36 H          25.575000   20.835000   14.195000 H         1 <1>         0.150200 
     37 Cl         25.608000   24.427000   10.975000 Cl        1 <1>         0.157100 
     38 N          26.491000   26.026000   13.450000 N.pl3     1 <1>        -0.861300 
     39 C          25.581000   26.916000   14.175000 C.3       1 <1>        -0.116000 
     40 H          25.691000   27.944000   13.813000 H         1 <1>         0.153800 
     41 H          25.808000   26.907000   15.248000 H         1 <1>         0.090700 
     42 H          24.531000   26.637000   14.043000 H         1 <1>         0.087400 
     43 C          27.873000   26.484000   13.318000 C.3       1 <1>         0.108100 
     44 H          27.893000   27.492000   12.890000 H         1 <1>         0.087100 
     45 H          28.441000   25.833000   12.643000 H         1 <1>         0.042100 
     46 H          28.377000   26.521000   14.290000 H         1 <1>         0.030300 
@<TRIPOS>BOND
     1    1    2 ar   
     2    2    3 ar   
     3    3    4 1    
     4    3    5 ar   
     5    5    6 ar   
     6    6    1 ar   
     7    5    7 1    
     8    7    8 1    
     9    7    9 1    
    10    7   10 1    
    11    2   11 1    
    12   11   12 ar   
    13   12   13 1    
    14   12   14 ar   
    15   14   15 1    
    16   14   16 ar   
    17   16   17 ar   
    18   17   18 1    
    19   17   19 ar   
    20   19   20 1    
    21   19   11 ar   
    22   16   21 1    
    23   21   22 2    
    24   21   23 2    
    25   21   24 1    
    26   24   25 1    
    27   24   26 1    
    28   24   27 1    
    29    1   28 1    
    30   28   29 ar   
    31   29   30 1    
    32   29   31 ar   
    33   31   32 ar   
    34   32   33 ar   
    35   33   34 1    
    36   33   35 ar   
    37   35   36 1    
    38   35   28 ar   
    39   32   37 1    
    40   31   38 1    
    41   38   39 1    
    42   39   40 1    
    43   39   41 1    
    44   39   42 1    
    45   38   43 1    
    46   43   44 1    
    47   43   45 1    
    48   43   46 1    
@<TRIPOS>SUBSTRUCTURE
     1 ****        1 TEMP              0 ****  ****    0 ROOT 
@<TRIPOS>SET
UNITY_3DHIT     STATIC     ATOMS    <user>   **** Atoms matching 3D or FLEX Search
0
