#	Name:			3-56
#	Creating user name:	jeff
#	Creation time:		Fri Dec 13 09:46:07 2002

#	Modifying user name:	jeff
#	Modification time:	Fri Dec 13 09:46:09 2002

@<TRIPOS>MOLECULE
3-56
   41    44     1     0     1
SMALL
USER_CHARGES
****
From 3DB ct
@<TRIPOS>ATOM
      1 C          26.409000   22.136000   16.461000 C.ar      1 <1>         0.527400 
      2 N          25.472000   21.461000   17.255000 N.pl3     1 <1>        -0.262200 
      3 C          26.202000   20.882000   18.277000 C.ar      1 <1>        -0.174700 
      4 H          25.744000   20.271000   19.043000 H         1 <1>         0.290200 
      5 C          27.504000   21.322000   18.157000 C.ar      1 <1>        -0.311000 
      6 N          27.607000   22.118000   17.030000 N.ar      1 <1>        -0.460700 
      7 C          28.673000   21.038000   19.055000 C.3       1 <1>         1.543900 
      8 F          28.365000   20.176000   20.068000 F         1 <1>        -0.484000 
      9 F          29.157000   22.169000   19.647000 F         1 <1>        -0.444300 
     10 F          29.720000   20.477000   18.382000 F         1 <1>        -0.448700 
     11 C          24.051000   21.377000   17.119000 C.ar      1 <1>         0.388400 
     12 C          23.347000   22.261000   16.290000 C.ar      1 <1>        -0.327800 
     13 H          23.840000   23.063000   15.747000 H         1 <1>         0.208700 
     14 C          21.954000   22.173000   16.176000 C.ar      1 <1>         0.039000 
     15 H          21.428000   22.871000   15.527000 H         1 <1>         0.192500 
     16 C          21.257000   21.210000   16.906000 C.ar      1 <1>        -0.544200 
     17 C          21.942000   20.328000   17.742000 C.ar      1 <1>         0.013600 
     18 H          21.409000   19.567000   18.310000 H         1 <1>         0.197800 
     19 C          23.334000   20.418000   17.855000 C.ar      1 <1>        -0.308800 
     20 H          23.833000   19.699000   18.503000 H         1 <1>         0.210000 
     21 S          19.491000   21.088000   16.744000 S.o2      1 <1>         2.193400 
     22 O          18.965000   22.432000   16.523000 O.2       1 <1>        -0.963800 
     23 O          18.989000   20.325000   17.881000 O.2       1 <1>        -0.962400 
     24 C          19.269000   20.136000   15.264000 C.3       1 <1>        -0.726300 
     25 H          18.197000   20.020000   15.094000 H         1 <1>         0.242500 
     26 H          19.732000   19.157000   15.399000 H         1 <1>         0.193700 
     27 H          19.723000   20.669000   14.427000 H         1 <1>         0.191700 
     28 C          26.181000   22.720000   15.134000 C.ar      1 <1>        -0.167400 
     29 C          26.443000   24.083000   14.925000 C.ar      1 <1>        -0.307300 
     30 H          26.791000   24.719000   15.734000 H         1 <1>         0.269900 
     31 C          26.241000   24.598000   13.661000 C.ar      1 <1>         0.277100 
     32 C          25.809000   23.814000   12.618000 C.ar      1 <1>         0.296000 
     33 C          25.559000   22.468000   12.777000 C.ar      1 <1>        -0.385700 
     34 H          25.227000   21.853000   11.947000 H         1 <1>         0.250600 
     35 C          25.755000   21.917000   14.049000 C.ar      1 <1>        -0.035400 
     36 H          25.577000   20.852000   14.191000 H         1 <1>         0.143500 
     37 O          25.676000   24.515000   11.461000 O.3       1 <1>        -0.403300 
     38 C          26.071000   25.839000   11.892000 C.3       1 <1>         0.224000 
     39 H          25.237000   26.528000   11.719000 H         1 <1>         0.113800 
     40 H          26.930000   26.162000   11.293000 H         1 <1>         0.114800 
     41 O          26.435000   25.892000   13.291000 O.3       1 <1>        -0.404600 
@<TRIPOS>BOND
     1    1    2 ar   
     2    2    3 ar   
     3    3    4 1    
     4    3    5 ar   
     5    5    6 ar   
     6    6    1 ar   
     7    5    7 1    
     8    7    8 1    
     9    7    9 1    
    10    7   10 1    
    11    2   11 1    
    12   11   12 ar   
    13   12   13 1    
    14   12   14 ar   
    15   14   15 1    
    16   14   16 ar   
    17   16   17 ar   
    18   17   18 1    
    19   17   19 ar   
    20   19   20 1    
    21   19   11 ar   
    22   16   21 1    
    23   21   22 2    
    24   21   23 2    
    25   21   24 1    
    26   24   25 1    
    27   24   26 1    
    28   24   27 1    
    29    1   28 1    
    30   28   29 ar   
    31   29   30 1    
    32   29   31 ar   
    33   31   32 ar   
    34   32   33 ar   
    35   33   34 1    
    36   33   35 ar   
    37   35   36 1    
    38   35   28 ar   
    39   32   37 1    
    40   37   38 1    
    41   38   39 1    
    42   38   40 1    
    43   38   41 1    
    44   41   31 1    
@<TRIPOS>SUBSTRUCTURE
     1 ****        1 TEMP              0 ****  ****    0 ROOT 
@<TRIPOS>SET
UNITY_3DHIT     STATIC     ATOMS    <user>   **** Atoms matching 3D or FLEX Search
0
