#	Name:			3-57
#	Creating user name:	jeff
#	Creation time:		Fri Dec 13 09:46:09 2002

#	Modifying user name:	jeff
#	Modification time:	Fri Dec 13 09:46:11 2002

@<TRIPOS>MOLECULE
3-57
   38    40     1     0     1
SMALL
USER_CHARGES
****
From 3DB ct
@<TRIPOS>ATOM
      1 C          26.405000   22.133000   16.460000 C.ar      1 <1>         0.522400 
      2 N          25.469000   21.459000   17.255000 N.pl3     1 <1>        -0.265400 
      3 C          26.199000   20.882000   18.278000 C.ar      1 <1>        -0.158200 
      4 H          25.742000   20.271000   19.044000 H         1 <1>         0.288800 
      5 C          27.500000   21.326000   18.159000 C.ar      1 <1>        -0.303300 
      6 N          27.602000   22.120000   17.030000 N.ar      1 <1>        -0.461800 
      7 C          28.669000   21.045000   19.058000 C.3       1 <1>         1.532700 
      8 F          28.357000   20.205000   20.087000 F         1 <1>        -0.480500 
      9 F          29.167000   22.181000   19.629000 F         1 <1>        -0.441200 
     10 F          29.708000   20.462000   18.391000 F         1 <1>        -0.444400 
     11 C          24.048000   21.374000   17.121000 C.ar      1 <1>         0.376200 
     12 C          23.343000   22.259000   16.291000 C.ar      1 <1>        -0.327200 
     13 H          23.837000   23.061000   15.749000 H         1 <1>         0.199500 
     14 C          21.951000   22.172000   16.179000 C.ar      1 <1>         0.050000 
     15 H          21.424000   22.869000   15.531000 H         1 <1>         0.193500 
     16 C          21.255000   21.209000   16.910000 C.ar      1 <1>        -0.547700 
     17 C          21.940000   20.326000   17.746000 C.ar      1 <1>         0.014000 
     18 H          21.407000   19.566000   18.314000 H         1 <1>         0.197800 
     19 C          23.332000   20.416000   17.858000 C.ar      1 <1>        -0.299100 
     20 H          23.832000   19.698000   18.505000 H         1 <1>         0.209200 
     21 S          19.488000   21.085000   16.751000 S.o2      1 <1>         2.191800 
     22 O          18.960000   22.430000   16.548000 O.2       1 <1>        -0.961000 
     23 O          18.989000   20.307000   17.881000 O.2       1 <1>        -0.959100 
     24 C          19.264000   20.148000   15.262000 C.3       1 <1>        -0.724500 
     25 H          18.192000   20.030000   15.094000 H         1 <1>         0.244400 
     26 H          19.730000   19.169000   15.384000 H         1 <1>         0.193600 
     27 H          19.713000   20.692000   14.429000 H         1 <1>         0.190700 
     28 C          26.180000   22.711000   15.130000 C.ar      1 <1>        -0.161600 
     29 C          26.440000   24.072000   14.914000 C.ar      1 <1>        -0.271700 
     30 H          26.783000   24.709000   15.726000 H         1 <1>         0.265800 
     31 C          26.256000   24.621000   13.649000 C.ar      1 <1>         0.364200 
     32 C          25.828000   23.829000   12.590000 C.ar      1 <1>         0.414100 
     33 C          25.583000   22.475000   12.780000 C.ar      1 <1>        -0.377100 
     34 H          25.257000   21.859000   11.947000 H         1 <1>         0.252200 
     35 C          25.766000   21.914000   14.048000 C.ar      1 <1>        -0.041600 
     36 H          25.587000   20.848000   14.182000 H         1 <1>         0.155400 
     37 F          25.655000   24.369000   11.375000 F         1 <1>        -0.316200 
     38 F          26.500000   25.925000   13.453000 F         1 <1>        -0.314600 
@<TRIPOS>BOND
     1    1    2 ar   
     2    2    3 ar   
     3    3    4 1    
     4    3    5 ar   
     5    5    6 ar   
     6    6    1 ar   
     7    5    7 1    
     8    7    8 1    
     9    7    9 1    
    10    7   10 1    
    11    2   11 1    
    12   11   12 ar   
    13   12   13 1    
    14   12   14 ar   
    15   14   15 1    
    16   14   16 ar   
    17   16   17 ar   
    18   17   18 1    
    19   17   19 ar   
    20   19   20 1    
    21   19   11 ar   
    22   16   21 1    
    23   21   22 2    
    24   21   23 2    
    25   21   24 1    
    26   24   25 1    
    27   24   26 1    
    28   24   27 1    
    29    1   28 1    
    30   28   29 ar   
    31   29   30 1    
    32   29   31 ar   
    33   31   32 ar   
    34   32   33 ar   
    35   33   34 1    
    36   33   35 ar   
    37   35   36 1    
    38   35   28 ar   
    39   32   37 1    
    40   31   38 1    
@<TRIPOS>SUBSTRUCTURE
     1 ****        1 TEMP              0 ****  ****    0 ROOT 
@<TRIPOS>SET
UNITY_3DHIT     STATIC     ATOMS    <user>   **** Atoms matching 3D or FLEX Search
0
