#	Name:			3-58
#	Creating user name:	jeff
#	Creation time:		Fri Dec 13 09:46:11 2002

#	Modifying user name:	jeff
#	Modification time:	Fri Dec 13 09:46:13 2002

@<TRIPOS>MOLECULE
3-58
   44    46     1     0     1
SMALL
USER_CHARGES
****
From 3DB ct
@<TRIPOS>ATOM
      1 C          26.409000   22.127000   16.459000 C.ar      1 <1>         0.524300 
      2 N          25.471000   21.459000   17.257000 N.pl3     1 <1>        -0.247200 
      3 C          26.198000   20.888000   18.285000 C.ar      1 <1>        -0.189400 
      4 H          25.739000   20.284000   19.055000 H         1 <1>         0.289100 
      5 C          27.501000   21.325000   18.164000 C.ar      1 <1>        -0.296000 
      6 N          27.607000   22.112000   17.031000 N.ar      1 <1>        -0.474500 
      7 C          28.668000   21.046000   19.066000 C.3       1 <1>         1.541200 
      8 F          28.357000   20.191000   20.084000 F         1 <1>        -0.484900 
      9 F          29.150000   22.180000   19.654000 F         1 <1>        -0.445900 
     10 F          29.716000   20.482000   18.399000 F         1 <1>        -0.448500 
     11 C          24.049000   21.374000   17.122000 C.ar      1 <1>         0.384800 
     12 C          23.345000   22.259000   16.292000 C.ar      1 <1>        -0.330900 
     13 H          23.838000   23.059000   15.748000 H         1 <1>         0.206800 
     14 C          21.952000   22.171000   16.178000 C.ar      1 <1>         0.045900 
     15 H          21.426000   22.868000   15.529000 H         1 <1>         0.190900 
     16 C          21.255000   21.208000   16.909000 C.ar      1 <1>        -0.549400 
     17 C          21.940000   20.326000   17.745000 C.ar      1 <1>         0.011500 
     18 H          21.407000   19.566000   18.313000 H         1 <1>         0.197300 
     19 C          23.332000   20.416000   17.858000 C.ar      1 <1>        -0.302800 
     20 H          23.831000   19.697000   18.505000 H         1 <1>         0.208300 
     21 S          19.489000   21.086000   16.744000 S.o2      1 <1>         2.196300 
     22 O          18.963000   22.430000   16.525000 O.2       1 <1>        -0.966200 
     23 O          18.987000   20.321000   17.881000 O.2       1 <1>        -0.963700 
     24 C          19.269000   20.135000   15.264000 C.3       1 <1>        -0.725700 
     25 H          18.196000   20.019000   15.093000 H         1 <1>         0.241300 
     26 H          19.731000   19.155000   15.399000 H         1 <1>         0.193300 
     27 H          19.723000   20.668000   14.428000 H         1 <1>         0.190700 
     28 C          26.182000   22.702000   15.129000 C.ar      1 <1>        -0.195200 
     29 C          26.442000   24.061000   14.904000 C.ar      1 <1>        -0.184200 
     30 H          26.796000   24.676000   15.732000 H         1 <1>         0.207200 
     31 C          26.250000   24.642000   13.638000 C.ar      1 <1>         0.095300 
     32 C          25.798000   23.839000   12.572000 C.ar      1 <1>         0.142100 
     33 C          25.561000   22.475000   12.795000 C.ar      1 <1>        -0.305100 
     34 H          25.222000   21.834000   11.981000 H         1 <1>         0.196500 
     35 C          25.757000   21.910000   14.057000 C.ar      1 <1>        -0.061100 
     36 H          25.574000   20.845000   14.192000 H         1 <1>         0.136500 
     37 C          25.576000   24.411000   11.197000 C.3       1 <1>        -0.308000 
     38 H          25.193000   23.654000   10.505000 H         1 <1>         0.094600 
     39 H          26.518000   24.789000   10.787000 H         1 <1>         0.104200 
     40 H          24.842000   25.222000   11.236000 H         1 <1>         0.098300 
     41 C          26.532000   26.109000   13.451000 C.3       1 <1>        -0.342800 
     42 H          27.301000   26.255000   12.687000 H         1 <1>         0.110500 
     43 H          26.895000   26.569000   14.376000 H         1 <1>         0.109400 
     44 H          25.619000   26.636000   13.157000 H         1 <1>         0.105100 
@<TRIPOS>BOND
     1    1    2 ar   
     2    2    3 ar   
     3    3    4 1    
     4    3    5 ar   
     5    5    6 ar   
     6    6    1 ar   
     7    5    7 1    
     8    7    8 1    
     9    7    9 1    
    10    7   10 1    
    11    2   11 1    
    12   11   12 ar   
    13   12   13 1    
    14   12   14 ar   
    15   14   15 1    
    16   14   16 ar   
    17   16   17 ar   
    18   17   18 1    
    19   17   19 ar   
    20   19   20 1    
    21   19   11 ar   
    22   16   21 1    
    23   21   22 2    
    24   21   23 2    
    25   21   24 1    
    26   24   25 1    
    27   24   26 1    
    28   24   27 1    
    29    1   28 1    
    30   28   29 ar   
    31   29   30 1    
    32   29   31 ar   
    33   31   32 ar   
    34   32   33 ar   
    35   33   34 1    
    36   33   35 ar   
    37   35   36 1    
    38   35   28 ar   
    39   32   37 1    
    40   37   38 1    
    41   37   39 1    
    42   37   40 1    
    43   31   41 1    
    44   41   42 1    
    45   41   43 1    
    46   41   44 1    
@<TRIPOS>SUBSTRUCTURE
     1 ****        1 TEMP              0 ****  ****    0 ROOT 
@<TRIPOS>SET
UNITY_3DHIT     STATIC     ATOMS    <user>   **** Atoms matching 3D or FLEX Search
0
