#	Name:			3-6
#	Creating user name:	jeff
#	Creation time:		Fri Dec 13 09:44:18 2002

#	Modifying user name:	jeff
#	Modification time:	Fri Dec 13 09:44:20 2002

@<TRIPOS>MOLECULE
3-6
   38    40     1     0     1
SMALL
USER_CHARGES
****
From 3DB ct
@<TRIPOS>ATOM
      1 C          26.408000   22.130000   16.460000 C.ar      1 <1>         0.278500 
      2 N          25.470000   21.460000   17.256000 N.pl3     1 <1>        -0.114100 
      3 C          26.198000   20.885000   18.282000 C.ar      1 <1>        -0.237600 
      4 H          25.740000   20.278000   19.050000 H         1 <1>         0.293600 
      5 C          27.501000   21.325000   18.162000 C.ar      1 <1>        -0.216400 
      6 N          27.605000   22.115000   17.031000 N.ar      1 <1>        -0.468900 
      7 C          28.668000   21.044000   19.062000 C.3       1 <1>         1.480300 
      8 F          28.353000   20.204000   20.092000 F         1 <1>        -0.471300 
      9 F          29.166000   22.179000   19.634000 F         1 <1>        -0.432700 
     10 F          29.707000   20.460000   18.397000 F         1 <1>        -0.437100 
     11 C          24.049000   21.375000   17.120000 C.ar      1 <1>         0.342800 
     12 C          23.344000   22.259000   16.291000 C.ar      1 <1>        -0.383400 
     13 H          23.838000   23.060000   15.747000 H         1 <1>         0.225400 
     14 C          21.952000   22.172000   16.178000 C.ar      1 <1>         0.069400 
     15 H          21.425000   22.869000   15.529000 H         1 <1>         0.187900 
     16 C          21.255000   21.209000   16.909000 C.ar      1 <1>        -0.537800 
     17 C          21.940000   20.326000   17.744000 C.ar      1 <1>         0.014000 
     18 H          21.407000   19.566000   18.312000 H         1 <1>         0.194400 
     19 C          23.332000   20.416000   17.857000 C.ar      1 <1>        -0.291200 
     20 H          23.831000   19.697000   18.504000 H         1 <1>         0.205600 
     21 S          19.488000   21.085000   16.748000 S.o2      1 <1>         2.175500 
     22 O          18.961000   22.431000   16.543000 O.2       1 <1>        -0.958800 
     23 O          18.989000   20.310000   17.880000 O.2       1 <1>        -0.956700 
     24 C          19.266000   20.146000   15.261000 C.3       1 <1>        -0.724600 
     25 H          18.193000   20.029000   15.092000 H         1 <1>         0.245200 
     26 H          19.731000   19.167000   15.386000 H         1 <1>         0.194900 
     27 H          19.716000   20.688000   14.428000 H         1 <1>         0.190300 
     28 C          26.181000   22.707000   15.130000 C.ar      1 <1>         0.217600 
     29 C          26.441000   24.067000   14.909000 C.ar      1 <1>        -0.365500 
     30 H          26.790000   24.699000   15.725000 H         1 <1>         0.227800 
     31 C          26.252000   24.631000   13.643000 C.ar      1 <1>         0.311700 
     32 H          26.451000   25.689000   13.492000 H         1 <1>         0.069900 
     33 C          25.815000   23.832000   12.588000 C.ar      1 <1>        -0.655400 
     34 C          25.571000   22.475000   12.787000 C.ar      1 <1>         0.232400 
     35 H          25.238000   21.846000   11.965000 H         1 <1>         0.084600 
     36 C          25.760000   21.912000   14.053000 C.ar      1 <1>        -0.289600 
     37 H          25.579000   20.847000   14.188000 H         1 <1>         0.158900 
     38 Cl         25.582000   24.524000   11.030000 Cl        1 <1>         0.140200 
@<TRIPOS>BOND
     1    1    2 ar   
     2    2    3 ar   
     3    3    4 1    
     4    3    5 ar   
     5    5    6 ar   
     6    6    1 ar   
     7    5    7 1    
     8    7    8 1    
     9    7    9 1    
    10    7   10 1    
    11    2   11 1    
    12   11   12 ar   
    13   12   13 1    
    14   12   14 ar   
    15   14   15 1    
    16   14   16 ar   
    17   16   17 ar   
    18   17   18 1    
    19   17   19 ar   
    20   19   20 1    
    21   19   11 ar   
    22   16   21 1    
    23   21   22 2    
    24   21   23 2    
    25   21   24 1    
    26   24   25 1    
    27   24   26 1    
    28   24   27 1    
    29    1   28 1    
    30   28   29 ar   
    31   29   30 1    
    32   29   31 ar   
    33   31   32 1    
    34   31   33 ar   
    35   33   34 ar   
    36   34   35 1    
    37   34   36 ar   
    38   36   37 1    
    39   36   28 ar   
    40   33   38 1    
@<TRIPOS>SUBSTRUCTURE
     1 ****        1 TEMP              0 ****  ****    0 ROOT 
@<TRIPOS>SET
UNITY_3DHIT     STATIC     ATOMS    <user>   **** Atoms matching 3D or FLEX Search
0
