#	Name:			3-61
#	Creating user name:	jeff
#	Creation time:		Fri Dec 13 09:46:18 2002

#	Modifying user name:	jeff
#	Modification time:	Fri Dec 13 09:46:20 2002

@<TRIPOS>MOLECULE
3-61
   42    44     1     0     1
SMALL
USER_CHARGES
****
From 3DB ct
@<TRIPOS>ATOM
      1 C          26.407000   22.128000   16.459000 C.ar      1 <1>         0.580000 
      2 N          25.470000   21.460000   17.259000 N.pl3     1 <1>        -0.303800 
      3 C          26.200000   20.887000   18.284000 C.ar      1 <1>        -0.142900 
      4 H          25.742000   20.283000   19.055000 H         1 <1>         0.284200 
      5 C          27.503000   21.325000   18.160000 C.ar      1 <1>        -0.317300 
      6 N          27.606000   22.112000   17.026000 N.ar      1 <1>        -0.478900 
      7 C          28.672000   21.047000   19.061000 C.3       1 <1>         1.543500 
      8 F          28.355000   20.218000   20.098000 F         1 <1>        -0.483400 
      9 F          29.176000   22.185000   19.621000 F         1 <1>        -0.444600 
     10 F          29.706000   20.452000   18.398000 F         1 <1>        -0.447400 
     11 C          24.049000   21.375000   17.124000 C.ar      1 <1>         0.403700 
     12 C          23.346000   22.260000   16.294000 C.ar      1 <1>        -0.341300 
     13 H          23.840000   23.063000   15.753000 H         1 <1>         0.201200 
     14 C          21.954000   22.172000   16.179000 C.ar      1 <1>         0.055200 
     15 H          21.427000   22.869000   15.530000 H         1 <1>         0.192100 
     16 C          21.257000   21.208000   16.909000 C.ar      1 <1>        -0.554000 
     17 C          21.940000   20.327000   17.746000 C.ar      1 <1>         0.020900 
     18 H          21.407000   19.567000   18.314000 H         1 <1>         0.198100 
     19 C          23.332000   20.417000   17.860000 C.ar      1 <1>        -0.306300 
     20 H          23.832000   19.699000   18.508000 H         1 <1>         0.210700 
     21 S          19.490000   21.085000   16.741000 S.o2      1 <1>         2.197200 
     22 O          18.963000   22.429000   16.524000 O.2       1 <1>        -0.966100 
     23 O          18.987000   20.318000   17.877000 O.2       1 <1>        -0.963000 
     24 C          19.272000   20.136000   15.260000 C.3       1 <1>        -0.729800 
     25 H          18.200000   20.021000   15.086000 H         1 <1>         0.244200 
     26 H          19.734000   19.156000   15.393000 H         1 <1>         0.195800 
     27 H          19.728000   20.670000   14.425000 H         1 <1>         0.196100 
     28 C          26.178000   22.703000   15.129000 C.ar      1 <1>        -0.063700 
     29 C          26.439000   24.064000   14.904000 C.ar      1 <1>        -0.342600 
     30 H          26.790000   24.687000   15.727000 H         1 <1>         0.198600 
     31 C          26.251000   24.639000   13.641000 C.ar      1 <1>         0.579100 
     32 C          25.811000   23.842000   12.588000 C.ar      1 <1>        -0.618400 
     33 H          25.648000   24.231000   11.589000 H         1 <1>         0.284900 
     34 C          25.574000   22.487000   12.806000 C.ar      1 <1>         0.669200 
     35 C          25.757000   21.910000   14.057000 C.ar      1 <1>        -0.436000 
     36 H          25.572000   20.846000   14.180000 H         1 <1>         0.219200 
     37 F          25.163000   21.722000   11.786000 F         1 <1>        -0.367000 
     38 O          26.532000   25.977000   13.573000 O.3       1 <1>        -0.443800 
     39 C          26.972000   26.603000   14.778000 C.3       1 <1>         0.090800 
     40 H          27.154000   27.659000   14.557000 H         1 <1>         0.091900 
     41 H          27.914000   26.167000   15.126000 H         1 <1>         0.050500 
     42 H          26.199000   26.551000   15.552000 H         1 <1>         0.043400 
@<TRIPOS>BOND
     1    1    2 ar   
     2    2    3 ar   
     3    3    4 1    
     4    3    5 ar   
     5    5    6 ar   
     6    6    1 ar   
     7    5    7 1    
     8    7    8 1    
     9    7    9 1    
    10    7   10 1    
    11    2   11 1    
    12   11   12 ar   
    13   12   13 1    
    14   12   14 ar   
    15   14   15 1    
    16   14   16 ar   
    17   16   17 ar   
    18   17   18 1    
    19   17   19 ar   
    20   19   20 1    
    21   19   11 ar   
    22   16   21 1    
    23   21   22 2    
    24   21   23 2    
    25   21   24 1    
    26   24   25 1    
    27   24   26 1    
    28   24   27 1    
    29    1   28 1    
    30   28   29 ar   
    31   29   30 1    
    32   29   31 ar   
    33   31   32 ar   
    34   32   33 1    
    35   32   34 ar   
    36   34   35 ar   
    37   35   36 1    
    38   35   28 ar   
    39   34   37 1    
    40   31   38 1    
    41   38   39 1    
    42   39   40 1    
    43   39   41 1    
    44   39   42 1    
@<TRIPOS>SUBSTRUCTURE
     1 ****        1 TEMP              0 ****  ****    0 ROOT 
@<TRIPOS>SET
UNITY_3DHIT     STATIC     ATOMS    <user>   **** Atoms matching 3D or FLEX Search
0
