#	Name:			3-64
#	Creating user name:	jeff
#	Creation time:		Fri Dec 13 09:46:25 2002

#	Modifying user name:	jeff
#	Modification time:	Fri Dec 13 09:46:27 2002

@<TRIPOS>MOLECULE
3-64
   41    43     1     0     1
SMALL
USER_CHARGES
****
From 3DB ct
@<TRIPOS>ATOM
      1 C          26.417000   22.131000   16.468000 C.ar      1 <1>         0.661400 
      2 N          25.474000   21.468000   17.265000 N.pl3     1 <1>        -0.339000 
      3 C          26.200000   20.887000   18.288000 C.ar      1 <1>        -0.133400 
      4 H          25.736000   20.294000   19.065000 H         1 <1>         0.286700 
      5 C          27.513000   21.287000   18.148000 C.ar      1 <1>        -0.357500 
      6 N          27.625000   22.068000   17.012000 N.ar      1 <1>        -0.463500 
      7 C          28.685000   20.974000   19.031000 C.3       1 <1>         1.568500 
      8 F          28.335000   20.267000   20.146000 F         1 <1>        -0.487900 
      9 F          29.315000   22.101000   19.476000 F         1 <1>        -0.448300 
     10 F          29.633000   20.231000   18.389000 F         1 <1>        -0.451500 
     11 C          24.052000   21.384000   17.123000 C.ar      1 <1>         0.420700 
     12 C          23.349000   22.265000   16.288000 C.ar      1 <1>        -0.351100 
     13 H          23.838000   23.068000   15.746000 H         1 <1>         0.207800 
     14 C          21.957000   22.174000   16.169000 C.ar      1 <1>         0.070000 
     15 H          21.432000   22.869000   15.517000 H         1 <1>         0.186100 
     16 C          21.258000   21.210000   16.897000 C.ar      1 <1>        -0.564000 
     17 C          21.941000   20.330000   17.736000 C.ar      1 <1>         0.028200 
     18 H          21.408000   19.568000   18.302000 H         1 <1>         0.195500 
     19 C          23.333000   20.423000   17.854000 C.ar      1 <1>        -0.310800 
     20 H          23.829000   19.705000   18.504000 H         1 <1>         0.208300 
     21 S          19.493000   21.084000   16.728000 S.o2      1 <1>         2.190700 
     22 O          18.966000   22.426000   16.498000 O.2       1 <1>        -0.963800 
     23 O          18.987000   20.326000   17.869000 O.2       1 <1>        -0.961000 
     24 C          19.278000   20.122000   15.255000 C.3       1 <1>        -0.726300 
     25 H          18.207000   20.001000   15.082000 H         1 <1>         0.243800 
     26 H          19.744000   19.145000   15.397000 H         1 <1>         0.195200 
     27 H          19.733000   20.650000   14.415000 H         1 <1>         0.194300 
     28 C          26.181000   22.733000   15.149000 C.ar      1 <1>        -0.328400 
     29 C          26.422000   24.105000   14.908000 C.ar      1 <1>         0.215300 
     30 C          26.214000   24.625000   13.618000 C.ar      1 <1>        -0.180800 
     31 H          26.396000   25.680000   13.411000 H         1 <1>         0.192200 
     32 C          25.772000   23.802000   12.583000 C.ar      1 <1>        -0.307100 
     33 H          25.610000   24.206000   11.588000 H         1 <1>         0.225300 
     34 C          25.546000   22.456000   12.829000 C.ar      1 <1>         0.480600 
     35 C          25.749000   21.914000   14.092000 C.ar      1 <1>        -0.242600 
     36 H          25.574000   20.852000   14.243000 H         1 <1>         0.200700 
     37 F          25.130000   21.664000   11.832000 F         1 <1>        -0.356500 
     38 C          26.910000   25.026000   15.995000 C.3       1 <1>        -0.274900 
     39 H          27.947000   24.791000   16.252000 H         1 <1>         0.116500 
     40 H          26.281000   24.939000   16.887000 H         1 <1>         0.078900 
     41 H          26.872000   26.074000   15.677000 H         1 <1>         0.081900 
@<TRIPOS>BOND
     1    1    2 ar   
     2    2    3 ar   
     3    3    4 1    
     4    3    5 ar   
     5    5    6 ar   
     6    6    1 ar   
     7    5    7 1    
     8    7    8 1    
     9    7    9 1    
    10    7   10 1    
    11    2   11 1    
    12   11   12 ar   
    13   12   13 1    
    14   12   14 ar   
    15   14   15 1    
    16   14   16 ar   
    17   16   17 ar   
    18   17   18 1    
    19   17   19 ar   
    20   19   20 1    
    21   19   11 ar   
    22   16   21 1    
    23   21   22 2    
    24   21   23 2    
    25   21   24 1    
    26   24   25 1    
    27   24   26 1    
    28   24   27 1    
    29    1   28 1    
    30   28   29 ar   
    31   29   30 ar   
    32   30   31 1    
    33   30   32 ar   
    34   32   33 1    
    35   32   34 ar   
    36   34   35 ar   
    37   35   36 1    
    38   35   28 ar   
    39   34   37 1    
    40   29   38 1    
    41   38   39 1    
    42   38   40 1    
    43   38   41 1    
@<TRIPOS>SUBSTRUCTURE
     1 ****        1 TEMP              0 ****  ****    0 ROOT 
@<TRIPOS>SET
UNITY_3DHIT     STATIC     ATOMS    <user>   **** Atoms matching 3D or FLEX Search
0
