#	Name:			3-65
#	Creating user name:	jeff
#	Creation time:		Fri Dec 13 09:46:27 2002

#	Modifying user name:	jeff
#	Modification time:	Fri Dec 13 09:46:29 2002

@<TRIPOS>MOLECULE
3-65
   41    43     1     0     1
SMALL
USER_CHARGES
****
From 3DB ct
@<TRIPOS>ATOM
      1 C          26.419000   22.114000   16.458000 C.ar      1 <1>         0.112200 
      2 N          25.470000   21.480000   17.271000 N.pl3     1 <1>         0.071600 
      3 C          26.193000   20.921000   18.311000 C.ar      1 <1>        -0.285300 
      4 H          25.726000   20.354000   19.104000 H         1 <1>         0.311400 
      5 C          27.510000   21.300000   18.157000 C.ar      1 <1>        -0.250900 
      6 N          27.628000   22.052000   17.002000 N.ar      1 <1>        -0.440900 
      7 C          28.681000   20.995000   19.044000 C.3       1 <1>         1.552800 
      8 F          28.332000   20.284000   20.156000 F         1 <1>        -0.486900 
      9 F          29.299000   22.127000   19.493000 F         1 <1>        -0.449200 
     10 F          29.638000   20.261000   18.406000 F         1 <1>        -0.453100 
     11 C          24.048000   21.394000   17.130000 C.ar      1 <1>         0.149200 
     12 C          23.340000   22.267000   16.292000 C.ar      1 <1>        -0.188700 
     13 H          23.821000   23.073000   15.748000 H         1 <1>         0.161700 
     14 C          21.948000   22.168000   16.172000 C.ar      1 <1>        -0.007700 
     15 H          21.419000   22.860000   15.518000 H         1 <1>         0.199200 
     16 C          21.254000   21.203000   16.901000 C.ar      1 <1>        -0.538700 
     17 C          21.941000   20.328000   17.741000 C.ar      1 <1>         0.016500 
     18 H          21.412000   19.564000   18.307000 H         1 <1>         0.192000 
     19 C          23.332000   20.429000   17.861000 C.ar      1 <1>        -0.238800 
     20 H          23.830000   19.713000   18.511000 H         1 <1>         0.196100 
     21 S          19.489000   21.067000   16.732000 S.o2      1 <1>         2.196800 
     22 O          18.953000   22.408000   16.520000 O.2       1 <1>        -0.963800 
     23 O          18.989000   20.291000   17.862000 O.2       1 <1>        -0.962500 
     24 C          19.280000   20.123000   15.245000 C.3       1 <1>        -0.762600 
     25 H          18.209000   19.998000   15.071000 H         1 <1>         0.253600 
     26 H          19.752000   19.147000   15.374000 H         1 <1>         0.205800 
     27 H          19.731000   20.666000   14.413000 H         1 <1>         0.199600 
     28 C          26.186000   22.710000   15.134000 C.ar      1 <1>         0.424300 
     29 C          26.444000   24.087000   14.922000 C.ar      1 <1>        -0.020000 
     30 C          26.238000   24.641000   13.647000 C.ar      1 <1>        -0.120700 
     31 H          26.431000   25.699000   13.467000 H         1 <1>         0.175700 
     32 C          25.783000   23.853000   12.591000 C.ar      1 <1>        -0.228300 
     33 H          25.626000   24.297000   11.609000 H         1 <1>         0.182600 
     34 C          25.539000   22.497000   12.790000 C.ar      1 <1>         0.162800 
     35 H          25.195000   21.890000   11.956000 H         1 <1>         0.096600 
     36 C          25.745000   21.924000   14.049000 C.ar      1 <1>        -0.635800 
     37 Cl         25.456000   20.221000   14.195000 Cl        1 <1>         0.130500 
     38 C          26.943000   24.980000   16.028000 C.3       1 <1>        -0.252800 
     39 H          27.965000   24.705000   16.305000 H         1 <1>         0.125000 
     40 H          26.292000   24.909000   16.905000 H         1 <1>         0.086200 
     41 H          26.953000   26.031000   15.719000 H         1 <1>         0.084500 
@<TRIPOS>BOND
     1    1    2 ar   
     2    2    3 ar   
     3    3    4 1    
     4    3    5 ar   
     5    5    6 ar   
     6    6    1 ar   
     7    5    7 1    
     8    7    8 1    
     9    7    9 1    
    10    7   10 1    
    11    2   11 1    
    12   11   12 ar   
    13   12   13 1    
    14   12   14 ar   
    15   14   15 1    
    16   14   16 ar   
    17   16   17 ar   
    18   17   18 1    
    19   17   19 ar   
    20   19   20 1    
    21   19   11 ar   
    22   16   21 1    
    23   21   22 2    
    24   21   23 2    
    25   21   24 1    
    26   24   25 1    
    27   24   26 1    
    28   24   27 1    
    29    1   28 1    
    30   28   29 ar   
    31   29   30 ar   
    32   30   31 1    
    33   30   32 ar   
    34   32   33 1    
    35   32   34 ar   
    36   34   35 1    
    37   34   36 ar   
    38   36   28 ar   
    39   36   37 1    
    40   29   38 1    
    41   38   39 1    
    42   38   40 1    
    43   38   41 1    
@<TRIPOS>SUBSTRUCTURE
     1 ****        1 TEMP              0 ****  ****    0 ROOT 
@<TRIPOS>SET
UNITY_3DHIT     STATIC     ATOMS    <user>   **** Atoms matching 3D or FLEX Search
0
