#	Name:			3-66
#	Creating user name:	jeff
#	Creation time:		Fri Dec 13 09:46:29 2002

#	Modifying user name:	jeff
#	Modification time:	Fri Dec 13 09:46:31 2002

@<TRIPOS>MOLECULE
3-66
   41    43     1     0     1
SMALL
USER_CHARGES
****
From 3DB ct
@<TRIPOS>ATOM
      1 C          26.405000   22.131000   16.460000 C.ar      1 <1>         0.578000 
      2 N          25.470000   21.459000   17.257000 N.pl3     1 <1>        -0.319500 
      3 C          26.201000   20.882000   18.279000 C.ar      1 <1>        -0.158700 
      4 H          25.744000   20.272000   19.047000 H         1 <1>         0.284000 
      5 C          27.502000   21.325000   18.159000 C.ar      1 <1>        -0.307500 
      6 N          27.603000   22.118000   17.029000 N.ar      1 <1>        -0.468100 
      7 C          28.671000   21.046000   19.058000 C.3       1 <1>         1.537600 
      8 F          28.360000   20.198000   20.083000 F         1 <1>        -0.482500 
      9 F          29.162000   22.180000   19.636000 F         1 <1>        -0.443800 
     10 F          29.713000   20.471000   18.389000 F         1 <1>        -0.446700 
     11 C          24.048000   21.373000   17.123000 C.ar      1 <1>         0.479100 
     12 C          23.344000   22.259000   16.294000 C.ar      1 <1>        -0.382700 
     13 H          23.837000   23.061000   15.752000 H         1 <1>         0.213600 
     14 C          21.952000   22.171000   16.183000 C.ar      1 <1>         0.117100 
     15 H          21.420000   22.869000   15.537000 H         1 <1>         0.192300 
     16 C          21.254000   21.207000   16.913000 C.ar      1 <1>        -0.653000 
     17 C          21.939000   20.326000   17.749000 C.ar      1 <1>         0.092600 
     18 H          21.406000   19.568000   18.319000 H         1 <1>         0.191600 
     19 C          23.332000   20.415000   17.861000 C.ar      1 <1>        -0.356000 
     20 H          23.832000   19.698000   18.508000 H         1 <1>         0.217400 
     21 S          19.495000   21.088000   16.740000 S.o2      1 <1>         2.464100 
     22 O          18.947000   22.401000   16.447000 O.2       1 <1>        -0.992000 
     23 O          18.965000   20.297000   17.836000 O.2       1 <1>        -0.988500 
     24 N          19.339000   20.175000   15.345000 N.pl3     1 <1>        -1.295600 
     25 H          18.862000   20.703000   14.609000 H         1 <1>         0.483600 
     26 H          18.865000   19.288000   15.534000 H         1 <1>         0.483600 
     27 C          26.178000   22.708000   15.130000 C.ar      1 <1>        -0.282200 
     28 C          26.438000   24.065000   14.909000 C.ar      1 <1>        -0.263900 
     29 H          26.785000   24.701000   15.720000 H         1 <1>         0.261000 
     30 C          26.251000   24.623000   13.644000 C.ar      1 <1>         0.373500 
     31 C          25.814000   23.845000   12.569000 C.ar      1 <1>         0.324600 
     32 C          25.575000   22.485000   12.786000 C.ar      1 <1>        -0.422200 
     33 H          25.243000   21.852000   11.964000 H         1 <1>         0.233100 
     34 C          25.762000   21.918000   14.052000 C.ar      1 <1>         0.076900 
     35 H          25.580000   20.851000   14.181000 H         1 <1>         0.130100 
     36 O          25.588000   24.256000   11.284000 O.3       1 <1>        -0.389400 
     37 C          25.803000   25.635000   10.993000 C.3       1 <1>         0.062300 
     38 H          25.568000   25.791000    9.936000 H         1 <1>         0.085200 
     39 H          26.852000   25.909000   11.143000 H         1 <1>         0.070500 
     40 H          25.132000   26.271000   11.579000 H         1 <1>         0.064600 
     41 F          26.509000   25.931000   13.502000 F         1 <1>        -0.364000 
@<TRIPOS>BOND
     1    1    2 ar   
     2    2    3 ar   
     3    3    4 1    
     4    3    5 ar   
     5    5    6 ar   
     6    6    1 ar   
     7    5    7 1    
     8    7    8 1    
     9    7    9 1    
    10    7   10 1    
    11    2   11 1    
    12   11   12 ar   
    13   12   13 1    
    14   12   14 ar   
    15   14   15 1    
    16   14   16 ar   
    17   16   17 ar   
    18   17   18 1    
    19   17   19 ar   
    20   19   20 1    
    21   19   11 ar   
    22   16   21 1    
    23   21   22 2    
    24   21   23 2    
    25   21   24 1    
    26   24   25 1    
    27   24   26 1    
    28    1   27 1    
    29   27   28 ar   
    30   28   29 1    
    31   28   30 ar   
    32   30   31 ar   
    33   31   32 ar   
    34   32   33 1    
    35   32   34 ar   
    36   34   35 1    
    37   34   27 ar   
    38   31   36 1    
    39   36   37 1    
    40   37   38 1    
    41   37   39 1    
    42   37   40 1    
    43   30   41 1    
@<TRIPOS>SUBSTRUCTURE
     1 ****        1 TEMP              0 ****  ****    0 ROOT 
@<TRIPOS>SET
UNITY_3DHIT     STATIC     ATOMS    <user>   **** Atoms matching 3D or FLEX Search
0
