#	Name:			3-69
#	Creating user name:	jeff
#	Creation time:		Fri Dec 13 09:46:36 2002

#	Modifying user name:	jeff
#	Modification time:	Fri Dec 13 09:46:38 2002

@<TRIPOS>MOLECULE
3-69
   41    43     1     0     1
SMALL
USER_CHARGES
****
From 3DB ct
@<TRIPOS>ATOM
      1 C          26.404000   22.131000   16.459000 C.ar      1 <1>         0.431500 
      2 N          25.468000   21.459000   17.256000 N.pl3     1 <1>        -0.281900 
      3 C          26.199000   20.884000   18.280000 C.ar      1 <1>        -0.185900 
      4 H          25.742000   20.275000   19.048000 H         1 <1>         0.287300 
      5 C          27.501000   21.324000   18.158000 C.ar      1 <1>        -0.244400 
      6 N          27.602000   22.117000   17.029000 N.ar      1 <1>        -0.465900 
      7 C          28.671000   21.041000   19.055000 C.3       1 <1>         1.493500 
      8 F          28.349000   20.230000   20.105000 F         1 <1>        -0.473700 
      9 F          29.195000   22.178000   19.597000 F         1 <1>        -0.431500 
     10 F          29.692000   20.422000   18.394000 F         1 <1>        -0.441700 
     11 C          24.047000   21.374000   17.122000 C.ar      1 <1>         0.516000 
     12 C          23.342000   22.258000   16.294000 C.ar      1 <1>        -0.452900 
     13 H          23.834000   23.061000   15.751000 H         1 <1>         0.234800 
     14 C          21.949000   22.170000   16.183000 C.ar      1 <1>         0.152900 
     15 H          21.417000   22.867000   15.538000 H         1 <1>         0.181800 
     16 C          21.252000   21.206000   16.914000 C.ar      1 <1>        -0.666000 
     17 C          21.939000   20.325000   17.750000 C.ar      1 <1>         0.124000 
     18 H          21.407000   19.566000   18.320000 H         1 <1>         0.182600 
     19 C          23.331000   20.415000   17.860000 C.ar      1 <1>        -0.371900 
     20 H          23.832000   19.697000   18.507000 H         1 <1>         0.215800 
     21 S          19.493000   21.086000   16.744000 S.o2      1 <1>         2.459800 
     22 O          18.944000   22.399000   16.452000 O.2       1 <1>        -0.985900 
     23 O          18.965000   20.295000   17.841000 O.2       1 <1>        -0.986800 
     24 N          19.336000   20.173000   15.349000 N.pl3     1 <1>        -1.308900 
     25 H          18.858000   20.701000   14.615000 H         1 <1>         0.486100 
     26 H          18.861000   19.286000   15.540000 H         1 <1>         0.490600 
     27 C          26.179000   22.707000   15.129000 C.ar      1 <1>        -0.131600 
     28 C          26.437000   24.066000   14.910000 C.ar      1 <1>         0.113100 
     29 H          26.779000   24.688000   15.736000 H         1 <1>         0.134400 
     30 C          26.257000   24.631000   13.641000 C.ar      1 <1>        -0.477100 
     31 C          25.829000   23.838000   12.564000 C.ar      1 <1>         0.321700 
     32 C          25.583000   22.476000   12.784000 C.ar      1 <1>        -0.343300 
     33 H          25.253000   21.832000   11.971000 H         1 <1>         0.198800 
     34 C          25.766000   21.914000   14.052000 C.ar      1 <1>         0.019900 
     35 H          25.584000   20.848000   14.185000 H         1 <1>         0.125300 
     36 S          25.565000   24.468000   10.908000 S.3       1 <1>        -0.121900 
     37 C          25.032000   22.924000   10.115000 C.3       1 <1>        -0.214200 
     38 H          24.809000   23.121000    9.063000 H         1 <1>         0.146400 
     39 H          24.130000   22.538000   10.597000 H         1 <1>         0.080200 
     40 H          25.822000   22.171000   10.168000 H         1 <1>         0.068400 
     41 Cl         26.581000   26.324000   13.473000 Cl        1 <1>         0.120800 
@<TRIPOS>BOND
     1    1    2 ar   
     2    2    3 ar   
     3    3    4 1    
     4    3    5 ar   
     5    5    6 ar   
     6    6    1 ar   
     7    5    7 1    
     8    7    8 1    
     9    7    9 1    
    10    7   10 1    
    11    2   11 1    
    12   11   12 ar   
    13   12   13 1    
    14   12   14 ar   
    15   14   15 1    
    16   14   16 ar   
    17   16   17 ar   
    18   17   18 1    
    19   17   19 ar   
    20   19   20 1    
    21   19   11 ar   
    22   16   21 1    
    23   21   22 2    
    24   21   23 2    
    25   21   24 1    
    26   24   25 1    
    27   24   26 1    
    28    1   27 1    
    29   27   28 ar   
    30   28   29 1    
    31   28   30 ar   
    32   30   31 ar   
    33   31   32 ar   
    34   32   33 1    
    35   32   34 ar   
    36   34   35 1    
    37   34   27 ar   
    38   31   36 1    
    39   36   37 1    
    40   37   38 1    
    41   37   39 1    
    42   37   40 1    
    43   30   41 1    
@<TRIPOS>SUBSTRUCTURE
     1 ****        1 TEMP              0 ****  ****    0 ROOT 
@<TRIPOS>SET
UNITY_3DHIT     STATIC     ATOMS    <user>   **** Atoms matching 3D or FLEX Search
0
