#	Name:			3-70
#	Creating user name:	jeff
#	Creation time:		Fri Dec 13 09:46:38 2002

#	Modifying user name:	jeff
#	Modification time:	Fri Dec 13 09:46:40 2002

@<TRIPOS>MOLECULE
3-70
   40    42     1     0     1
SMALL
USER_CHARGES
****
From 3DB ct
@<TRIPOS>ATOM
      1 C          26.406000   22.130000   16.459000 C.ar      1 <1>         0.444100 
      2 N          25.469000   21.459000   17.255000 N.pl3     1 <1>        -0.256200 
      3 C          26.198000   20.885000   18.280000 C.ar      1 <1>        -0.193300 
      4 H          25.741000   20.277000   19.049000 H         1 <1>         0.285200 
      5 C          27.500000   21.327000   18.161000 C.ar      1 <1>        -0.247600 
      6 N          27.603000   22.118000   17.030000 N.ar      1 <1>        -0.463300 
      7 C          28.668000   21.049000   19.062000 C.3       1 <1>         1.490300 
      8 F          28.353000   20.213000   20.095000 F         1 <1>        -0.473000 
      9 F          29.166000   22.187000   19.629000 F         1 <1>        -0.433100 
     10 F          29.707000   20.463000   18.399000 F         1 <1>        -0.440300 
     11 C          24.047000   21.373000   17.120000 C.ar      1 <1>         0.497200 
     12 C          23.342000   22.258000   16.292000 C.ar      1 <1>        -0.471600 
     13 H          23.834000   23.059000   15.748000 H         1 <1>         0.248900 
     14 C          21.949000   22.170000   16.182000 C.ar      1 <1>         0.164000 
     15 H          21.417000   22.867000   15.538000 H         1 <1>         0.180000 
     16 C          21.252000   21.206000   16.913000 C.ar      1 <1>        -0.659300 
     17 C          21.939000   20.324000   17.749000 C.ar      1 <1>         0.093500 
     18 H          21.407000   19.566000   18.318000 H         1 <1>         0.191400 
     19 C          23.332000   20.414000   17.858000 C.ar      1 <1>        -0.359500 
     20 H          23.832000   19.696000   18.504000 H         1 <1>         0.217400 
     21 S          19.492000   21.088000   16.746000 S.o2      1 <1>         2.463600 
     22 O          18.945000   22.401000   16.455000 O.2       1 <1>        -0.992000 
     23 O          18.965000   20.296000   17.843000 O.2       1 <1>        -0.987900 
     24 N          19.333000   20.176000   15.350000 N.pl3     1 <1>        -1.295600 
     25 H          18.853000   20.704000   14.617000 H         1 <1>         0.483200 
     26 H          18.860000   19.288000   15.541000 H         1 <1>         0.483300 
     27 C          26.180000   22.707000   15.129000 C.ar      1 <1>        -0.215500 
     28 C          26.441000   24.065000   14.909000 C.ar      1 <1>         0.208600 
     29 H          26.788000   24.687000   15.733000 H         1 <1>         0.117000 
     30 C          26.255000   24.628000   13.643000 C.ar      1 <1>        -0.653100 
     31 C          25.816000   23.843000   12.567000 C.ar      1 <1>         0.550400 
     32 C          25.577000   22.478000   12.787000 C.ar      1 <1>        -0.427700 
     33 H          25.246000   21.836000   11.971000 H         1 <1>         0.206200 
     34 C          25.764000   21.915000   14.053000 C.ar      1 <1>         0.057100 
     35 H          25.583000   20.849000   14.185000 H         1 <1>         0.123600 
     36 C          25.606000   24.417000   11.194000 C.3       1 <1>        -0.407400 
     37 H          25.251000   23.655000   10.491000 H         1 <1>         0.116400 
     38 H          26.547000   24.815000   10.799000 H         1 <1>         0.111400 
     39 H          24.854000   25.211000   11.223000 H         1 <1>         0.103300 
     40 Cl         26.584000   26.315000   13.452000 Cl        1 <1>         0.140300 
@<TRIPOS>BOND
     1    1    2 ar   
     2    2    3 ar   
     3    3    4 1    
     4    3    5 ar   
     5    5    6 ar   
     6    6    1 ar   
     7    5    7 1    
     8    7    8 1    
     9    7    9 1    
    10    7   10 1    
    11    2   11 1    
    12   11   12 ar   
    13   12   13 1    
    14   12   14 ar   
    15   14   15 1    
    16   14   16 ar   
    17   16   17 ar   
    18   17   18 1    
    19   17   19 ar   
    20   19   20 1    
    21   19   11 ar   
    22   16   21 1    
    23   21   22 2    
    24   21   23 2    
    25   21   24 1    
    26   24   25 1    
    27   24   26 1    
    28    1   27 1    
    29   27   28 ar   
    30   28   29 1    
    31   28   30 ar   
    32   30   31 ar   
    33   31   32 ar   
    34   32   33 1    
    35   32   34 ar   
    36   34   35 1    
    37   34   27 ar   
    38   31   36 1    
    39   36   37 1    
    40   36   38 1    
    41   36   39 1    
    42   30   40 1    
@<TRIPOS>SUBSTRUCTURE
     1 ****        1 TEMP              0 ****  ****    0 ROOT 
@<TRIPOS>SET
UNITY_3DHIT     STATIC     ATOMS    <user>   **** Atoms matching 3D or FLEX Search
0
