#	Name:			3-71
#	Creating user name:	jeff
#	Creation time:		Fri Dec 13 09:46:40 2002

#	Modifying user name:	jeff
#	Modification time:	Fri Dec 13 09:46:43 2002

@<TRIPOS>MOLECULE
3-71
   41    43     1     0     1
SMALL
USER_CHARGES
****
From 3DB ct
@<TRIPOS>ATOM
      1 C          26.406000   22.128000   16.458000 C.ar      1 <1>         0.421600 
      2 N          25.470000   21.459000   17.257000 N.pl3     1 <1>        -0.230100 
      3 C          26.200000   20.887000   18.283000 C.ar      1 <1>        -0.188800 
      4 H          25.743000   20.281000   19.052000 H         1 <1>         0.285900 
      5 C          27.502000   21.328000   18.160000 C.ar      1 <1>        -0.266700 
      6 N          27.604000   22.116000   17.028000 N.ar      1 <1>        -0.471800 
      7 C          28.670000   21.050000   19.060000 C.3       1 <1>         1.518800 
      8 F          28.357000   20.216000   20.094000 F         1 <1>        -0.478900 
      9 F          29.171000   22.188000   19.625000 F         1 <1>        -0.440900 
     10 F          29.707000   20.461000   18.396000 F         1 <1>        -0.444200 
     11 C          24.048000   21.374000   17.123000 C.ar      1 <1>         0.435200 
     12 C          23.344000   22.259000   16.294000 C.ar      1 <1>        -0.380500 
     13 H          23.836000   23.061000   15.752000 H         1 <1>         0.211800 
     14 C          21.951000   22.170000   16.182000 C.ar      1 <1>         0.106000 
     15 H          21.419000   22.867000   15.537000 H         1 <1>         0.197000 
     16 C          21.254000   21.205000   16.912000 C.ar      1 <1>        -0.643300 
     17 C          21.940000   20.325000   17.749000 C.ar      1 <1>         0.092500 
     18 H          21.407000   19.566000   18.319000 H         1 <1>         0.190000 
     19 C          23.332000   20.415000   17.860000 C.ar      1 <1>        -0.342800 
     20 H          23.832000   19.697000   18.508000 H         1 <1>         0.214900 
     21 S          19.495000   21.089000   16.740000 S.o2      1 <1>         2.473700 
     22 O          18.948000   22.402000   16.448000 O.2       1 <1>        -0.994700 
     23 O          18.966000   20.296000   17.836000 O.2       1 <1>        -0.991500 
     24 N          19.337000   20.178000   15.343000 N.pl3     1 <1>        -1.298900 
     25 H          18.861000   20.708000   14.609000 H         1 <1>         0.483400 
     26 H          18.861000   19.292000   15.531000 H         1 <1>         0.485600 
     27 C          26.178000   22.703000   15.127000 C.ar      1 <1>         0.154800 
     28 C          26.440000   24.067000   14.907000 C.ar      1 <1>        -0.590000 
     29 H          26.789000   24.659000   15.750000 H         1 <1>         0.250000 
     30 C          26.254000   24.642000   13.643000 C.ar      1 <1>         1.013200 
     31 C          25.812000   23.826000   12.589000 C.ar      1 <1>        -0.895300 
     32 C          25.569000   22.466000   12.792000 C.ar      1 <1>         0.335900 
     33 H          25.236000   21.834000   11.972000 H         1 <1>         0.084800 
     34 C          25.758000   21.905000   14.056000 C.ar      1 <1>        -0.365200 
     35 H          25.577000   20.840000   14.193000 H         1 <1>         0.175000 
     36 Cl         25.560000   24.466000   11.001000 Cl        1 <1>         0.184100 
     37 O          26.477000   25.964000   13.350000 O.3       1 <1>        -0.588900 
     38 C          26.915000   26.807000   14.412000 C.3       1 <1>         0.150500 
     39 H          27.032000   27.817000   14.008000 H         1 <1>         0.099800 
     40 H          27.890000   26.486000   14.793000 H         1 <1>         0.028700 
     41 H          26.169000   26.853000   15.213000 H         1 <1>         0.019300 
@<TRIPOS>BOND
     1    1    2 ar   
     2    2    3 ar   
     3    3    4 1    
     4    3    5 ar   
     5    5    6 ar   
     6    6    1 ar   
     7    5    7 1    
     8    7    8 1    
     9    7    9 1    
    10    7   10 1    
    11    2   11 1    
    12   11   12 ar   
    13   12   13 1    
    14   12   14 ar   
    15   14   15 1    
    16   14   16 ar   
    17   16   17 ar   
    18   17   18 1    
    19   17   19 ar   
    20   19   20 1    
    21   19   11 ar   
    22   16   21 1    
    23   21   22 2    
    24   21   23 2    
    25   21   24 1    
    26   24   25 1    
    27   24   26 1    
    28    1   27 1    
    29   27   28 ar   
    30   28   29 1    
    31   28   30 ar   
    32   30   31 ar   
    33   31   32 ar   
    34   32   33 1    
    35   32   34 ar   
    36   34   35 1    
    37   34   27 ar   
    38   31   36 1    
    39   30   37 1    
    40   37   38 1    
    41   38   39 1    
    42   38   40 1    
    43   38   41 1    
@<TRIPOS>SUBSTRUCTURE
     1 ****        1 TEMP              0 ****  ****    0 ROOT 
@<TRIPOS>SET
UNITY_3DHIT     STATIC     ATOMS    <user>   **** Atoms matching 3D or FLEX Search
0
