#	Name:			3-72
#	Creating user name:	jeff
#	Creation time:		Fri Dec 13 09:46:43 2002

#	Modifying user name:	jeff
#	Modification time:	Fri Dec 13 09:46:45 2002

@<TRIPOS>MOLECULE
3-72
   37    39     1     0     1
SMALL
USER_CHARGES
****
From 3DB ct
@<TRIPOS>ATOM
      1 C          26.404000   22.133000   16.460000 C.ar      1 <1>         0.550100 
      2 N          25.469000   21.460000   17.256000 N.pl3     1 <1>        -0.313500 
      3 C          26.200000   20.881000   18.277000 C.ar      1 <1>        -0.151700 
      4 H          25.744000   20.269000   19.043000 H         1 <1>         0.285600 
      5 C          27.502000   21.324000   18.157000 C.ar      1 <1>        -0.297400 
      6 N          27.603000   22.119000   17.029000 N.ar      1 <1>        -0.469400 
      7 C          28.671000   21.040000   19.054000 C.3       1 <1>         1.533400 
      8 F          28.354000   20.213000   20.093000 F         1 <1>        -0.481300 
      9 F          29.182000   22.176000   19.613000 F         1 <1>        -0.442000 
     10 F          29.702000   20.441000   18.388000 F         1 <1>        -0.444700 
     11 C          24.048000   21.375000   17.122000 C.ar      1 <1>         0.461100 
     12 C          23.343000   22.260000   16.293000 C.ar      1 <1>        -0.373900 
     13 H          23.836000   23.062000   15.751000 H         1 <1>         0.203900 
     14 C          21.951000   22.172000   16.182000 C.ar      1 <1>         0.119700 
     15 H          21.419000   22.869000   15.537000 H         1 <1>         0.192600 
     16 C          21.253000   21.208000   16.913000 C.ar      1 <1>        -0.650600 
     17 C          21.940000   20.327000   17.749000 C.ar      1 <1>         0.083900 
     18 H          21.407000   19.568000   18.319000 H         1 <1>         0.195600 
     19 C          23.332000   20.416000   17.860000 C.ar      1 <1>        -0.343700 
     20 H          23.832000   19.698000   18.506000 H         1 <1>         0.216200 
     21 S          19.494000   21.086000   16.743000 S.o2      1 <1>         2.469700 
     22 O          18.944000   22.398000   16.450000 O.2       1 <1>        -0.991800 
     23 O          18.965000   20.295000   17.840000 O.2       1 <1>        -0.988400 
     24 N          19.339000   20.171000   15.349000 N.pl3     1 <1>        -1.293900 
     25 H          18.860000   20.697000   14.614000 H         1 <1>         0.483100 
     26 H          18.866000   19.284000   15.541000 H         1 <1>         0.482800 
     27 C          26.178000   22.712000   15.131000 C.ar      1 <1>        -0.180700 
     28 C          26.438000   24.072000   14.914000 C.ar      1 <1>        -0.265500 
     29 H          26.782000   24.709000   15.725000 H         1 <1>         0.263800 
     30 C          26.253000   24.620000   13.649000 C.ar      1 <1>         0.359200 
     31 C          25.824000   23.828000   12.591000 C.ar      1 <1>         0.417000 
     32 C          25.579000   22.474000   12.782000 C.ar      1 <1>        -0.374600 
     33 H          25.254000   21.857000   11.949000 H         1 <1>         0.251300 
     34 C          25.763000   21.914000   14.050000 C.ar      1 <1>        -0.031900 
     35 H          25.585000   20.848000   14.184000 H         1 <1>         0.157600 
     36 F          25.652000   24.367000   11.375000 F         1 <1>        -0.316800 
     37 F          26.496000   25.924000   13.452000 F         1 <1>        -0.315100 
@<TRIPOS>BOND
     1    1    2 ar   
     2    2    3 ar   
     3    3    4 1    
     4    3    5 ar   
     5    5    6 ar   
     6    6    1 ar   
     7    5    7 1    
     8    7    8 1    
     9    7    9 1    
    10    7   10 1    
    11    2   11 1    
    12   11   12 ar   
    13   12   13 1    
    14   12   14 ar   
    15   14   15 1    
    16   14   16 ar   
    17   16   17 ar   
    18   17   18 1    
    19   17   19 ar   
    20   19   20 1    
    21   19   11 ar   
    22   16   21 1    
    23   21   22 2    
    24   21   23 2    
    25   21   24 1    
    26   24   25 1    
    27   24   26 1    
    28    1   27 1    
    29   27   28 ar   
    30   28   29 1    
    31   28   30 ar   
    32   30   31 ar   
    33   31   32 ar   
    34   32   33 1    
    35   32   34 ar   
    36   34   35 1    
    37   34   27 ar   
    38   31   36 1    
    39   30   37 1    
@<TRIPOS>SUBSTRUCTURE
     1 ****        1 TEMP              0 ****  ****    0 ROOT 
@<TRIPOS>SET
UNITY_3DHIT     STATIC     ATOMS    <user>   **** Atoms matching 3D or FLEX Search
0
