#	Name:			3-73
#	Creating user name:	jeff
#	Creation time:		Fri Dec 13 09:46:45 2002

#	Modifying user name:	jeff
#	Modification time:	Fri Dec 13 09:46:47 2002

@<TRIPOS>MOLECULE
3-73
   40    42     1     0     1
SMALL
USER_CHARGES
****
From 3DB ct
@<TRIPOS>ATOM
      1 C          26.409000   22.128000   16.460000 C.ar      1 <1>         0.396500 
      2 N          25.471000   21.461000   17.259000 N.pl3     1 <1>        -0.180400 
      3 C          26.201000   20.887000   18.285000 C.ar      1 <1>        -0.222200 
      4 H          25.743000   20.284000   19.056000 H         1 <1>         0.288400 
      5 C          27.504000   21.323000   18.160000 C.ar      1 <1>        -0.245000 
      6 N          27.608000   22.110000   17.026000 N.ar      1 <1>        -0.469400 
      7 C          28.673000   21.042000   19.059000 C.3       1 <1>         1.514500 
      8 F          28.363000   20.193000   20.082000 F         1 <1>        -0.477500 
      9 F          29.165000   22.176000   19.639000 F         1 <1>        -0.442200 
     10 F          29.715000   20.468000   18.389000 F         1 <1>        -0.444300 
     11 C          24.050000   21.376000   17.123000 C.ar      1 <1>         0.423000 
     12 C          23.346000   22.261000   16.293000 C.ar      1 <1>        -0.388500 
     13 H          23.839000   23.064000   15.752000 H         1 <1>         0.221000 
     14 C          21.954000   22.172000   16.180000 C.ar      1 <1>         0.106100 
     15 H          21.424000   22.870000   15.534000 H         1 <1>         0.193900 
     16 C          21.256000   21.208000   16.909000 C.ar      1 <1>        -0.635000 
     17 C          21.941000   20.327000   17.746000 C.ar      1 <1>         0.078600 
     18 H          21.407000   19.569000   18.315000 H         1 <1>         0.191800 
     19 C          23.333000   20.417000   17.860000 C.ar      1 <1>        -0.321700 
     20 H          23.832000   19.699000   18.507000 H         1 <1>         0.210300 
     21 S          19.497000   21.088000   16.734000 S.o2      1 <1>         2.456600 
     22 O          18.949000   22.400000   16.441000 O.2       1 <1>        -0.989100 
     23 O          18.966000   20.296000   17.830000 O.2       1 <1>        -0.986700 
     24 N          19.343000   20.174000   15.339000 N.pl3     1 <1>        -1.311100 
     25 H          18.867000   20.702000   14.603000 H         1 <1>         0.488400 
     26 H          18.869000   19.288000   15.528000 H         1 <1>         0.493100 
     27 C          26.178000   22.703000   15.130000 C.ar      1 <1>        -0.161000 
     28 C          26.435000   24.065000   14.908000 C.ar      1 <1>        -0.194700 
     29 H          26.784000   24.686000   15.734000 H         1 <1>         0.226300 
     30 C          26.244000   24.639000   13.643000 C.ar      1 <1>         0.115800 
     31 C          25.780000   23.836000   12.595000 C.ar      1 <1>         0.149800 
     32 H          25.608000   24.270000   11.611000 H         1 <1>         0.113000 
     33 C          25.546000   22.477000   12.805000 C.ar      1 <1>        -0.655600 
     34 C          25.750000   21.906000   14.060000 C.ar      1 <1>         0.310000 
     35 H          25.573000   20.843000   14.204000 H         1 <1>         0.046900 
     36 Cl         24.994000   21.495000   11.502000 Cl        1 <1>         0.129400 
     37 C          26.477000   26.107000   13.431000 C.3       1 <1>        -0.385300 
     38 H          26.783000   26.309000   12.400000 H         1 <1>         0.116500 
     39 H          27.275000   26.474000   14.085000 H         1 <1>         0.122400 
     40 H          25.560000   26.665000   13.644000 H         1 <1>         0.117500 
@<TRIPOS>BOND
     1    1    2 ar   
     2    2    3 ar   
     3    3    4 1    
     4    3    5 ar   
     5    5    6 ar   
     6    6    1 ar   
     7    5    7 1    
     8    7    8 1    
     9    7    9 1    
    10    7   10 1    
    11    2   11 1    
    12   11   12 ar   
    13   12   13 1    
    14   12   14 ar   
    15   14   15 1    
    16   14   16 ar   
    17   16   17 ar   
    18   17   18 1    
    19   17   19 ar   
    20   19   20 1    
    21   19   11 ar   
    22   16   21 1    
    23   21   22 2    
    24   21   23 2    
    25   21   24 1    
    26   24   25 1    
    27   24   26 1    
    28    1   27 1    
    29   27   28 ar   
    30   28   29 1    
    31   28   30 ar   
    32   30   31 ar   
    33   31   32 1    
    34   31   33 ar   
    35   33   34 ar   
    36   34   35 1    
    37   34   27 ar   
    38   33   36 1    
    39   30   37 1    
    40   37   38 1    
    41   37   39 1    
    42   37   40 1    
@<TRIPOS>SUBSTRUCTURE
     1 ****        1 TEMP              0 ****  ****    0 ROOT 
@<TRIPOS>SET
UNITY_3DHIT     STATIC     ATOMS    <user>   **** Atoms matching 3D or FLEX Search
0
