#	Name:			3-75
#	Creating user name:	jeff
#	Creation time:		Fri Dec 13 09:46:49 2002

#	Modifying user name:	jeff
#	Modification time:	Fri Dec 13 09:46:51 2002

@<TRIPOS>MOLECULE
3-75
   41    43     1     0     1
SMALL
USER_CHARGES
****
From 3DB ct
@<TRIPOS>ATOM
      1 C          26.407000   22.128000   16.460000 C.ar      1 <1>         0.429600 
      2 N          25.471000   21.461000   17.260000 N.pl3     1 <1>        -0.190900 
      3 C          26.201000   20.886000   18.284000 C.ar      1 <1>        -0.211000 
      4 H          25.744000   20.281000   19.054000 H         1 <1>         0.286900 
      5 C          27.504000   21.324000   18.160000 C.ar      1 <1>        -0.256100 
      6 N          27.607000   22.112000   17.026000 N.ar      1 <1>        -0.471100 
      7 C          28.674000   21.044000   19.058000 C.3       1 <1>         1.519900 
      8 F          28.360000   20.212000   20.093000 F         1 <1>        -0.477900 
      9 F          29.177000   22.181000   19.621000 F         1 <1>        -0.443100 
     10 F          29.709000   20.453000   18.392000 F         1 <1>        -0.445200 
     11 C          24.050000   21.376000   17.125000 C.ar      1 <1>         0.405500 
     12 C          23.347000   22.261000   16.294000 C.ar      1 <1>        -0.357000 
     13 H          23.840000   23.064000   15.754000 H         1 <1>         0.208400 
     14 C          21.955000   22.172000   16.179000 C.ar      1 <1>         0.083900 
     15 H          21.425000   22.869000   15.533000 H         1 <1>         0.200700 
     16 C          21.257000   21.207000   16.908000 C.ar      1 <1>        -0.626900 
     17 C          21.942000   20.326000   17.746000 C.ar      1 <1>         0.068300 
     18 H          21.408000   19.567000   18.314000 H         1 <1>         0.193500 
     19 C          23.334000   20.417000   17.861000 C.ar      1 <1>        -0.306800 
     20 H          23.833000   19.699000   18.509000 H         1 <1>         0.208400 
     21 S          19.498000   21.090000   16.734000 S.o2      1 <1>         2.467600 
     22 O          18.952000   22.404000   16.442000 O.2       1 <1>        -0.992100 
     23 O          18.967000   20.297000   17.828000 O.2       1 <1>        -0.990300 
     24 N          19.343000   20.180000   15.337000 N.pl3     1 <1>        -1.314300 
     25 H          18.868000   20.710000   14.601000 H         1 <1>         0.489500 
     26 H          18.867000   19.293000   15.524000 H         1 <1>         0.493600 
     27 C          26.177000   22.702000   15.130000 C.ar      1 <1>        -0.149000 
     28 C          26.438000   24.062000   14.905000 C.ar      1 <1>        -0.233000 
     29 H          26.793000   24.685000   15.726000 H         1 <1>         0.196500 
     30 C          26.244000   24.637000   13.644000 C.ar      1 <1>         0.379100 
     31 C          25.796000   23.840000   12.591000 C.ar      1 <1>        -0.009300 
     32 H          25.631000   24.248000   11.598000 H         1 <1>         0.140200 
     33 C          25.556000   22.482000   12.804000 C.ar      1 <1>        -0.520300 
     34 C          25.750000   21.908000   14.059000 C.ar      1 <1>         0.194800 
     35 H          25.570000   20.844000   14.200000 H         1 <1>         0.062800 
     36 Cl         25.013000   21.498000   11.497000 Cl        1 <1>         0.128000 
     37 O          26.526000   25.974000   13.576000 O.3       1 <1>        -0.435300 
     38 C          26.974000   26.599000   14.778000 C.3       1 <1>         0.078400 
     39 H          27.152000   27.656000   14.557000 H         1 <1>         0.096500 
     40 H          27.921000   26.165000   15.117000 H         1 <1>         0.053300 
     41 H          26.208000   26.545000   15.559000 H         1 <1>         0.044000 
@<TRIPOS>BOND
     1    1    2 ar   
     2    2    3 ar   
     3    3    4 1    
     4    3    5 ar   
     5    5    6 ar   
     6    6    1 ar   
     7    5    7 1    
     8    7    8 1    
     9    7    9 1    
    10    7   10 1    
    11    2   11 1    
    12   11   12 ar   
    13   12   13 1    
    14   12   14 ar   
    15   14   15 1    
    16   14   16 ar   
    17   16   17 ar   
    18   17   18 1    
    19   17   19 ar   
    20   19   20 1    
    21   19   11 ar   
    22   16   21 1    
    23   21   22 2    
    24   21   23 2    
    25   21   24 1    
    26   24   25 1    
    27   24   26 1    
    28    1   27 1    
    29   27   28 ar   
    30   28   29 1    
    31   28   30 ar   
    32   30   31 ar   
    33   31   32 1    
    34   31   33 ar   
    35   33   34 ar   
    36   34   35 1    
    37   34   27 ar   
    38   33   36 1    
    39   30   37 1    
    40   37   38 1    
    41   38   39 1    
    42   38   40 1    
    43   38   41 1    
@<TRIPOS>SUBSTRUCTURE
     1 ****        1 TEMP              0 ****  ****    0 ROOT 
@<TRIPOS>SET
UNITY_3DHIT     STATIC     ATOMS    <user>   **** Atoms matching 3D or FLEX Search
0
