#	Name:			3-79
#	Creating user name:	jeff
#	Creation time:		Fri Dec 13 09:46:58 2002

#	Modifying user name:	jeff
#	Modification time:	Fri Dec 13 09:47:01 2002

@<TRIPOS>MOLECULE
3-79
   48    50     1     0     1
SMALL
USER_CHARGES
****
From 3DB ct
@<TRIPOS>ATOM
      1 C          26.409000   22.128000   16.459000 C.ar      1 <1>         0.585100 
      2 N          25.470000   21.461000   17.258000 N.pl3     1 <1>        -0.293700 
      3 C          26.198000   20.889000   18.286000 C.ar      1 <1>        -0.166700 
      4 H          25.738000   20.286000   19.056000 H         1 <1>         0.288400 
      5 C          27.501000   21.326000   18.164000 C.ar      1 <1>        -0.321600 
      6 N          27.607000   22.112000   17.030000 N.ar      1 <1>        -0.473000 
      7 C          28.668000   21.046000   19.066000 C.3       1 <1>         1.553900 
      8 F          28.350000   20.215000   20.101000 F         1 <1>        -0.486800 
      9 F          29.172000   22.183000   19.629000 F         1 <1>        -0.447500 
     10 F          29.704000   20.452000   18.404000 F         1 <1>        -0.451300 
     11 C          24.049000   21.375000   17.121000 C.ar      1 <1>         0.410200 
     12 C          23.344000   22.259000   16.291000 C.ar      1 <1>        -0.333700 
     13 H          23.837000   23.060000   15.747000 H         1 <1>         0.203400 
     14 C          21.952000   22.170000   16.177000 C.ar      1 <1>         0.051600 
     15 H          21.425000   22.867000   15.528000 H         1 <1>         0.190500 
     16 C          21.256000   21.207000   16.908000 C.ar      1 <1>        -0.556700 
     17 C          21.940000   20.325000   17.744000 C.ar      1 <1>         0.025600 
     18 H          21.408000   19.564000   18.311000 H         1 <1>         0.196300 
     19 C          23.332000   20.415000   17.856000 C.ar      1 <1>        -0.322800 
     20 H          23.832000   19.697000   18.503000 H         1 <1>         0.212100 
     21 S          19.489000   21.087000   16.747000 S.o2      1 <1>         2.195200 
     22 O          18.963000   22.431000   16.531000 O.2       1 <1>        -0.964500 
     23 O          18.988000   20.319000   17.883000 O.2       1 <1>        -0.963600 
     24 C          19.265000   20.139000   15.265000 C.3       1 <1>        -0.729200 
     25 H          18.192000   20.024000   15.095000 H         1 <1>         0.242000 
     26 H          19.727000   19.159000   15.395000 H         1 <1>         0.193600 
     27 H          19.718000   20.675000   14.428000 H         1 <1>         0.194700 
     28 C          26.183000   22.703000   15.128000 C.ar      1 <1>        -0.231300 
     29 C          26.441000   24.063000   14.907000 C.ar      1 <1>        -0.224500 
     30 H          26.787000   24.681000   15.736000 H         1 <1>         0.218800 
     31 C          26.250000   24.641000   13.642000 C.ar      1 <1>         0.192300 
     32 C          25.848000   23.818000   12.578000 C.ar      1 <1>         0.041000 
     33 C          25.553000   22.460000   12.781000 C.ar      1 <1>         0.111600 
     34 C          25.755000   21.908000   14.056000 C.ar      1 <1>        -0.163800 
     35 H          25.572000   20.845000   14.211000 H         1 <1>         0.173800 
     36 C          25.078000   21.573000   11.664000 C.3       1 <1>        -0.342000 
     37 H          24.501000   20.727000   12.055000 H         1 <1>         0.087300 
     38 H          25.933000   21.181000   11.105000 H         1 <1>         0.119800 
     39 H          24.419000   22.117000   10.981000 H         1 <1>         0.124000 
     40 O          25.665000   24.368000   11.333000 O.3       1 <1>        -0.366800 
     41 C          26.874000   24.282000   10.569000 C.3       1 <1>         0.079200 
     42 H          26.682000   24.731000    9.591000 H         1 <1>         0.082900 
     43 H          27.172000   23.240000   10.411000 H         1 <1>         0.041000 
     44 H          27.688000   24.839000   11.045000 H         1 <1>         0.040900 
     45 C          26.529000   26.106000   13.454000 C.3       1 <1>        -0.352700 
     46 H          27.553000   26.251000   13.098000 H         1 <1>         0.117300 
     47 H          26.408000   26.651000   14.396000 H         1 <1>         0.100400 
     48 H          25.831000   26.551000   12.738000 H         1 <1>         0.119300 
@<TRIPOS>BOND
     1    1    2 ar   
     2    2    3 ar   
     3    3    4 1    
     4    3    5 ar   
     5    5    6 ar   
     6    6    1 ar   
     7    5    7 1    
     8    7    8 1    
     9    7    9 1    
    10    7   10 1    
    11    2   11 1    
    12   11   12 ar   
    13   12   13 1    
    14   12   14 ar   
    15   14   15 1    
    16   14   16 ar   
    17   16   17 ar   
    18   17   18 1    
    19   17   19 ar   
    20   19   20 1    
    21   19   11 ar   
    22   16   21 1    
    23   21   22 2    
    24   21   23 2    
    25   21   24 1    
    26   24   25 1    
    27   24   26 1    
    28   24   27 1    
    29    1   28 1    
    30   28   29 ar   
    31   29   30 1    
    32   29   31 ar   
    33   31   32 ar   
    34   32   33 ar   
    35   33   34 ar   
    36   34   35 1    
    37   34   28 ar   
    38   33   36 1    
    39   36   37 1    
    40   36   38 1    
    41   36   39 1    
    42   32   40 1    
    43   40   41 1    
    44   41   42 1    
    45   41   43 1    
    46   41   44 1    
    47   31   45 1    
    48   45   46 1    
    49   45   47 1    
    50   45   48 1    
@<TRIPOS>SUBSTRUCTURE
     1 ****        1 TEMP              0 ****  ****    0 ROOT 
@<TRIPOS>SET
UNITY_3DHIT     STATIC     ATOMS    <user>   **** Atoms matching 3D or FLEX Search
0
