#	Name:			3-80
#	Creating user name:	jeff
#	Creation time:		Fri Dec 13 09:47:01 2002

#	Modifying user name:	jeff
#	Modification time:	Fri Dec 13 09:47:04 2002

@<TRIPOS>MOLECULE
3-80
   48    50     1     0     1
SMALL
USER_CHARGES
****
From 3DB ct
@<TRIPOS>ATOM
      1 C          26.418000   22.131000   16.468000 C.ar      1 <1>         0.765100 
      2 N          25.474000   21.468000   17.265000 N.pl3     1 <1>        -0.369500 
      3 C          26.200000   20.885000   18.288000 C.ar      1 <1>        -0.129400 
      4 H          25.736000   20.291000   19.063000 H         1 <1>         0.284200 
      5 C          27.513000   21.285000   18.149000 C.ar      1 <1>        -0.392400 
      6 N          27.625000   22.067000   17.015000 N.ar      1 <1>        -0.468900 
      7 C          28.685000   20.969000   19.031000 C.3       1 <1>         1.588400 
      8 F          28.333000   20.268000   20.149000 F         1 <1>        -0.491900 
      9 F          29.321000   22.094000   19.471000 F         1 <1>        -0.451700 
     10 F          29.628000   20.219000   18.390000 F         1 <1>        -0.456300 
     11 C          24.052000   21.385000   17.123000 C.ar      1 <1>         0.428300 
     12 C          23.348000   22.265000   16.289000 C.ar      1 <1>        -0.326300 
     13 H          23.838000   23.067000   15.746000 H         1 <1>         0.205100 
     14 C          21.956000   22.174000   16.169000 C.ar      1 <1>         0.045100 
     15 H          21.432000   22.869000   15.516000 H         1 <1>         0.191300 
     16 C          21.258000   21.210000   16.897000 C.ar      1 <1>        -0.554500 
     17 C          21.941000   20.330000   17.736000 C.ar      1 <1>         0.012100 
     18 H          21.408000   19.569000   18.302000 H         1 <1>         0.198200 
     19 C          23.332000   20.424000   17.855000 C.ar      1 <1>        -0.315900 
     20 H          23.829000   19.705000   18.505000 H         1 <1>         0.210500 
     21 S          19.492000   21.084000   16.728000 S.o2      1 <1>         2.201200 
     22 O          18.966000   22.425000   16.495000 O.2       1 <1>        -0.967300 
     23 O          18.986000   20.328000   17.869000 O.2       1 <1>        -0.965000 
     24 C          19.279000   20.118000   15.256000 C.3       1 <1>        -0.737900 
     25 H          18.208000   19.997000   15.083000 H         1 <1>         0.243800 
     26 H          19.745000   19.142000   15.400000 H         1 <1>         0.196400 
     27 H          19.734000   20.646000   14.415000 H         1 <1>         0.197900 
     28 C          26.183000   22.735000   15.149000 C.ar      1 <1>        -0.613100 
     29 C          26.421000   24.101000   14.908000 C.ar      1 <1>         0.341800 
     30 C          26.211000   24.621000   13.616000 C.ar      1 <1>        -0.460200 
     31 H          26.408000   25.679000   13.453000 H         1 <1>         0.207100 
     32 C          25.765000   23.807000   12.569000 C.ar      1 <1>         0.423300 
     33 C          25.530000   22.444000   12.807000 C.ar      1 <1>        -0.133700 
     34 C          25.750000   21.919000   14.090000 C.ar      1 <1>         0.066300 
     35 H          25.583000   20.856000   14.268000 H         1 <1>         0.139700 
     36 C          25.055000   21.535000   11.705000 C.3       1 <1>        -0.278500 
     37 H          24.905000   20.511000   12.064000 H         1 <1>         0.091300 
     38 H          25.794000   21.500000   10.899000 H         1 <1>         0.103400 
     39 H          24.098000   21.889000   11.309000 H         1 <1>         0.089700 
     40 O          25.532000   24.236000   11.288000 O.3       1 <1>        -0.359400 
     41 C          25.751000   25.617000   11.009000 C.3       1 <1>        -0.009600 
     42 H          25.514000   25.785000    9.954000 H         1 <1>         0.105100 
     43 H          26.801000   25.888000   11.162000 H         1 <1>         0.073200 
     44 H          25.084000   26.249000   11.606000 H         1 <1>         0.066200 
     45 C          26.913000   25.023000   15.993000 C.3       1 <1>        -0.237800 
     46 H          27.958000   24.802000   16.232000 H         1 <1>         0.106500 
     47 H          26.300000   24.922000   16.895000 H         1 <1>         0.069300 
     48 H          26.853000   26.073000   15.684000 H         1 <1>         0.068900 
@<TRIPOS>BOND
     1    1    2 ar   
     2    2    3 ar   
     3    3    4 1    
     4    3    5 ar   
     5    5    6 ar   
     6    6    1 ar   
     7    5    7 1    
     8    7    8 1    
     9    7    9 1    
    10    7   10 1    
    11    2   11 1    
    12   11   12 ar   
    13   12   13 1    
    14   12   14 ar   
    15   14   15 1    
    16   14   16 ar   
    17   16   17 ar   
    18   17   18 1    
    19   17   19 ar   
    20   19   20 1    
    21   19   11 ar   
    22   16   21 1    
    23   21   22 2    
    24   21   23 2    
    25   21   24 1    
    26   24   25 1    
    27   24   26 1    
    28   24   27 1    
    29    1   28 1    
    30   28   29 ar   
    31   29   30 ar   
    32   30   31 1    
    33   30   32 ar   
    34   32   33 ar   
    35   33   34 ar   
    36   34   35 1    
    37   34   28 ar   
    38   33   36 1    
    39   36   37 1    
    40   36   38 1    
    41   36   39 1    
    42   32   40 1    
    43   40   41 1    
    44   41   42 1    
    45   41   43 1    
    46   41   44 1    
    47   29   45 1    
    48   45   46 1    
    49   45   47 1    
    50   45   48 1    
@<TRIPOS>SUBSTRUCTURE
     1 ****        1 TEMP              0 ****  ****    0 ROOT 
@<TRIPOS>SET
UNITY_3DHIT     STATIC     ATOMS    <user>   **** Atoms matching 3D or FLEX Search
0
