#	Name:			3-83
#	Creating user name:	jeff
#	Creation time:		Fri Dec 13 09:47:09 2002

#	Modifying user name:	jeff
#	Modification time:	Fri Dec 13 09:47:11 2002

@<TRIPOS>MOLECULE
3-83
   35    37     1     0     1
SMALL
USER_CHARGES
****
From 3DB ct
@<TRIPOS>ATOM
      1 C          26.409000   22.130000   16.459000 C.ar      1 <1>         0.201600 
      2 N          25.468000   21.461000   17.255000 N.pl3     1 <1>        -0.063900 
      3 C          26.197000   20.889000   18.282000 C.ar      1 <1>        -0.469100 
      4 H          25.744000   20.284000   19.054000 H         1 <1>         0.297900 
      5 C          27.486000   21.334000   18.145000 C.ar      1 <1>         0.074300 
      6 H          28.327000   21.130000   18.797000 H         1 <1>         0.196400 
      7 N          27.607000   22.112000   17.032000 N.ar      1 <1>        -0.514900 
      8 C          24.047000   21.374000   17.119000 C.ar      1 <1>         0.378600 
      9 C          23.340000   22.258000   16.290000 C.ar      1 <1>        -0.418900 
     10 H          23.832000   23.060000   15.746000 H         1 <1>         0.230200 
     11 C          21.948000   22.169000   16.178000 C.ar      1 <1>         0.077700 
     12 H          21.420000   22.866000   15.530000 H         1 <1>         0.182400 
     13 C          21.253000   21.206000   16.910000 C.ar      1 <1>        -0.549900 
     14 C          21.939000   20.323000   17.745000 C.ar      1 <1>         0.015100 
     15 H          21.408000   19.563000   18.314000 H         1 <1>         0.190600 
     16 C          23.331000   20.414000   17.856000 C.ar      1 <1>        -0.304800 
     17 H          23.832000   19.697000   18.503000 H         1 <1>         0.205400 
     18 S          19.486000   21.085000   16.753000 S.o2      1 <1>         2.178400 
     19 O          18.959000   22.430000   16.546000 O.2       1 <1>        -0.964000 
     20 O          18.988000   20.311000   17.886000 O.2       1 <1>        -0.962400 
     21 C          19.260000   20.145000   15.266000 C.3       1 <1>        -0.728900 
     22 H          18.187000   20.031000   15.097000 H         1 <1>         0.242700 
     23 H          19.722000   19.164000   15.391000 H         1 <1>         0.194100 
     24 H          19.712000   20.685000   14.432000 H         1 <1>         0.190500 
     25 C          26.184000   22.708000   15.129000 C.ar      1 <1>         0.254500 
     26 C          26.444000   24.068000   14.908000 C.ar      1 <1>        -0.388700 
     27 H          26.793000   24.699000   15.725000 H         1 <1>         0.230700 
     28 C          26.256000   24.632000   13.643000 C.ar      1 <1>         0.313900 
     29 H          26.455000   25.691000   13.492000 H         1 <1>         0.065700 
     30 C          25.819000   23.834000   12.588000 C.ar      1 <1>        -0.660700 
     31 C          25.575000   22.477000   12.786000 C.ar      1 <1>         0.230100 
     32 H          25.242000   21.848000   11.963000 H         1 <1>         0.081500 
     33 C          25.764000   21.913000   14.052000 C.ar      1 <1>        -0.291800 
     34 H          25.581000   20.848000   14.186000 H         1 <1>         0.154800 
     35 Cl         25.587000   24.527000   11.029000 Cl        1 <1>         0.130500 
@<TRIPOS>BOND
     1    1    2 ar   
     2    2    3 ar   
     3    3    4 1    
     4    3    5 ar   
     5    5    6 1    
     6    5    7 ar   
     7    7    1 ar   
     8    2    8 1    
     9    8    9 ar   
    10    9   10 1    
    11    9   11 ar   
    12   11   12 1    
    13   11   13 ar   
    14   13   14 ar   
    15   14   15 1    
    16   14   16 ar   
    17   16   17 1    
    18   16    8 ar   
    19   13   18 1    
    20   18   19 2    
    21   18   20 2    
    22   18   21 1    
    23   21   22 1    
    24   21   23 1    
    25   21   24 1    
    26    1   25 1    
    27   25   26 ar   
    28   26   27 1    
    29   26   28 ar   
    30   28   29 1    
    31   28   30 ar   
    32   30   31 ar   
    33   31   32 1    
    34   31   33 ar   
    35   33   34 1    
    36   33   25 ar   
    37   30   35 1    
@<TRIPOS>SUBSTRUCTURE
     1 ****        1 TEMP              0 ****  ****    0 ROOT 
@<TRIPOS>SET
UNITY_3DHIT     STATIC     ATOMS    <user>   **** Atoms matching 3D or FLEX Search
0
