#	Name:			3-87
#	Creating user name:	jeff
#	Creation time:		Fri Dec 13 09:47:11 2002

#	Modifying user name:	jeff
#	Modification time:	Fri Dec 13 09:47:13 2002

@<TRIPOS>MOLECULE
3-87
   38    40     1     0     1
SMALL
USER_CHARGES
****
From 3DB ct
@<TRIPOS>ATOM
      1 C          26.409000   22.130000   16.460000 C.ar      1 <1>         0.174100 
      2 N          25.470000   21.460000   17.256000 N.pl3     1 <1>        -0.052400 
      3 C          26.199000   20.886000   18.283000 C.ar      1 <1>        -0.393300 
      4 H          25.739000   20.281000   19.051000 H         1 <1>         0.308500 
      5 C          27.499000   21.326000   18.158000 C.ar      1 <1>        -0.081100 
      6 N          27.606000   22.113000   17.030000 N.ar      1 <1>        -0.404000 
      7 C          28.666000   21.048000   19.052000 C.3       1 <1>         0.973800 
      8 H          28.403000   20.398000   19.890000 H         1 <1>        -0.013300 
      9 F          29.188000   22.209000   19.554000 F         1 <1>        -0.414300 
     10 F          29.689000   20.462000   18.357000 F         1 <1>        -0.418800 
     11 C          24.049000   21.375000   17.121000 C.ar      1 <1>         0.370100 
     12 C          23.344000   22.259000   16.291000 C.ar      1 <1>        -0.409800 
     13 H          23.838000   23.061000   15.747000 H         1 <1>         0.233600 
     14 C          21.952000   22.172000   16.177000 C.ar      1 <1>         0.073100 
     15 H          21.426000   22.869000   15.528000 H         1 <1>         0.186700 
     16 C          21.255000   21.209000   16.908000 C.ar      1 <1>        -0.548400 
     17 C          21.940000   20.326000   17.744000 C.ar      1 <1>         0.022500 
     18 H          21.407000   19.566000   18.312000 H         1 <1>         0.192900 
     19 C          23.332000   20.416000   17.857000 C.ar      1 <1>        -0.305000 
     20 H          23.831000   19.698000   18.504000 H         1 <1>         0.204500 
     21 S          19.489000   21.085000   16.747000 S.o2      1 <1>         2.177200 
     22 O          18.961000   22.430000   16.539000 O.2       1 <1>        -0.960800 
     23 O          18.989000   20.311000   17.879000 O.2       1 <1>        -0.958400 
     24 C          19.267000   20.143000   15.261000 C.3       1 <1>        -0.727100 
     25 H          18.194000   20.024000   15.093000 H         1 <1>         0.244100 
     26 H          19.733000   19.165000   15.387000 H         1 <1>         0.194900 
     27 H          19.716000   20.684000   14.427000 H         1 <1>         0.192100 
     28 C          26.181000   22.707000   15.130000 C.ar      1 <1>         0.244900 
     29 C          26.442000   24.067000   14.909000 C.ar      1 <1>        -0.370700 
     30 H          26.792000   24.698000   15.724000 H         1 <1>         0.221600 
     31 C          26.250000   24.631000   13.643000 C.ar      1 <1>         0.317900 
     32 H          26.449000   25.689000   13.492000 H         1 <1>         0.069600 
     33 C          25.810000   23.833000   12.589000 C.ar      1 <1>        -0.661600 
     34 C          25.567000   22.476000   12.788000 C.ar      1 <1>         0.228500 
     35 H          25.232000   21.846000   11.967000 H         1 <1>         0.084300 
     36 C          25.758000   21.912000   14.054000 C.ar      1 <1>        -0.289600 
     37 H          25.576000   20.847000   14.189000 H         1 <1>         0.157100 
     38 Cl         25.575000   24.526000   11.032000 Cl        1 <1>         0.136600 
@<TRIPOS>BOND
     1    1    2 ar   
     2    2    3 ar   
     3    3    4 1    
     4    3    5 ar   
     5    5    6 ar   
     6    6    1 ar   
     7    5    7 1    
     8    7    8 1    
     9    7    9 1    
    10    7   10 1    
    11    2   11 1    
    12   11   12 ar   
    13   12   13 1    
    14   12   14 ar   
    15   14   15 1    
    16   14   16 ar   
    17   16   17 ar   
    18   17   18 1    
    19   17   19 ar   
    20   19   20 1    
    21   19   11 ar   
    22   16   21 1    
    23   21   22 2    
    24   21   23 2    
    25   21   24 1    
    26   24   25 1    
    27   24   26 1    
    28   24   27 1    
    29    1   28 1    
    30   28   29 ar   
    31   29   30 1    
    32   29   31 ar   
    33   31   32 1    
    34   31   33 ar   
    35   33   34 ar   
    36   34   35 1    
    37   34   36 ar   
    38   36   37 1    
    39   36   28 ar   
    40   33   38 1    
@<TRIPOS>SUBSTRUCTURE
     1 ****        1 TEMP              0 ****  ****    0 ROOT 
@<TRIPOS>SET
UNITY_3DHIT     STATIC     ATOMS    <user>   **** Atoms matching 3D or FLEX Search
0
