#	Name:			3-88
#	Creating user name:	jeff
#	Creation time:		Fri Dec 13 09:47:13 2002

#	Modifying user name:	jeff
#	Modification time:	Fri Dec 13 09:47:15 2002

@<TRIPOS>MOLECULE
3-88
   38    40     1     0     1
SMALL
USER_CHARGES
****
From 3DB ct
@<TRIPOS>ATOM
      1 C          26.409000   22.130000   16.460000 C.ar      1 <1>         0.265700 
      2 N          25.469000   21.461000   17.256000 N.pl3     1 <1>        -0.284800 
      3 C          26.199000   20.888000   18.282000 C.ar      1 <1>        -0.327800 
      4 H          25.741000   20.285000   19.054000 H         1 <1>         0.298900 
      5 C          27.496000   21.328000   18.152000 C.ar      1 <1>         0.236100 
      6 N          27.607000   22.111000   17.030000 N.ar      1 <1>        -0.626700 
      7 C          28.660000   21.056000   19.038000 C.3       1 <1>         0.265900 
      8 H          28.376000   20.414000   19.877000 H         1 <1>         0.072600 
      9 H          29.075000   21.988000   19.434000 H         1 <1>         0.085000 
     10 F          29.651000   20.417000   18.344000 F         1 <1>        -0.395100 
     11 C          24.048000   21.376000   17.121000 C.ar      1 <1>         0.485400 
     12 C          23.343000   22.259000   16.291000 C.ar      1 <1>        -0.415000 
     13 H          23.836000   23.061000   15.747000 H         1 <1>         0.221500 
     14 C          21.950000   22.171000   16.178000 C.ar      1 <1>         0.067300 
     15 H          21.423000   22.868000   15.529000 H         1 <1>         0.189000 
     16 C          21.254000   21.208000   16.909000 C.ar      1 <1>        -0.561100 
     17 C          21.940000   20.326000   17.745000 C.ar      1 <1>         0.020800 
     18 H          21.408000   19.565000   18.313000 H         1 <1>         0.194000 
     19 C          23.332000   20.416000   17.857000 C.ar      1 <1>        -0.331000 
     20 H          23.832000   19.698000   18.504000 H         1 <1>         0.214200 
     21 S          19.488000   21.084000   16.748000 S.o2      1 <1>         2.187800 
     22 O          18.960000   22.428000   16.537000 O.2       1 <1>        -0.964800 
     23 O          18.988000   20.312000   17.882000 O.2       1 <1>        -0.962100 
     24 C          19.265000   20.140000   15.264000 C.3       1 <1>        -0.733600 
     25 H          18.193000   20.023000   15.094000 H         1 <1>         0.244100 
     26 H          19.730000   19.160000   15.392000 H         1 <1>         0.196400 
     27 H          19.717000   20.679000   14.429000 H         1 <1>         0.192100 
     28 C          26.182000   22.707000   15.130000 C.ar      1 <1>         0.356800 
     29 C          26.443000   24.068000   14.909000 C.ar      1 <1>        -0.416300 
     30 H          26.793000   24.698000   15.725000 H         1 <1>         0.236300 
     31 C          26.252000   24.631000   13.643000 C.ar      1 <1>         0.313700 
     32 H          26.451000   25.690000   13.492000 H         1 <1>         0.069900 
     33 C          25.813000   23.833000   12.589000 C.ar      1 <1>        -0.676600 
     34 C          25.569000   22.476000   12.788000 C.ar      1 <1>         0.263900 
     35 H          25.235000   21.847000   11.966000 H         1 <1>         0.080400 
     36 C          25.760000   21.913000   14.053000 C.ar      1 <1>        -0.375700 
     37 H          25.578000   20.848000   14.188000 H         1 <1>         0.176600 
     38 Cl         25.578000   24.526000   11.031000 Cl        1 <1>         0.136200 
@<TRIPOS>BOND
     1    1    2 ar   
     2    2    3 ar   
     3    3    4 1    
     4    3    5 ar   
     5    5    6 ar   
     6    6    1 ar   
     7    5    7 1    
     8    7    8 1    
     9    7    9 1    
    10    7   10 1    
    11    2   11 1    
    12   11   12 ar   
    13   12   13 1    
    14   12   14 ar   
    15   14   15 1    
    16   14   16 ar   
    17   16   17 ar   
    18   17   18 1    
    19   17   19 ar   
    20   19   20 1    
    21   19   11 ar   
    22   16   21 1    
    23   21   22 2    
    24   21   23 2    
    25   21   24 1    
    26   24   25 1    
    27   24   26 1    
    28   24   27 1    
    29    1   28 1    
    30   28   29 ar   
    31   29   30 1    
    32   29   31 ar   
    33   31   32 1    
    34   31   33 ar   
    35   33   34 ar   
    36   34   35 1    
    37   34   36 ar   
    38   36   37 1    
    39   36   28 ar   
    40   33   38 1    
@<TRIPOS>SUBSTRUCTURE
     1 ****        1 TEMP              0 ****  ****    0 ROOT 
@<TRIPOS>SET
UNITY_3DHIT     STATIC     ATOMS    <user>   **** Atoms matching 3D or FLEX Search
0
