#	Name:			3-89
#	Creating user name:	jeff
#	Creation time:		Fri Dec 13 09:47:15 2002

#	Modifying user name:	jeff
#	Modification time:	Fri Dec 13 09:47:17 2002

@<TRIPOS>MOLECULE
3-89
   37    39     1     0     1
SMALL
USER_CHARGES
****
From 3DB ct
@<TRIPOS>ATOM
      1 C          26.408000   22.130000   16.460000 C.ar      1 <1>         0.165000 
      2 N          25.470000   21.460000   17.257000 N.pl3     1 <1>        -0.146900 
      3 C          26.199000   20.886000   18.283000 C.ar      1 <1>        -0.359200 
      4 H          25.739000   20.279000   19.051000 H         1 <1>         0.310800 
      5 C          27.495000   21.328000   18.154000 C.ar      1 <1>         0.191800 
      6 N          27.607000   22.114000   17.030000 N.ar      1 <1>        -0.562900 
      7 C          28.600000   21.029000   19.052000 C.2       1 <1>         0.481300 
      8 H          29.567000   21.480000   18.775000 H         1 <1>         0.061500 
      9 O          28.498000   20.325000   20.060000 O.2       1 <1>        -0.538000 
     10 C          24.049000   21.375000   17.121000 C.ar      1 <1>         0.419600 
     11 C          23.344000   22.259000   16.291000 C.ar      1 <1>        -0.400200 
     12 H          23.837000   23.060000   15.747000 H         1 <1>         0.221500 
     13 C          21.952000   22.171000   16.178000 C.ar      1 <1>         0.067200 
     14 H          21.425000   22.868000   15.529000 H         1 <1>         0.188700 
     15 C          21.255000   21.208000   16.909000 C.ar      1 <1>        -0.550600 
     16 C          21.940000   20.325000   17.744000 C.ar      1 <1>         0.020800 
     17 H          21.408000   19.565000   18.313000 H         1 <1>         0.193300 
     18 C          23.332000   20.416000   17.857000 C.ar      1 <1>        -0.323600 
     19 H          23.832000   19.697000   18.504000 H         1 <1>         0.215200 
     20 S          19.489000   21.086000   16.747000 S.o2      1 <1>         2.182200 
     21 O          18.962000   22.431000   16.531000 O.2       1 <1>        -0.961700 
     22 O          18.988000   20.319000   17.883000 O.2       1 <1>        -0.959100 
     23 C          19.266000   20.138000   15.265000 C.3       1 <1>        -0.734200 
     24 H          18.193000   20.022000   15.095000 H         1 <1>         0.245800 
     25 H          19.729000   19.158000   15.396000 H         1 <1>         0.196800 
     26 H          19.719000   20.674000   14.429000 H         1 <1>         0.192300 
     27 C          26.181000   22.707000   15.130000 C.ar      1 <1>         0.345100 
     28 C          26.441000   24.067000   14.909000 C.ar      1 <1>        -0.410100 
     29 H          26.790000   24.699000   15.725000 H         1 <1>         0.239200 
     30 C          26.251000   24.631000   13.643000 C.ar      1 <1>         0.313800 
     31 H          26.450000   25.689000   13.492000 H         1 <1>         0.069900 
     32 C          25.813000   23.832000   12.589000 C.ar      1 <1>        -0.669500 
     33 C          25.569000   22.475000   12.788000 C.ar      1 <1>         0.245300 
     34 H          25.235000   21.846000   11.966000 H         1 <1>         0.084200 
     35 C          25.759000   21.912000   14.054000 C.ar      1 <1>        -0.344600 
     36 H          25.577000   20.847000   14.189000 H         1 <1>         0.170400 
     37 Cl         25.580000   24.524000   11.030000 Cl        1 <1>         0.138900 
@<TRIPOS>BOND
     1    1    2 ar   
     2    2    3 ar   
     3    3    4 1    
     4    3    5 ar   
     5    5    6 ar   
     6    6    1 ar   
     7    5    7 1    
     8    7    8 1    
     9    7    9 2    
    10    2   10 1    
    11   10   11 ar   
    12   11   12 1    
    13   11   13 ar   
    14   13   14 1    
    15   13   15 ar   
    16   15   16 ar   
    17   16   17 1    
    18   16   18 ar   
    19   18   19 1    
    20   18   10 ar   
    21   15   20 1    
    22   20   21 2    
    23   20   22 2    
    24   20   23 1    
    25   23   24 1    
    26   23   25 1    
    27   23   26 1    
    28    1   27 1    
    29   27   28 ar   
    30   28   29 1    
    31   28   30 ar   
    32   30   31 1    
    33   30   32 ar   
    34   32   33 ar   
    35   33   34 1    
    36   33   35 ar   
    37   35   36 1    
    38   35   27 ar   
    39   32   37 1    
@<TRIPOS>SUBSTRUCTURE
     1 ****        1 TEMP              0 ****  ****    0 ROOT 
@<TRIPOS>SET
UNITY_3DHIT     STATIC     ATOMS    <user>   **** Atoms matching 3D or FLEX Search
0
