#	Name:			3-90
#	Creating user name:	jeff
#	Creation time:		Fri Dec 13 09:47:17 2002

#	Modifying user name:	jeff
#	Modification time:	Fri Dec 13 09:47:19 2002

@<TRIPOS>MOLECULE
3-90
   36    38     1     0     1
SMALL
USER_CHARGES
****
From 3DB ct
@<TRIPOS>ATOM
      1 C          26.409000   22.131000   16.460000 C.ar      1 <1>         0.095600 
      2 N          25.469000   21.458000   17.257000 N.pl3     1 <1>        -0.044900 
      3 C          26.197000   20.884000   18.284000 C.ar      1 <1>        -0.498700 
      4 H          25.742000   20.277000   19.054000 H         1 <1>         0.338200 
      5 C          27.483000   21.335000   18.144000 C.ar      1 <1>         0.424600 
      6 N          27.608000   22.118000   17.029000 N.ar      1 <1>        -0.488600 
      7 C          28.596000   21.068000   19.006000 C.1       1 <1>         0.047000 
      8 N          29.500000   20.851000   19.708000 N.1       1 <1>        -0.252600 
      9 C          24.048000   21.373000   17.120000 C.ar      1 <1>         0.384500 
     10 C          23.344000   22.258000   16.291000 C.ar      1 <1>        -0.405600 
     11 H          23.837000   23.059000   15.747000 H         1 <1>         0.229800 
     12 C          21.951000   22.170000   16.178000 C.ar      1 <1>         0.069500 
     13 H          21.424000   22.868000   15.530000 H         1 <1>         0.187700 
     14 C          21.255000   21.207000   16.910000 C.ar      1 <1>        -0.545800 
     15 C          21.939000   20.324000   17.745000 C.ar      1 <1>         0.022800 
     16 H          21.407000   19.564000   18.313000 H         1 <1>         0.192700 
     17 C          23.331000   20.414000   17.857000 C.ar      1 <1>        -0.318200 
     18 H          23.831000   19.695000   18.503000 H         1 <1>         0.210300 
     19 S          19.488000   21.088000   16.748000 S.o2      1 <1>         2.180800 
     20 O          18.963000   22.432000   16.527000 O.2       1 <1>        -0.961000 
     21 O          18.987000   20.326000   17.887000 O.2       1 <1>        -0.959700 
     22 C          19.264000   20.135000   15.269000 C.3       1 <1>        -0.727900 
     23 H          18.191000   20.019000   15.100000 H         1 <1>         0.244700 
     24 H          19.726000   19.156000   15.403000 H         1 <1>         0.195200 
     25 H          19.716000   20.668000   14.431000 H         1 <1>         0.191100 
     26 C          26.181000   22.707000   15.130000 C.ar      1 <1>         0.320900 
     27 C          26.441000   24.068000   14.908000 C.ar      1 <1>        -0.397200 
     28 H          26.791000   24.699000   15.724000 H         1 <1>         0.237400 
     29 C          26.252000   24.631000   13.643000 C.ar      1 <1>         0.310700 
     30 H          26.451000   25.689000   13.491000 H         1 <1>         0.070900 
     31 C          25.814000   23.832000   12.588000 C.ar      1 <1>        -0.659500 
     32 C          25.570000   22.475000   12.787000 C.ar      1 <1>         0.231900 
     33 H          25.238000   21.846000   11.965000 H         1 <1>         0.085800 
     34 C          25.760000   21.912000   14.053000 C.ar      1 <1>        -0.319100 
     35 H          25.579000   20.847000   14.188000 H         1 <1>         0.167200 
     36 Cl         25.581000   24.525000   11.030000 Cl        1 <1>         0.139100 
@<TRIPOS>BOND
     1    1    2 ar   
     2    2    3 ar   
     3    3    4 1    
     4    3    5 ar   
     5    5    6 ar   
     6    6    1 ar   
     7    5    7 1    
     8    7    8 3    
     9    2    9 1    
    10    9   10 ar   
    11   10   11 1    
    12   10   12 ar   
    13   12   13 1    
    14   12   14 ar   
    15   14   15 ar   
    16   15   16 1    
    17   15   17 ar   
    18   17   18 1    
    19   17    9 ar   
    20   14   19 1    
    21   19   20 2    
    22   19   21 2    
    23   19   22 1    
    24   22   23 1    
    25   22   24 1    
    26   22   25 1    
    27    1   26 1    
    28   26   27 ar   
    29   27   28 1    
    30   27   29 ar   
    31   29   30 1    
    32   29   31 ar   
    33   31   32 ar   
    34   32   33 1    
    35   32   34 ar   
    36   34   35 1    
    37   34   26 ar   
    38   31   36 1    
@<TRIPOS>SUBSTRUCTURE
     1 ****        1 TEMP              0 ****  ****    0 ROOT 
@<TRIPOS>SET
UNITY_3DHIT     STATIC     ATOMS    <user>   **** Atoms matching 3D or FLEX Search
0
