#	Name:			3-91
#	Creating user name:	jeff
#	Creation time:		Fri Dec 13 09:47:19 2002

#	Modifying user name:	jeff
#	Modification time:	Fri Dec 13 09:47:21 2002

@<TRIPOS>MOLECULE
3-91
   44    46     1     0     1
SMALL
USER_CHARGES
****
From 3DB ct
@<TRIPOS>ATOM
      1 C          26.408000   22.130000   16.460000 C.ar      1 <1>         0.232800 
      2 N          25.470000   21.460000   17.257000 N.pl3     1 <1>        -0.143100 
      3 C          26.199000   20.885000   18.281000 C.ar      1 <1>        -0.344700 
      4 H          25.742000   20.278000   19.051000 H         1 <1>         0.308600 
      5 C          27.498000   21.325000   18.155000 C.ar      1 <1>         0.093400 
      6 N          27.606000   22.113000   17.029000 N.ar      1 <1>        -0.543500 
      7 C          28.606000   21.020000   19.062000 C.2       1 <1>         0.865300 
      8 O          28.493000   20.314000   20.062000 O.2       1 <1>        -0.681700 
      9 O          29.775000   21.608000   18.667000 O.3       1 <1>        -0.469200 
     10 C          30.898000   21.344000   19.519000 C.3       1 <1>         0.284800 
     11 H          31.090000   20.266000   19.551000 H         1 <1>         0.031000 
     12 H          30.688000   21.712000   20.529000 H         1 <1>         0.029100 
     13 C          32.105000   22.064000   18.950000 C.3       1 <1>        -0.260800 
     14 H          32.990000   21.892000   19.569000 H         1 <1>         0.066600 
     15 H          31.918000   23.142000   18.891000 H         1 <1>         0.086400 
     16 H          32.314000   21.721000   17.931000 H         1 <1>         0.082200 
     17 C          24.049000   21.376000   17.123000 C.ar      1 <1>         0.408900 
     18 C          23.344000   22.260000   16.293000 C.ar      1 <1>        -0.412900 
     19 H          23.837000   23.062000   15.749000 H         1 <1>         0.224500 
     20 C          21.952000   22.172000   16.179000 C.ar      1 <1>         0.079200 
     21 H          21.425000   22.868000   15.529000 H         1 <1>         0.185500 
     22 C          21.256000   21.208000   16.909000 C.ar      1 <1>        -0.550500 
     23 C          21.940000   20.327000   17.746000 C.ar      1 <1>         0.016400 
     24 H          21.408000   19.566000   18.314000 H         1 <1>         0.193400 
     25 C          23.332000   20.417000   17.859000 C.ar      1 <1>        -0.313700 
     26 H          23.832000   19.699000   18.507000 H         1 <1>         0.213500 
     27 S          19.489000   21.085000   16.744000 S.o2      1 <1>         2.177500 
     28 O          18.962000   22.428000   16.526000 O.2       1 <1>        -0.960600 
     29 O          18.987000   20.318000   17.880000 O.2       1 <1>        -0.957700 
     30 C          19.270000   20.135000   15.263000 C.3       1 <1>        -0.735700 
     31 H          18.198000   20.017000   15.092000 H         1 <1>         0.246600 
     32 H          19.734000   19.156000   15.396000 H         1 <1>         0.197300 
     33 H          19.724000   20.670000   14.427000 H         1 <1>         0.192700 
     34 C          26.180000   22.707000   15.130000 C.ar      1 <1>         0.318700 
     35 C          26.441000   24.067000   14.909000 C.ar      1 <1>        -0.409400 
     36 H          26.791000   24.698000   15.725000 H         1 <1>         0.240100 
     37 C          26.251000   24.631000   13.644000 C.ar      1 <1>         0.317100 
     38 H          26.451000   25.689000   13.492000 H         1 <1>         0.068300 
     39 C          25.813000   23.833000   12.589000 C.ar      1 <1>        -0.668800 
     40 C          25.569000   22.476000   12.787000 C.ar      1 <1>         0.250900 
     41 H          25.236000   21.847000   11.965000 H         1 <1>         0.080900 
     42 C          25.759000   21.912000   14.053000 C.ar      1 <1>        -0.340300 
     43 H          25.578000   20.847000   14.187000 H         1 <1>         0.164700 
     44 Cl         25.579000   24.526000   11.031000 Cl        1 <1>         0.135900 
@<TRIPOS>BOND
     1    1    2 ar   
     2    2    3 ar   
     3    3    4 1    
     4    3    5 ar   
     5    5    6 ar   
     6    6    1 ar   
     7    5    7 1    
     8    7    8 2    
     9    7    9 1    
    10    9   10 1    
    11   10   11 1    
    12   10   12 1    
    13   10   13 1    
    14   13   14 1    
    15   13   15 1    
    16   13   16 1    
    17    2   17 1    
    18   17   18 ar   
    19   18   19 1    
    20   18   20 ar   
    21   20   21 1    
    22   20   22 ar   
    23   22   23 ar   
    24   23   24 1    
    25   23   25 ar   
    26   25   26 1    
    27   25   17 ar   
    28   22   27 1    
    29   27   28 2    
    30   27   29 2    
    31   27   30 1    
    32   30   31 1    
    33   30   32 1    
    34   30   33 1    
    35    1   34 1    
    36   34   35 ar   
    37   35   36 1    
    38   35   37 ar   
    39   37   38 1    
    40   37   39 ar   
    41   39   40 ar   
    42   40   41 1    
    43   40   42 ar   
    44   42   43 1    
    45   42   34 ar   
    46   39   44 1    
@<TRIPOS>SUBSTRUCTURE
     1 ****        1 TEMP              0 ****  ****    0 ROOT 
@<TRIPOS>SET
UNITY_3DHIT     STATIC     ATOMS    <user>   **** Atoms matching 3D or FLEX Search
0
