#	Name:			3-92
#	Creating user name:	jeff
#	Creation time:		Sun Dec 22 15:52:38 2002

#	Modifying user name:	jeff
#	Modification time:	Sun Dec 22 15:52:40 2002

@<TRIPOS>MOLECULE
3-92
   37    39     1     0     1
SMALL
USER_CHARGES
****
From 3DB ct
@<TRIPOS>ATOM
      1 C          26.409000   22.130000   16.460000 C.ar      1 <1>         0.083200 
      2 N          25.471000   21.460000   17.257000 N.pl3     1 <1>        -0.188000 
      3 C          26.199000   20.885000   18.281000 C.ar      1 <1>        -0.510200 
      4 H          25.743000   20.277000   19.050000 H         1 <1>         0.318600 
      5 C          27.498000   21.326000   18.157000 C.ar      1 <1>         0.352100 
      6 N          27.606000   22.115000   17.030000 N.ar      1 <1>        -0.530200 
      7 C          28.602000   21.020000   19.063000 C.2       1 <1>         0.710000 
      8 O          28.519000   20.320000   20.067000 O.2       1 <1>        -0.973800 
      9 O          29.782000   21.587000   18.709000 O.3       1 <1>        -0.903900 
     10 C          24.049000   21.375000   17.122000 C.ar      1 <1>         0.509700 
     11 C          23.345000   22.259000   16.292000 C.ar      1 <1>        -0.436500 
     12 H          23.837000   23.061000   15.749000 H         1 <1>         0.211800 
     13 C          21.952000   22.171000   16.178000 C.ar      1 <1>         0.078600 
     14 H          21.426000   22.868000   15.529000 H         1 <1>         0.170200 
     15 C          21.256000   21.208000   16.909000 C.ar      1 <1>        -0.592700 
     16 C          21.940000   20.326000   17.745000 C.ar      1 <1>         0.004500 
     17 H          21.408000   19.566000   18.313000 H         1 <1>         0.180700 
     18 C          23.332000   20.416000   17.858000 C.ar      1 <1>        -0.320200 
     19 H          23.831000   19.698000   18.505000 H         1 <1>         0.218400 
     20 S          19.489000   21.087000   16.745000 S.o2      1 <1>         2.190700 
     21 O          18.963000   22.431000   16.526000 O.2       1 <1>        -0.985600 
     22 O          18.987000   20.322000   17.883000 O.2       1 <1>        -0.979800 
     23 C          19.267000   20.135000   15.266000 C.3       1 <1>        -0.750800 
     24 H          18.195000   20.019000   15.095000 H         1 <1>         0.229200 
     25 H          19.730000   19.156000   15.399000 H         1 <1>         0.196600 
     26 H          19.721000   20.669000   14.428000 H         1 <1>         0.190000 
     27 C          26.181000   22.707000   15.131000 C.ar      1 <1>         0.403500 
     28 C          26.441000   24.067000   14.909000 C.ar      1 <1>        -0.421300 
     29 H          26.792000   24.698000   15.724000 H         1 <1>         0.246800 
     30 C          26.249000   24.630000   13.643000 C.ar      1 <1>         0.299300 
     31 H          26.449000   25.689000   13.491000 H         1 <1>         0.057300 
     32 C          25.809000   23.832000   12.590000 C.ar      1 <1>        -0.669400 
     33 C          25.566000   22.475000   12.789000 C.ar      1 <1>         0.210400 
     34 H          25.231000   21.845000   11.968000 H         1 <1>         0.075400 
     35 C          25.758000   21.912000   14.055000 C.ar      1 <1>        -0.342700 
     36 H          25.576000   20.847000   14.190000 H         1 <1>         0.161600 
     37 Cl         25.573000   24.524000   11.031000 Cl        1 <1>         0.084700 
@<TRIPOS>BOND
     1    1    2 ar   
     2    2    3 ar   
     3    3    4 1    
     4    3    5 ar   
     5    5    6 ar   
     6    6    1 ar   
     7    5    7 1    
     8    7    8 2    
     9    7    9 1    
    10    2   10 1    
    11   10   11 ar   
    12   11   12 1    
    13   11   13 ar   
    14   13   14 1    
    15   13   15 ar   
    16   15   16 ar   
    17   16   17 1    
    18   16   18 ar   
    19   18   19 1    
    20   18   10 ar   
    21   15   20 1    
    22   20   21 2    
    23   20   22 2    
    24   20   23 1    
    25   23   24 1    
    26   23   25 1    
    27   23   26 1    
    28    1   27 1    
    29   27   28 ar   
    30   28   29 1    
    31   28   30 ar   
    32   30   31 1    
    33   30   32 ar   
    34   32   33 ar   
    35   33   34 1    
    36   33   35 ar   
    37   35   36 1    
    38   35   27 ar   
    39   32   37 1    
@<TRIPOS>SUBSTRUCTURE
     1 ****        1 TEMP              0 ****  ****    0 ROOT 
@<TRIPOS>SET
UNITY_3DHIT     STATIC     ATOMS    <user>   **** Atoms matching 3D or FLEX Search
0
