#	Name:			3-96
#	Creating user name:	jeff
#	Creation time:		Fri Dec 13 09:47:24 2002

#	Modifying user name:	jeff
#	Modification time:	Fri Dec 13 09:47:26 2002

@<TRIPOS>MOLECULE
3-96
   45    48     1     0     1
SMALL
USER_CHARGES
****
From 3DB ct
@<TRIPOS>ATOM
      1 C          26.408000   22.129000   16.460000 C.ar      1 <1>         0.128500 
      2 N          25.470000   21.461000   17.257000 N.pl3     1 <1>        -0.118600 
      3 C          26.200000   20.888000   18.285000 C.ar      1 <1>        -0.507400 
      4 H          25.729000   20.287000   19.048000 H         1 <1>         0.328900 
      5 C          27.494000   21.329000   18.150000 C.ar      1 <1>         0.373800 
      6 N          27.605000   22.110000   17.030000 N.ar      1 <1>        -0.526700 
      7 C          28.614000   21.042000   19.037000 C.ar      1 <1>        -0.105500 
      8 C          28.481000   20.223000   20.169000 C.ar      1 <1>        -0.161300 
      9 H          27.526000   19.769000   20.427000 H         1 <1>         0.138800 
     10 C          29.576000   19.967000   21.000000 C.ar      1 <1>        -0.147100 
     11 H          29.456000   19.329000   21.875000 H         1 <1>         0.144800 
     12 C          30.820000   20.524000   20.712000 C.ar      1 <1>        -0.120700 
     13 H          31.671000   20.324000   21.360000 H         1 <1>         0.144200 
     14 C          30.970000   21.339000   19.593000 C.ar      1 <1>        -0.214000 
     15 H          31.940000   21.777000   19.363000 H         1 <1>         0.162400 
     16 C          29.875000   21.595000   18.762000 C.ar      1 <1>        -0.013300 
     17 H          30.017000   22.235000   17.892000 H         1 <1>         0.135400 
     18 C          24.049000   21.375000   17.121000 C.ar      1 <1>         0.432200 
     19 C          23.345000   22.260000   16.291000 C.ar      1 <1>        -0.418200 
     20 H          23.839000   23.061000   15.747000 H         1 <1>         0.227300 
     21 C          21.953000   22.172000   16.177000 C.ar      1 <1>         0.073000 
     22 H          21.426000   22.869000   15.528000 H         1 <1>         0.184600 
     23 C          21.256000   21.209000   16.908000 C.ar      1 <1>        -0.560600 
     24 C          21.941000   20.326000   17.744000 C.ar      1 <1>         0.025800 
     25 H          21.408000   19.566000   18.311000 H         1 <1>         0.191200 
     26 C          23.332000   20.416000   17.857000 C.ar      1 <1>        -0.328500 
     27 H          23.832000   19.698000   18.504000 H         1 <1>         0.206800 
     28 S          19.489000   21.085000   16.746000 S.o2      1 <1>         2.185400 
     29 O          18.962000   22.430000   16.536000 O.2       1 <1>        -0.964700 
     30 O          18.989000   20.312000   17.879000 O.2       1 <1>        -0.964200 
     31 C          19.268000   20.142000   15.261000 C.3       1 <1>        -0.732400 
     32 H          18.196000   20.022000   15.093000 H         1 <1>         0.243100 
     33 H          19.736000   19.164000   15.388000 H         1 <1>         0.194900 
     34 H          19.717000   20.683000   14.426000 H         1 <1>         0.191800 
     35 C          26.181000   22.706000   15.130000 C.ar      1 <1>         0.342200 
     36 C          26.441000   24.067000   14.909000 C.ar      1 <1>        -0.395600 
     37 H          26.792000   24.697000   15.726000 H         1 <1>         0.232800 
     38 C          26.250000   24.632000   13.644000 C.ar      1 <1>         0.300300 
     39 H          26.450000   25.690000   13.494000 H         1 <1>         0.070900 
     40 C          25.810000   23.834000   12.590000 C.ar      1 <1>        -0.662800 
     41 C          25.566000   22.477000   12.788000 C.ar      1 <1>         0.248900 
     42 H          25.231000   21.849000   11.966000 H         1 <1>         0.079700 
     43 C          25.758000   21.913000   14.053000 C.ar      1 <1>        -0.350700 
     44 H          25.576000   20.848000   14.187000 H         1 <1>         0.173400 
     45 Cl         25.575000   24.529000   11.033000 Cl        1 <1>         0.131200 
@<TRIPOS>BOND
     1    1    2 ar   
     2    2    3 ar   
     3    3    4 1    
     4    3    5 ar   
     5    5    6 ar   
     6    6    1 ar   
     7    5    7 1    
     8    7    8 ar   
     9    8    9 1    
    10    8   10 ar   
    11   10   11 1    
    12   10   12 ar   
    13   12   13 1    
    14   12   14 ar   
    15   14   15 1    
    16   14   16 ar   
    17   16   17 1    
    18   16    7 ar   
    19    2   18 1    
    20   18   19 ar   
    21   19   20 1    
    22   19   21 ar   
    23   21   22 1    
    24   21   23 ar   
    25   23   24 ar   
    26   24   25 1    
    27   24   26 ar   
    28   26   27 1    
    29   26   18 ar   
    30   23   28 1    
    31   28   29 2    
    32   28   30 2    
    33   28   31 1    
    34   31   32 1    
    35   31   33 1    
    36   31   34 1    
    37    1   35 1    
    38   35   36 ar   
    39   36   37 1    
    40   36   38 ar   
    41   38   39 1    
    42   38   40 ar   
    43   40   41 ar   
    44   41   42 1    
    45   41   43 ar   
    46   43   44 1    
    47   43   35 ar   
    48   40   45 1    
@<TRIPOS>SUBSTRUCTURE
     1 ****        1 TEMP              0 ****  ****    0 ROOT 
@<TRIPOS>SET
UNITY_3DHIT     STATIC     ATOMS    <user>   **** Atoms matching 3D or FLEX Search
0
