#	Name:			3-99
#	Creating user name:	jeff
#	Creation time:		Fri Dec 13 09:47:26 2002

#	Modifying user name:	jeff
#	Modification time:	Fri Dec 13 09:47:28 2002

@<TRIPOS>MOLECULE
3-99
   42    44     1     0     1
SMALL
USER_CHARGES
****
From 3DB ct
@<TRIPOS>ATOM
      1 C          26.409000   22.130000   16.460000 C.ar      1 <1>         0.225800 
      2 N          25.469000   21.461000   17.256000 N.pl3     1 <1>        -0.213300 
      3 C          26.198000   20.887000   18.282000 C.ar      1 <1>        -0.397400 
      4 H          25.741000   20.284000   19.053000 H         1 <1>         0.297300 
      5 C          27.494000   21.331000   18.153000 C.ar      1 <1>         0.306300 
      6 N          27.607000   22.113000   17.031000 N.ar      1 <1>        -0.614300 
      7 C          28.664000   21.065000   19.042000 C.3       1 <1>         0.072400 
      8 H          29.585000   21.075000   18.447000 H         1 <1>         0.108500 
      9 H          28.558000   20.076000   19.503000 H         1 <1>         0.066800 
     10 O          28.755000   22.063000   20.073000 O.3       1 <1>        -0.436300 
     11 C          29.876000   21.815000   20.919000 C.3       1 <1>         0.024300 
     12 H          29.905000   22.594000   21.685000 H         1 <1>         0.090500 
     13 H          30.806000   21.854000   20.343000 H         1 <1>         0.044900 
     14 H          29.775000   20.843000   21.412000 H         1 <1>         0.045800 
     15 C          24.048000   21.375000   17.120000 C.ar      1 <1>         0.479600 
     16 C          23.343000   22.259000   16.290000 C.ar      1 <1>        -0.423300 
     17 H          23.837000   23.061000   15.747000 H         1 <1>         0.223000 
     18 C          21.951000   22.171000   16.177000 C.ar      1 <1>         0.066700 
     19 H          21.424000   22.869000   15.528000 H         1 <1>         0.186500 
     20 C          21.255000   21.208000   16.909000 C.ar      1 <1>        -0.555200 
     21 C          21.940000   20.326000   17.744000 C.ar      1 <1>         0.021800 
     22 H          21.407000   19.565000   18.312000 H         1 <1>         0.191700 
     23 C          23.332000   20.416000   17.857000 C.ar      1 <1>        -0.343100 
     24 H          23.832000   19.698000   18.504000 H         1 <1>         0.225300 
     25 S          19.488000   21.084000   16.749000 S.o2      1 <1>         2.185600 
     26 O          18.960000   22.430000   16.543000 O.2       1 <1>        -0.966000 
     27 O          18.989000   20.308000   17.880000 O.2       1 <1>        -0.962300 
     28 C          19.265000   20.145000   15.261000 C.3       1 <1>        -0.737600 
     29 H          18.192000   20.027000   15.093000 H         1 <1>         0.243500 
     30 H          19.731000   19.166000   15.386000 H         1 <1>         0.196100 
     31 H          19.714000   20.687000   14.428000 H         1 <1>         0.193000 
     32 C          26.183000   22.707000   15.130000 C.ar      1 <1>         0.347900 
     33 C          26.443000   24.067000   14.908000 C.ar      1 <1>        -0.415400 
     34 H          26.793000   24.698000   15.725000 H         1 <1>         0.238800 
     35 C          26.251000   24.631000   13.643000 C.ar      1 <1>         0.313200 
     36 H          26.451000   25.689000   13.492000 H         1 <1>         0.069100 
     37 C          25.812000   23.834000   12.589000 C.ar      1 <1>        -0.675100 
     38 C          25.568000   22.476000   12.788000 C.ar      1 <1>         0.261200 
     39 H          25.233000   21.847000   11.966000 H         1 <1>         0.079100 
     40 C          25.760000   21.913000   14.053000 C.ar      1 <1>        -0.367700 
     41 H          25.578000   20.848000   14.188000 H         1 <1>         0.170500 
     42 Cl         25.576000   24.527000   11.032000 Cl        1 <1>         0.131900 
@<TRIPOS>BOND
     1    1    2 ar   
     2    2    3 ar   
     3    3    4 1    
     4    3    5 ar   
     5    5    6 ar   
     6    6    1 ar   
     7    5    7 1    
     8    7    8 1    
     9    7    9 1    
    10    7   10 1    
    11   10   11 1    
    12   11   12 1    
    13   11   13 1    
    14   11   14 1    
    15    2   15 1    
    16   15   16 ar   
    17   16   17 1    
    18   16   18 ar   
    19   18   19 1    
    20   18   20 ar   
    21   20   21 ar   
    22   21   22 1    
    23   21   23 ar   
    24   23   24 1    
    25   23   15 ar   
    26   20   25 1    
    27   25   26 2    
    28   25   27 2    
    29   25   28 1    
    30   28   29 1    
    31   28   30 1    
    32   28   31 1    
    33    1   32 1    
    34   32   33 ar   
    35   33   34 1    
    36   33   35 ar   
    37   35   36 1    
    38   35   37 ar   
    39   37   38 ar   
    40   38   39 1    
    41   38   40 ar   
    42   40   41 1    
    43   40   32 ar   
    44   37   42 1    
@<TRIPOS>SUBSTRUCTURE
     1 ****        1 TEMP              0 ****  ****    0 ROOT 
@<TRIPOS>SET
UNITY_3DHIT     STATIC     ATOMS    <user>   **** Atoms matching 3D or FLEX Search
0
