#	Name:			4-25
#	Creating user name:	jeff
#	Creation time:		Fri Dec 13 09:47:35 2002

#	Modifying user name:	jeff
#	Modification time:	Fri Dec 13 09:47:37 2002

@<TRIPOS>MOLECULE
4-25
   37    39     1     0     1
SMALL
USER_CHARGES
****
From 3DB ct
@<TRIPOS>ATOM
      1 C          26.406000   22.135000   16.466000 C.ar      1 <1>         0.368200 
      2 N          25.470000   21.455000   17.256000 N.pl3     1 <1>        -0.129200 
      3 C          26.199000   20.873000   18.277000 C.ar      1 <1>        -0.235200 
      4 H          25.741000   20.257000   19.038000 H         1 <1>         0.294100 
      5 C          27.498000   21.323000   18.166000 C.ar      1 <1>        -0.233700 
      6 N          27.601000   22.123000   17.041000 N.ar      1 <1>        -0.458400 
      7 C          28.664000   21.042000   19.069000 C.3       1 <1>         1.493600 
      8 F          29.131000   22.172000   19.676000 F         1 <1>        -0.437200 
      9 F          29.722000   20.501000   18.397000 F         1 <1>        -0.440500 
     10 F          28.360000   20.167000   20.071000 F         1 <1>        -0.472400 
     11 C          24.050000   21.368000   17.117000 C.ar      1 <1>         0.356700 
     12 C          23.347000   22.255000   16.289000 C.ar      1 <1>        -0.371600 
     13 H          23.841000   23.062000   15.752000 H         1 <1>         0.223400 
     14 C          21.955000   22.168000   16.173000 C.ar      1 <1>         0.059300 
     15 H          21.429000   22.871000   15.530000 H         1 <1>         0.190200 
     16 C          21.259000   21.193000   16.889000 C.ar      1 <1>        -0.548800 
     17 C          21.941000   20.320000   17.737000 C.ar      1 <1>         0.026100 
     18 H          21.407000   19.562000   18.308000 H         1 <1>         0.194800 
     19 C          23.332000   20.410000   17.853000 C.ar      1 <1>        -0.295600 
     20 H          23.831000   19.695000   18.504000 H         1 <1>         0.206200 
     21 S          19.488000   21.098000   16.759000 S.o2      1 <1>         2.188700 
     22 O          18.978000   22.455000   16.588000 O.2       1 <1>        -0.964700 
     23 O          18.995000   20.309000   17.884000 O.2       1 <1>        -0.960700 
     24 C          19.225000   20.190000   15.259000 C.3       1 <1>        -0.727800 
     25 H          18.148000   20.088000   15.109000 H         1 <1>         0.243300 
     26 H          19.681000   19.203000   15.356000 H         1 <1>         0.195700 
     27 H          19.665000   20.741000   14.427000 H         1 <1>         0.196600 
     28 C          26.181000   22.714000   15.140000 C.ar      1 <1>        -0.383300 
     29 C          26.435000   24.068000   14.902000 C.ar      1 <1>         0.175600 
     30 H          26.780000   24.715000   15.707000 H         1 <1>         0.156600 
     31 C          26.242000   24.598000   13.628000 C.ar      1 <1>        -0.508900 
     32 H          26.427000   25.649000   13.427000 H         1 <1>         0.217600 
     33 C          25.813000   23.753000   12.618000 C.ar      1 <1>         0.442000 
     34 H          25.652000   24.131000   11.611000 H         1 <1>         0.099500 
     35 N          25.575000   22.432000   12.798000 N.ar      1 <1>        -0.711300 
     36 C          25.771000   21.945000   14.053000 C.ar      1 <1>         0.487500 
     37 H          25.587000   20.877000   14.158000 H         1 <1>         0.063400 
@<TRIPOS>BOND
     1    1    2 ar   
     2    2    3 ar   
     3    3    4 1    
     4    3    5 ar   
     5    5    6 ar   
     6    6    1 ar   
     7    5    7 1    
     8    7    8 1    
     9    7    9 1    
    10    7   10 1    
    11    2   11 1    
    12   11   12 ar   
    13   12   13 1    
    14   12   14 ar   
    15   14   15 1    
    16   14   16 ar   
    17   16   17 ar   
    18   17   18 1    
    19   17   19 ar   
    20   19   20 1    
    21   19   11 ar   
    22   16   21 1    
    23   21   22 2    
    24   21   23 2    
    25   21   24 1    
    26   24   25 1    
    27   24   26 1    
    28   24   27 1    
    29    1   28 1    
    30   28   29 ar   
    31   29   30 1    
    32   29   31 ar   
    33   31   32 1    
    34   31   33 ar   
    35   33   34 1    
    36   33   35 ar   
    37   35   36 ar   
    38   36   37 1    
    39   36   28 ar   
@<TRIPOS>SUBSTRUCTURE
     1 ****        1 TEMP              0 ****  ****    0 ROOT 
@<TRIPOS>SET
UNITY_3DHIT     STATIC     ATOMS    <user>   **** Atoms matching 3D or FLEX Search
0
