#	Name:			4-36
#	Creating user name:	jeff
#	Creation time:		Fri Dec 13 09:47:37 2002

#	Modifying user name:	jeff
#	Modification time:	Fri Dec 13 09:47:39 2002

@<TRIPOS>MOLECULE
4-36
   40    42     1     0     1
SMALL
USER_CHARGES
****
From 3DB ct
@<TRIPOS>ATOM
      1 C          26.413000   22.111000   16.451000 C.ar      1 <1>         0.570400 
      2 N          25.467000   21.483000   17.272000 N.pl3     1 <1>        -0.248200 
      3 C          26.192000   20.933000   18.314000 C.ar      1 <1>        -0.200000 
      4 H          25.728000   20.370000   19.111000 H         1 <1>         0.296200 
      5 C          27.507000   21.322000   18.159000 C.ar      1 <1>        -0.292200 
      6 N          27.620000   22.065000   16.998000 N.ar      1 <1>        -0.466100 
      7 C          28.678000   21.036000   19.054000 C.3       1 <1>         1.544300 
      8 F          29.200000   22.173000   19.601000 F         1 <1>        -0.445800 
      9 F          29.701000   20.423000   18.390000 F         1 <1>        -0.449100 
     10 F          28.358000   20.220000   20.101000 F         1 <1>        -0.484000 
     11 C          24.044000   21.394000   17.133000 C.ar      1 <1>         0.395700 
     12 C          23.334000   22.267000   16.296000 C.ar      1 <1>        -0.328700 
     13 H          23.814000   23.076000   15.756000 H         1 <1>         0.204600 
     14 C          21.943000   22.162000   16.173000 C.ar      1 <1>         0.048300 
     15 H          21.413000   22.856000   15.523000 H         1 <1>         0.190700 
     16 C          21.253000   21.182000   16.888000 C.ar      1 <1>        -0.559900 
     17 C          21.940000   20.321000   17.743000 C.ar      1 <1>         0.029100 
     18 H          21.413000   19.559000   18.312000 H         1 <1>         0.195400 
     19 C          23.331000   20.429000   17.866000 C.ar      1 <1>        -0.307600 
     20 H          23.830000   19.717000   18.520000 H         1 <1>         0.206500 
     21 S          19.485000   21.066000   16.744000 S.o2      1 <1>         2.193900 
     22 O          18.960000   22.416000   16.567000 O.2       1 <1>        -0.964600 
     23 O          18.993000   20.272000   17.866000 O.2       1 <1>        -0.961900 
     24 C          19.245000   20.151000   15.244000 C.3       1 <1>        -0.729300 
     25 H          18.171000   20.035000   15.086000 H         1 <1>         0.243900 
     26 H          19.713000   19.170000   15.347000 H         1 <1>         0.195300 
     27 H          19.686000   20.707000   14.414000 H         1 <1>         0.196100 
     28 C          26.183000   22.692000   15.126000 C.ar      1 <1>        -0.673500 
     29 C          26.457000   24.052000   14.925000 C.ar      1 <1>         0.220100 
     30 H          26.818000   24.668000   15.746000 H         1 <1>         0.148400 
     31 C          26.260000   24.627000   13.673000 C.ar      1 <1>        -0.492700 
     32 H          26.458000   25.681000   13.504000 H         1 <1>         0.211700 
     33 C          25.807000   23.821000   12.647000 C.ar      1 <1>         0.399100 
     34 H          25.636000   24.231000   11.654000 H         1 <1>         0.116400 
     35 N          25.554000   22.499000   12.790000 N.ar      1 <1>        -0.744700 
     36 C          25.756000   21.943000   14.019000 C.ar      1 <1>         0.829100 
     37 C          25.499000   20.464000   14.108000 C.3       1 <1>        -0.472400 
     38 H          25.358000   20.039000   13.108000 H         1 <1>         0.144200 
     39 H          24.593000   20.264000   14.685000 H         1 <1>         0.101000 
     40 H          26.349000   19.948000   14.566000 H         1 <1>         0.140200 
@<TRIPOS>BOND
     1    1    2 ar   
     2    2    3 ar   
     3    3    4 1    
     4    3    5 ar   
     5    5    6 ar   
     6    6    1 ar   
     7    5    7 1    
     8    7    8 1    
     9    7    9 1    
    10    7   10 1    
    11    2   11 1    
    12   11   12 ar   
    13   12   13 1    
    14   12   14 ar   
    15   14   15 1    
    16   14   16 ar   
    17   16   17 ar   
    18   17   18 1    
    19   17   19 ar   
    20   19   20 1    
    21   19   11 ar   
    22   16   21 1    
    23   21   22 2    
    24   21   23 2    
    25   21   24 1    
    26   24   25 1    
    27   24   26 1    
    28   24   27 1    
    29    1   28 1    
    30   28   29 ar   
    31   29   30 1    
    32   29   31 ar   
    33   31   32 1    
    34   31   33 ar   
    35   33   34 1    
    36   33   35 ar   
    37   35   36 ar   
    38   36   28 ar   
    39   36   37 1    
    40   37   38 1    
    41   37   39 1    
    42   37   40 1    
@<TRIPOS>SUBSTRUCTURE
     1 ****        1 TEMP              0 ****  ****    0 ROOT 
@<TRIPOS>SET
UNITY_3DHIT     STATIC     ATOMS    <user>   **** Atoms matching 3D or FLEX Search
0
