#	Name:			4-40
#	Creating user name:	jeff
#	Creation time:		Fri Dec 13 09:47:46 2002

#	Modifying user name:	jeff
#	Modification time:	Fri Dec 13 09:47:48 2002

@<TRIPOS>MOLECULE
4-40
   41    43     1     0     1
SMALL
USER_CHARGES
****
From 3DB ct
@<TRIPOS>ATOM
      1 C          26.406000   22.134000   16.466000 C.ar      1 <1>         0.517600 
      2 N          25.470000   21.455000   17.257000 N.pl3     1 <1>        -0.245700 
      3 C          26.199000   20.873000   18.277000 C.ar      1 <1>        -0.182400 
      4 H          25.741000   20.257000   19.038000 H         1 <1>         0.287800 
      5 C          27.499000   21.322000   18.165000 C.ar      1 <1>        -0.288500 
      6 N          27.602000   22.122000   17.040000 N.ar      1 <1>        -0.459100 
      7 C          28.666000   21.041000   19.067000 C.3       1 <1>         1.519600 
      8 F          29.160000   22.176000   19.642000 F         1 <1>        -0.441200 
      9 F          29.707000   20.462000   18.401000 F         1 <1>        -0.445300 
     10 F          28.352000   20.197000   20.093000 F         1 <1>        -0.476900 
     11 C          24.050000   21.369000   17.118000 C.ar      1 <1>         0.402100 
     12 C          23.348000   22.256000   16.289000 C.ar      1 <1>        -0.354500 
     13 H          23.842000   23.063000   15.755000 H         1 <1>         0.219800 
     14 C          21.956000   22.168000   16.173000 C.ar      1 <1>         0.045500 
     15 H          21.429000   22.871000   15.530000 H         1 <1>         0.192200 
     16 C          21.259000   21.193000   16.889000 C.ar      1 <1>        -0.546500 
     17 C          21.941000   20.320000   17.738000 C.ar      1 <1>         0.023900 
     18 H          21.407000   19.563000   18.308000 H         1 <1>         0.196400 
     19 C          23.332000   20.411000   17.854000 C.ar      1 <1>        -0.314200 
     20 H          23.831000   19.695000   18.506000 H         1 <1>         0.211000 
     21 S          19.488000   21.098000   16.758000 S.o2      1 <1>         2.196900 
     22 O          18.978000   22.454000   16.586000 O.2       1 <1>        -0.967200 
     23 O          18.996000   20.308000   17.882000 O.2       1 <1>        -0.964700 
     24 C          19.226000   20.189000   15.258000 C.3       1 <1>        -0.729500 
     25 H          18.150000   20.086000   15.107000 H         1 <1>         0.242800 
     26 H          19.683000   19.202000   15.355000 H         1 <1>         0.196000 
     27 H          19.667000   20.741000   14.425000 H         1 <1>         0.198400 
     28 C          26.180000   22.714000   15.141000 C.ar      1 <1>        -0.558900 
     29 C          26.434000   24.067000   14.903000 C.ar      1 <1>         0.170000 
     30 H          26.779000   24.715000   15.707000 H         1 <1>         0.179200 
     31 C          26.241000   24.597000   13.628000 C.ar      1 <1>        -0.631800 
     32 H          26.428000   25.648000   13.431000 H         1 <1>         0.230000 
     33 C          25.812000   23.750000   12.619000 C.ar      1 <1>         0.977100 
     34 N          25.575000   22.434000   12.798000 N.ar      1 <1>        -0.836100 
     35 C          25.771000   21.946000   14.052000 C.ar      1 <1>         0.558500 
     36 H          25.588000   20.878000   14.156000 H         1 <1>         0.083700 
     37 O          25.636000   24.317000   11.374000 O.3       1 <1>        -0.476300 
     38 C          25.925000   25.714000   11.341000 C.3       1 <1>         0.106100 
     39 H          25.759000   26.064000   10.317000 H         1 <1>         0.102300 
     40 H          26.974000   25.907000   11.594000 H         1 <1>         0.034600 
     41 H          25.251000   26.273000   11.998000 H         1 <1>         0.027200 
@<TRIPOS>BOND
     1    1    2 ar   
     2    2    3 ar   
     3    3    4 1    
     4    3    5 ar   
     5    5    6 ar   
     6    6    1 ar   
     7    5    7 1    
     8    7    8 1    
     9    7    9 1    
    10    7   10 1    
    11    2   11 1    
    12   11   12 ar   
    13   12   13 1    
    14   12   14 ar   
    15   14   15 1    
    16   14   16 ar   
    17   16   17 ar   
    18   17   18 1    
    19   17   19 ar   
    20   19   20 1    
    21   19   11 ar   
    22   16   21 1    
    23   21   22 2    
    24   21   23 2    
    25   21   24 1    
    26   24   25 1    
    27   24   26 1    
    28   24   27 1    
    29    1   28 1    
    30   28   29 ar   
    31   29   30 1    
    32   29   31 ar   
    33   31   32 1    
    34   31   33 ar   
    35   33   34 ar   
    36   34   35 ar   
    37   35   36 1    
    38   35   28 ar   
    39   33   37 1    
    40   37   38 1    
    41   38   39 1    
    42   38   40 1    
    43   38   41 1    
@<TRIPOS>SUBSTRUCTURE
     1 ****        1 TEMP              0 ****  ****    0 ROOT 
@<TRIPOS>SET
UNITY_3DHIT     STATIC     ATOMS    <user>   **** Atoms matching 3D or FLEX Search
0
