#	Name:			4-41
#	Creating user name:	jeff
#	Creation time:		Fri Dec 13 09:47:48 2002

#	Modifying user name:	jeff
#	Modification time:	Fri Dec 13 09:47:50 2002

@<TRIPOS>MOLECULE
4-41
   41    43     1     0     1
SMALL
USER_CHARGES
****
From 3DB ct
@<TRIPOS>ATOM
      1 C          26.404000   22.133000   16.464000 C.ar      1 <1>         0.501500 
      2 N          25.469000   21.455000   17.256000 N.pl3     1 <1>        -0.201300 
      3 C          26.198000   20.876000   18.278000 C.ar      1 <1>        -0.201100 
      4 H          25.741000   20.261000   19.041000 H         1 <1>         0.291800 
      5 C          27.498000   21.325000   18.166000 C.ar      1 <1>        -0.279600 
      6 N          27.600000   22.123000   17.039000 N.ar      1 <1>        -0.462200 
      7 C          28.664000   21.048000   19.069000 C.3       1 <1>         1.527200 
      8 F          29.124000   22.178000   19.681000 F         1 <1>        -0.443400 
      9 F          29.725000   20.514000   18.396000 F         1 <1>        -0.446700 
     10 F          28.363000   20.167000   20.068000 F         1 <1>        -0.478500 
     11 C          24.049000   21.368000   17.118000 C.ar      1 <1>         0.358600 
     12 C          23.346000   22.255000   16.290000 C.ar      1 <1>        -0.325500 
     13 H          23.839000   23.062000   15.754000 H         1 <1>         0.203500 
     14 C          21.954000   22.167000   16.174000 C.ar      1 <1>         0.039600 
     15 H          21.427000   22.870000   15.531000 H         1 <1>         0.196500 
     16 C          21.258000   21.192000   16.890000 C.ar      1 <1>        -0.552500 
     17 C          21.940000   20.319000   17.739000 C.ar      1 <1>         0.021900 
     18 H          21.406000   19.562000   18.310000 H         1 <1>         0.194500 
     19 C          23.332000   20.410000   17.854000 C.ar      1 <1>        -0.283100 
     20 H          23.831000   19.695000   18.506000 H         1 <1>         0.203300 
     21 S          19.487000   21.096000   16.761000 S.o2      1 <1>         2.197000 
     22 O          18.976000   22.453000   16.590000 O.2       1 <1>        -0.966900 
     23 O          18.996000   20.306000   17.886000 O.2       1 <1>        -0.962900 
     24 C          19.224000   20.188000   15.261000 C.3       1 <1>        -0.724100 
     25 H          18.147000   20.085000   15.112000 H         1 <1>         0.242300 
     26 H          19.681000   19.201000   15.358000 H         1 <1>         0.194400 
     27 H          19.663000   20.740000   14.429000 H         1 <1>         0.195600 
     28 C          26.180000   22.710000   15.137000 C.ar      1 <1>        -0.470400 
     29 C          26.434000   24.066000   14.899000 C.ar      1 <1>         0.029000 
     30 H          26.777000   24.703000   15.713000 H         1 <1>         0.157100 
     31 C          26.250000   24.609000   13.628000 C.ar      1 <1>         0.156100 
     32 C          25.821000   23.753000   12.620000 C.ar      1 <1>         0.202300 
     33 H          25.651000   24.097000   11.603000 H         1 <1>         0.155200 
     34 N          25.581000   22.428000   12.799000 N.ar      1 <1>        -0.617900 
     35 C          25.773000   21.939000   14.052000 C.ar      1 <1>         0.422400 
     36 H          25.590000   20.871000   14.156000 H         1 <1>         0.074100 
     37 O          26.517000   25.944000   13.516000 O.3       1 <1>        -0.445300 
     38 C          26.947000   26.608000   14.704000 C.3       1 <1>         0.157400 
     39 H          27.120000   27.659000   14.454000 H         1 <1>         0.079900 
     40 H          27.891000   26.190000   15.068000 H         1 <1>         0.033300 
     41 H          26.172000   26.570000   15.477000 H         1 <1>         0.026700 
@<TRIPOS>BOND
     1    1    2 ar   
     2    2    3 ar   
     3    3    4 1    
     4    3    5 ar   
     5    5    6 ar   
     6    6    1 ar   
     7    5    7 1    
     8    7    8 1    
     9    7    9 1    
    10    7   10 1    
    11    2   11 1    
    12   11   12 ar   
    13   12   13 1    
    14   12   14 ar   
    15   14   15 1    
    16   14   16 ar   
    17   16   17 ar   
    18   17   18 1    
    19   17   19 ar   
    20   19   20 1    
    21   19   11 ar   
    22   16   21 1    
    23   21   22 2    
    24   21   23 2    
    25   21   24 1    
    26   24   25 1    
    27   24   26 1    
    28   24   27 1    
    29    1   28 1    
    30   28   29 ar   
    31   29   30 1    
    32   29   31 ar   
    33   31   32 ar   
    34   32   33 1    
    35   32   34 ar   
    36   34   35 ar   
    37   35   36 1    
    38   35   28 ar   
    39   31   37 1    
    40   37   38 1    
    41   38   39 1    
    42   38   40 1    
    43   38   41 1    
@<TRIPOS>SUBSTRUCTURE
     1 ****        1 TEMP              0 ****  ****    0 ROOT 
@<TRIPOS>SET
UNITY_3DHIT     STATIC     ATOMS    <user>   **** Atoms matching 3D or FLEX Search
0
