#	Name:			4-42
#	Creating user name:	jeff
#	Creation time:		Fri Dec 13 09:47:51 2002

#	Modifying user name:	jeff
#	Modification time:	Fri Dec 13 09:47:52 2002

@<TRIPOS>MOLECULE
4-42
   37    39     1     0     1
SMALL
USER_CHARGES
****
From 3DB ct
@<TRIPOS>ATOM
      1 C          26.405000   22.135000   16.465000 C.ar      1 <1>         0.282900 
      2 N          25.469000   21.455000   17.255000 N.pl3     1 <1>        -0.081600 
      3 C          26.199000   20.874000   18.276000 C.ar      1 <1>        -0.250500 
      4 H          25.742000   20.257000   19.037000 H         1 <1>         0.296700 
      5 C          27.498000   21.325000   18.164000 C.ar      1 <1>        -0.203500 
      6 N          27.600000   22.125000   17.040000 N.ar      1 <1>        -0.446500 
      7 C          28.665000   21.045000   19.067000 C.3       1 <1>         1.473900 
      8 F          29.147000   22.179000   19.655000 F         1 <1>        -0.432500 
      9 F          29.714000   20.483000   18.398000 F         1 <1>        -0.438500 
     10 F          28.355000   20.188000   20.083000 F         1 <1>        -0.467300 
     11 C          24.049000   21.368000   17.117000 C.ar      1 <1>         0.348600 
     12 C          23.347000   22.256000   16.289000 C.ar      1 <1>        -0.406500 
     13 H          23.840000   23.063000   15.753000 H         1 <1>         0.236300 
     14 C          21.954000   22.168000   16.174000 C.ar      1 <1>         0.077300 
     15 H          21.428000   22.871000   15.531000 H         1 <1>         0.185100 
     16 C          21.259000   21.192000   16.890000 C.ar      1 <1>        -0.543600 
     17 C          21.941000   20.320000   17.738000 C.ar      1 <1>         0.026600 
     18 H          21.407000   19.562000   18.309000 H         1 <1>         0.194900 
     19 C          23.332000   20.410000   17.853000 C.ar      1 <1>        -0.295100 
     20 H          23.831000   19.695000   18.504000 H         1 <1>         0.206300 
     21 S          19.487000   21.098000   16.760000 S.o2      1 <1>         2.183700 
     22 O          18.977000   22.455000   16.590000 O.2       1 <1>        -0.962400 
     23 O          18.996000   20.308000   17.885000 O.2       1 <1>        -0.958400 
     24 C          19.224000   20.189000   15.261000 C.3       1 <1>        -0.724900 
     25 H          18.147000   20.088000   15.111000 H         1 <1>         0.243800 
     26 H          19.680000   19.202000   15.358000 H         1 <1>         0.195000 
     27 H          19.664000   20.741000   14.428000 H         1 <1>         0.195400 
     28 C          26.180000   22.715000   15.139000 C.ar      1 <1>        -0.424600 
     29 C          26.435000   24.071000   14.906000 C.ar      1 <1>         0.589800 
     30 H          26.778000   24.707000   15.720000 H         1 <1>         0.080200 
     31 C          26.245000   24.598000   13.632000 C.ar      1 <1>        -1.162900 
     32 C          25.818000   23.752000   12.619000 C.ar      1 <1>         0.890600 
     33 H          25.656000   24.120000   11.609000 H         1 <1>         0.015100 
     34 N          25.578000   22.427000   12.796000 N.ar      1 <1>        -0.813600 
     35 C          25.773000   21.942000   14.051000 C.ar      1 <1>         0.559300 
     36 H          25.590000   20.874000   14.158000 H         1 <1>         0.066700 
     37 Br         26.567000   26.426000   13.293000 Br        1 <1>         0.264200 
@<TRIPOS>BOND
     1    1    2 ar   
     2    2    3 ar   
     3    3    4 1    
     4    3    5 ar   
     5    5    6 ar   
     6    6    1 ar   
     7    5    7 1    
     8    7    8 1    
     9    7    9 1    
    10    7   10 1    
    11    2   11 1    
    12   11   12 ar   
    13   12   13 1    
    14   12   14 ar   
    15   14   15 1    
    16   14   16 ar   
    17   16   17 ar   
    18   17   18 1    
    19   17   19 ar   
    20   19   20 1    
    21   19   11 ar   
    22   16   21 1    
    23   21   22 2    
    24   21   23 2    
    25   21   24 1    
    26   24   25 1    
    27   24   26 1    
    28   24   27 1    
    29    1   28 1    
    30   28   29 ar   
    31   29   30 1    
    32   29   31 ar   
    33   31   32 ar   
    34   32   33 1    
    35   32   34 ar   
    36   34   35 ar   
    37   35   36 1    
    38   35   28 ar   
    39   31   37 1    
@<TRIPOS>SUBSTRUCTURE
     1 ****        1 TEMP              0 ****  ****    0 ROOT 
@<TRIPOS>SET
UNITY_3DHIT     STATIC     ATOMS    <user>   **** Atoms matching 3D or FLEX Search
0
