#	Name:			4-43
#	Creating user name:	jeff
#	Creation time:		Fri Dec 13 09:47:53 2002

#	Modifying user name:	jeff
#	Modification time:	Fri Dec 13 09:47:54 2002

@<TRIPOS>MOLECULE
4-43
   36    38     1     0     1
SMALL
USER_CHARGES
****
From 3DB ct
@<TRIPOS>ATOM
      1 C          26.405000   22.135000   16.466000 C.ar      1 <1>         0.395100 
      2 N          25.469000   21.455000   17.255000 N.pl3     1 <1>        -0.179900 
      3 C          26.197000   20.875000   18.277000 C.ar      1 <1>        -0.218700 
      4 H          25.739000   20.259000   19.039000 H         1 <1>         0.287100 
      5 C          27.497000   21.325000   18.167000 C.ar      1 <1>        -0.229000 
      6 N          27.600000   22.124000   17.043000 N.ar      1 <1>        -0.461100 
      7 C          28.662000   21.047000   19.073000 C.3       1 <1>         1.472200 
      8 F          29.110000   22.174000   19.699000 F         1 <1>        -0.433800 
      9 F          29.730000   20.529000   18.399000 F         1 <1>        -0.433900 
     10 F          28.363000   20.153000   20.061000 F         1 <1>        -0.467000 
     11 C          24.049000   21.367000   17.116000 C.ar      1 <1>         0.444200 
     12 C          23.346000   22.254000   16.287000 C.ar      1 <1>        -0.430200 
     13 H          23.840000   23.061000   15.751000 H         1 <1>         0.232500 
     14 C          21.954000   22.166000   16.171000 C.ar      1 <1>         0.144700 
     15 H          21.427000   22.866000   15.526000 H         1 <1>         0.187600 
     16 C          21.257000   21.191000   16.886000 C.ar      1 <1>        -0.655800 
     17 C          21.940000   20.318000   17.734000 C.ar      1 <1>         0.089300 
     18 H          21.404000   19.559000   18.301000 H         1 <1>         0.191600 
     19 C          23.332000   20.408000   17.851000 C.ar      1 <1>        -0.338900 
     20 H          23.830000   19.692000   18.501000 H         1 <1>         0.212800 
     21 S          19.491000   21.100000   16.767000 S.o2      1 <1>         2.471600 
     22 O          18.956000   22.432000   16.543000 O.2       1 <1>        -0.995800 
     23 O          18.980000   20.273000   17.846000 O.2       1 <1>        -0.990600 
     24 N          19.280000   20.241000   15.345000 N.pl3     1 <1>        -1.294500 
     25 H          18.787000   20.801000   14.645000 H         1 <1>         0.484200 
     26 H          18.801000   19.353000   15.517000 H         1 <1>         0.483400 
     27 C          26.181000   22.714000   15.140000 C.ar      1 <1>        -0.414200 
     28 C          26.435000   24.068000   14.902000 C.ar      1 <1>         0.182000 
     29 H          26.779000   24.714000   15.707000 H         1 <1>         0.155500 
     30 C          26.244000   24.599000   13.628000 C.ar      1 <1>        -0.514900 
     31 H          26.429000   25.649000   13.427000 H         1 <1>         0.217000 
     32 C          25.817000   23.753000   12.618000 C.ar      1 <1>         0.451700 
     33 H          25.657000   24.132000   11.610000 H         1 <1>         0.097600 
     34 N          25.579000   22.433000   12.797000 N.ar      1 <1>        -0.718700 
     35 C          25.773000   21.945000   14.052000 C.ar      1 <1>         0.512600 
     36 H          25.589000   20.877000   14.157000 H         1 <1>         0.064100 
@<TRIPOS>BOND
     1    1    2 ar   
     2    2    3 ar   
     3    3    4 1    
     4    3    5 ar   
     5    5    6 ar   
     6    6    1 ar   
     7    5    7 1    
     8    7    8 1    
     9    7    9 1    
    10    7   10 1    
    11    2   11 1    
    12   11   12 ar   
    13   12   13 1    
    14   12   14 ar   
    15   14   15 1    
    16   14   16 ar   
    17   16   17 ar   
    18   17   18 1    
    19   17   19 ar   
    20   19   20 1    
    21   19   11 ar   
    22   16   21 1    
    23   21   22 2    
    24   21   23 2    
    25   21   24 1    
    26   24   25 1    
    27   24   26 1    
    28    1   27 1    
    29   27   28 ar   
    30   28   29 1    
    31   28   30 ar   
    32   30   31 1    
    33   30   32 ar   
    34   32   33 1    
    35   32   34 ar   
    36   34   35 ar   
    37   35   36 1    
    38   35   27 ar   
@<TRIPOS>SUBSTRUCTURE
     1 ****        1 TEMP              0 ****  ****    0 ROOT 
@<TRIPOS>SET
UNITY_3DHIT     STATIC     ATOMS    <user>   **** Atoms matching 3D or FLEX Search
0
