#	Name:			4-44
#	Creating user name:	jeff
#	Creation time:		Fri Dec 13 09:47:55 2002

#	Modifying user name:	jeff
#	Modification time:	Fri Dec 13 09:47:57 2002

@<TRIPOS>MOLECULE
4-44
   39    41     1     0     1
SMALL
USER_CHARGES
****
From 3DB ct
@<TRIPOS>ATOM
      1 C          26.412000   22.113000   16.451000 C.ar      1 <1>         0.616700 
      2 N          25.465000   21.483000   17.271000 N.pl3     1 <1>        -0.318000 
      3 C          26.190000   20.934000   18.313000 C.ar      1 <1>        -0.176200 
      4 H          25.726000   20.370000   19.110000 H         1 <1>         0.291200 
      5 C          27.505000   21.323000   18.160000 C.ar      1 <1>        -0.292400 
      6 N          27.618000   22.067000   17.000000 N.ar      1 <1>        -0.473800 
      7 C          28.675000   21.038000   19.056000 C.3       1 <1>         1.523800 
      8 F          29.180000   22.172000   19.623000 F         1 <1>        -0.441300 
      9 F          29.708000   20.448000   18.388000 F         1 <1>        -0.442700 
     10 F          28.360000   20.201000   20.088000 F         1 <1>        -0.479500 
     11 C          24.043000   21.392000   17.131000 C.ar      1 <1>         0.496300 
     12 C          23.332000   22.264000   16.294000 C.ar      1 <1>        -0.385800 
     13 H          23.812000   23.074000   15.753000 H         1 <1>         0.212200 
     14 C          21.941000   22.159000   16.171000 C.ar      1 <1>         0.123500 
     15 H          21.409000   22.850000   15.520000 H         1 <1>         0.190900 
     16 C          21.250000   21.179000   16.885000 C.ar      1 <1>        -0.660600 
     17 C          21.939000   20.318000   17.739000 C.ar      1 <1>         0.123900 
     18 H          21.410000   19.554000   18.305000 H         1 <1>         0.183700 
     19 C          23.330000   20.426000   17.862000 C.ar      1 <1>        -0.378400 
     20 H          23.829000   19.714000   18.516000 H         1 <1>         0.217800 
     21 S          19.487000   21.070000   16.754000 S.o2      1 <1>         2.454000 
     22 O          18.941000   22.395000   16.517000 O.2       1 <1>        -0.989500 
     23 O          18.975000   20.246000   17.835000 O.2       1 <1>        -0.985000 
     24 N          19.295000   20.197000   15.338000 N.pl3     1 <1>        -1.307400 
     25 H          18.801000   20.745000   14.630000 H         1 <1>         0.490100 
     26 H          18.825000   19.305000   15.515000 H         1 <1>         0.488800 
     27 C          26.184000   22.693000   15.126000 C.ar      1 <1>        -0.703700 
     28 C          26.458000   24.052000   14.924000 C.ar      1 <1>         0.224900 
     29 H          26.817000   24.670000   15.746000 H         1 <1>         0.146600 
     30 C          26.264000   24.627000   13.672000 C.ar      1 <1>        -0.497500 
     31 H          26.461000   25.681000   13.503000 H         1 <1>         0.211700 
     32 C          25.813000   23.820000   12.646000 C.ar      1 <1>         0.402200 
     33 H          25.645000   24.230000   11.652000 H         1 <1>         0.115900 
     34 N          25.561000   22.498000   12.788000 N.ar      1 <1>        -0.746800 
     35 C          25.760000   21.943000   14.019000 C.ar      1 <1>         0.859900 
     36 C          25.505000   20.464000   14.108000 C.3       1 <1>        -0.519500 
     37 H          24.600000   20.262000   14.687000 H         1 <1>         0.123900 
     38 H          26.356000   19.949000   14.564000 H         1 <1>         0.147200 
     39 H          25.362000   20.038000   13.109000 H         1 <1>         0.152800 
@<TRIPOS>BOND
     1    1    2 ar   
     2    2    3 ar   
     3    3    4 1    
     4    3    5 ar   
     5    5    6 ar   
     6    6    1 ar   
     7    5    7 1    
     8    7    8 1    
     9    7    9 1    
    10    7   10 1    
    11    2   11 1    
    12   11   12 ar   
    13   12   13 1    
    14   12   14 ar   
    15   14   15 1    
    16   14   16 ar   
    17   16   17 ar   
    18   17   18 1    
    19   17   19 ar   
    20   19   20 1    
    21   19   11 ar   
    22   16   21 1    
    23   21   22 2    
    24   21   23 2    
    25   21   24 1    
    26   24   25 1    
    27   24   26 1    
    28    1   27 1    
    29   27   28 ar   
    30   28   29 1    
    31   28   30 ar   
    32   30   31 1    
    33   30   32 ar   
    34   32   33 1    
    35   32   34 ar   
    36   34   35 ar   
    37   35   27 ar   
    38   35   36 1    
    39   36   37 1    
    40   36   38 1    
    41   36   39 1    
@<TRIPOS>SUBSTRUCTURE
     1 ****        1 TEMP              0 ****  ****    0 ROOT 
@<TRIPOS>SET
UNITY_3DHIT     STATIC     ATOMS    <user>   **** Atoms matching 3D or FLEX Search
0
