#	Name:			4-48
#	Creating user name:	jeff
#	Creation time:		Fri Dec 13 09:48:03 2002

#	Modifying user name:	jeff
#	Modification time:	Fri Dec 13 09:48:05 2002

@<TRIPOS>MOLECULE
4-48
   40    42     1     0     1
SMALL
USER_CHARGES
****
From 3DB ct
@<TRIPOS>ATOM
      1 C          26.403000   22.134000   16.465000 C.ar      1 <1>         0.502000 
      2 N          25.468000   21.455000   17.256000 N.pl3     1 <1>        -0.223000 
      3 C          26.197000   20.875000   18.277000 C.ar      1 <1>        -0.207300 
      4 H          25.739000   20.259000   19.039000 H         1 <1>         0.290000 
      5 C          27.496000   21.326000   18.166000 C.ar      1 <1>        -0.262600 
      6 N          27.598000   22.125000   17.041000 N.ar      1 <1>        -0.469900 
      7 C          28.662000   21.048000   19.070000 C.3       1 <1>         1.517200 
      8 F          29.108000   22.175000   19.698000 F         1 <1>        -0.443100 
      9 F          29.731000   20.534000   18.395000 F         1 <1>        -0.443300 
     10 F          28.366000   20.153000   20.057000 F         1 <1>        -0.477100 
     11 C          24.048000   21.368000   17.117000 C.ar      1 <1>         0.451100 
     12 C          23.345000   22.255000   16.288000 C.ar      1 <1>        -0.403200 
     13 H          23.838000   23.061000   15.752000 H         1 <1>         0.217200 
     14 C          21.953000   22.165000   16.172000 C.ar      1 <1>         0.131600 
     15 H          21.425000   22.866000   15.528000 H         1 <1>         0.193200 
     16 C          21.256000   21.190000   16.887000 C.ar      1 <1>        -0.659000 
     17 C          21.939000   20.317000   17.736000 C.ar      1 <1>         0.100800 
     18 H          21.403000   19.559000   18.303000 H         1 <1>         0.189800 
     19 C          23.331000   20.409000   17.853000 C.ar      1 <1>        -0.350600 
     20 H          23.830000   19.693000   18.503000 H         1 <1>         0.215400 
     21 S          19.490000   21.098000   16.768000 S.o2      1 <1>         2.476900 
     22 O          18.954000   22.429000   16.543000 O.2       1 <1>        -0.997000 
     23 O          18.980000   20.272000   17.848000 O.2       1 <1>        -0.991800 
     24 N          19.280000   20.237000   15.346000 N.pl3     1 <1>        -1.299200 
     25 H          18.786000   20.796000   14.646000 H         1 <1>         0.486000 
     26 H          18.803000   19.349000   15.520000 H         1 <1>         0.484800 
     27 C          26.180000   22.711000   15.137000 C.ar      1 <1>        -0.463300 
     28 C          26.434000   24.066000   14.899000 C.ar      1 <1>         0.023200 
     29 H          26.775000   24.704000   15.713000 H         1 <1>         0.160800 
     30 C          26.252000   24.609000   13.627000 C.ar      1 <1>         0.136300 
     31 C          25.826000   23.753000   12.618000 C.ar      1 <1>         0.225000 
     32 H          25.659000   24.096000   11.601000 H         1 <1>         0.150300 
     33 N          25.586000   22.427000   12.797000 N.ar      1 <1>        -0.624600 
     34 C          25.776000   21.939000   14.051000 C.ar      1 <1>         0.427600 
     35 H          25.593000   20.871000   14.156000 H         1 <1>         0.081400 
     36 O          26.520000   25.944000   13.515000 O.3       1 <1>        -0.445200 
     37 C          26.945000   26.609000   14.704000 C.3       1 <1>         0.174300 
     38 H          27.117000   27.660000   14.455000 H         1 <1>         0.075200 
     39 H          27.890000   26.192000   15.070000 H         1 <1>         0.029700 
     40 H          26.169000   26.569000   15.475000 H         1 <1>         0.020400 
@<TRIPOS>BOND
     1    1    2 ar   
     2    2    3 ar   
     3    3    4 1    
     4    3    5 ar   
     5    5    6 ar   
     6    6    1 ar   
     7    5    7 1    
     8    7    8 1    
     9    7    9 1    
    10    7   10 1    
    11    2   11 1    
    12   11   12 ar   
    13   12   13 1    
    14   12   14 ar   
    15   14   15 1    
    16   14   16 ar   
    17   16   17 ar   
    18   17   18 1    
    19   17   19 ar   
    20   19   20 1    
    21   19   11 ar   
    22   16   21 1    
    23   21   22 2    
    24   21   23 2    
    25   21   24 1    
    26   24   25 1    
    27   24   26 1    
    28    1   27 1    
    29   27   28 ar   
    30   28   29 1    
    31   28   30 ar   
    32   30   31 ar   
    33   31   32 1    
    34   31   33 ar   
    35   33   34 ar   
    36   34   35 1    
    37   34   27 ar   
    38   30   36 1    
    39   36   37 1    
    40   37   38 1    
    41   37   39 1    
    42   37   40 1    
@<TRIPOS>SUBSTRUCTURE
     1 ****        1 TEMP              0 ****  ****    0 ROOT 
@<TRIPOS>SET
UNITY_3DHIT     STATIC     ATOMS    <user>   **** Atoms matching 3D or FLEX Search
0
