#	Name:			4-49
#	Creating user name:	jeff
#	Creation time:		Fri Dec 13 09:48:05 2002

#	Modifying user name:	jeff
#	Modification time:	Fri Dec 13 09:48:07 2002

@<TRIPOS>MOLECULE
4-49
   36    38     1     0     1
SMALL
USER_CHARGES
****
From 3DB ct
@<TRIPOS>ATOM
      1 C          26.404000   22.135000   16.465000 C.ar      1 <1>         0.315200 
      2 N          25.468000   21.455000   17.255000 N.pl3     1 <1>        -0.143200 
      3 C          26.197000   20.875000   18.276000 C.ar      1 <1>        -0.233900 
      4 H          25.740000   20.258000   19.037000 H         1 <1>         0.290500 
      5 C          27.496000   21.326000   18.166000 C.ar      1 <1>        -0.199900 
      6 N          27.599000   22.127000   17.041000 N.ar      1 <1>        -0.450500 
      7 C          28.662000   21.049000   19.070000 C.3       1 <1>         1.463800 
      8 F          29.126000   22.180000   19.678000 F         1 <1>        -0.431300 
      9 F          29.721000   20.509000   18.400000 F         1 <1>        -0.435200 
     10 F          28.358000   20.173000   20.073000 F         1 <1>        -0.465300 
     11 C          24.048000   21.367000   17.116000 C.ar      1 <1>         0.443900 
     12 C          23.346000   22.254000   16.287000 C.ar      1 <1>        -0.456200 
     13 H          23.838000   23.061000   15.751000 H         1 <1>         0.241100 
     14 C          21.953000   22.165000   16.171000 C.ar      1 <1>         0.157500 
     15 H          21.425000   22.866000   15.527000 H         1 <1>         0.183500 
     16 C          21.256000   21.190000   16.886000 C.ar      1 <1>        -0.652800 
     17 C          21.940000   20.317000   17.734000 C.ar      1 <1>         0.093800 
     18 H          21.404000   19.559000   18.302000 H         1 <1>         0.191200 
     19 C          23.332000   20.408000   17.851000 C.ar      1 <1>        -0.342100 
     20 H          23.831000   19.692000   18.501000 H         1 <1>         0.213700 
     21 S          19.490000   21.100000   16.768000 S.o2      1 <1>         2.465500 
     22 O          18.955000   22.431000   16.545000 O.2       1 <1>        -0.992500 
     23 O          18.980000   20.274000   17.849000 O.2       1 <1>        -0.988000 
     24 N          19.278000   20.240000   15.347000 N.pl3     1 <1>        -1.294700 
     25 H          18.784000   20.800000   14.647000 H         1 <1>         0.485200 
     26 H          18.799000   19.352000   15.521000 H         1 <1>         0.484200 
     27 C          26.181000   22.715000   15.139000 C.ar      1 <1>        -0.462900 
     28 C          26.436000   24.071000   14.907000 C.ar      1 <1>         0.609500 
     29 H          26.778000   24.707000   15.720000 H         1 <1>         0.075900 
     30 C          26.248000   24.598000   13.632000 C.ar      1 <1>        -1.177600 
     31 C          25.823000   23.752000   12.618000 C.ar      1 <1>         0.904900 
     32 H          25.662000   24.121000   11.608000 H         1 <1>         0.013600 
     33 N          25.583000   22.427000   12.794000 N.ar      1 <1>        -0.824300 
     34 C          25.775000   21.942000   14.050000 C.ar      1 <1>         0.586700 
     35 H          25.592000   20.874000   14.157000 H         1 <1>         0.067200 
     36 Br         26.570000   26.426000   13.294000 Br        1 <1>         0.263500 
@<TRIPOS>BOND
     1    1    2 ar   
     2    2    3 ar   
     3    3    4 1    
     4    3    5 ar   
     5    5    6 ar   
     6    6    1 ar   
     7    5    7 1    
     8    7    8 1    
     9    7    9 1    
    10    7   10 1    
    11    2   11 1    
    12   11   12 ar   
    13   12   13 1    
    14   12   14 ar   
    15   14   15 1    
    16   14   16 ar   
    17   16   17 ar   
    18   17   18 1    
    19   17   19 ar   
    20   19   20 1    
    21   19   11 ar   
    22   16   21 1    
    23   21   22 2    
    24   21   23 2    
    25   21   24 1    
    26   24   25 1    
    27   24   26 1    
    28    1   27 1    
    29   27   28 ar   
    30   28   29 1    
    31   28   30 ar   
    32   30   31 ar   
    33   31   32 1    
    34   31   33 ar   
    35   33   34 ar   
    36   34   35 1    
    37   34   27 ar   
    38   30   36 1    
@<TRIPOS>SUBSTRUCTURE
     1 ****        1 TEMP              0 ****  ****    0 ROOT 
@<TRIPOS>SET
UNITY_3DHIT     STATIC     ATOMS    <user>   **** Atoms matching 3D or FLEX Search
0
