#	Name:			4-50
#	Creating user name:	jeff
#	Creation time:		Fri Dec 13 09:48:18 2002

#	Modifying user name:	jeff
#	Modification time:	Fri Dec 13 09:48:20 2002

@<TRIPOS>MOLECULE
4-50
   40    42     1     0     1
SMALL
USER_CHARGES
****
From 3DB ct
@<TRIPOS>ATOM
      1 C          26.413000   22.149000   16.457000 C.ar      1 <1>         0.292500 
      2 N          25.476000   21.448000   17.226000 N.pl3     1 <1>        -0.126900 
      3 C          26.203000   20.851000   18.241000 C.ar      1 <1>        -0.147000 
      4 H          25.744000   20.215000   18.986000 H         1 <1>         0.274400 
      5 C          27.499000   21.313000   18.152000 C.ar      1 <1>        -0.274800 
      6 N          27.604000   22.140000   17.047000 N.ar      1 <1>        -0.458500 
      7 C          28.660000   21.023000   19.059000 C.3       1 <1>         1.481900 
      8 F          29.128000   22.147000   19.675000 F         1 <1>        -0.434100 
      9 F          29.718000   20.481000   18.389000 F         1 <1>        -0.434700 
     10 F          28.347000   20.143000   20.055000 F         1 <1>        -0.470700 
     11 C          24.054000   21.365000   17.094000 C.ar      1 <1>         0.220400 
     12 C          23.348000   22.256000   16.271000 C.ar      1 <1>        -0.187000 
     13 H          23.843000   23.053000   15.724000 H         1 <1>         0.165600 
     14 C          21.954000   22.175000   16.166000 C.ar      1 <1>         0.009700 
     15 H          21.427000   22.878000   15.524000 H         1 <1>         0.186400 
     16 C          21.260000   21.202000   16.885000 C.ar      1 <1>        -0.508200 
     17 C          21.943000   20.325000   17.728000 C.ar      1 <1>        -0.028100 
     18 H          21.410000   19.569000   18.301000 H         1 <1>         0.195400 
     19 C          23.336000   20.409000   17.834000 C.ar      1 <1>        -0.218600 
     20 H          23.836000   19.690000   18.480000 H         1 <1>         0.192200 
     21 S          19.488000   21.112000   16.762000 S.o2      1 <1>         2.171300 
     22 O          18.984000   22.468000   16.564000 O.2       1 <1>        -0.965000 
     23 O          18.995000   20.348000   17.904000 O.2       1 <1>        -0.961100 
     24 C          19.217000   20.173000   15.282000 C.3       1 <1>        -0.715700 
     25 H          18.140000   20.073000   15.137000 H         1 <1>         0.238100 
     26 H          19.670000   19.187000   15.399000 H         1 <1>         0.192900 
     27 H          19.657000   20.706000   14.437000 H         1 <1>         0.189500 
     28 C          26.178000   22.745000   15.137000 C.ar      1 <1>         0.509600 
     29 C          26.428000   24.092000   14.906000 C.ar      1 <1>        -0.494100 
     30 H          26.777000   24.741000   15.704000 H         1 <1>         0.247500 
     31 C          26.217000   24.596000   13.627000 C.ar      1 <1>         0.175300 
     32 H          26.396000   25.648000   13.415000 H         1 <1>         0.131000 
     33 C          25.777000   23.742000   12.620000 C.ar      1 <1>        -0.553500 
     34 H          25.605000   24.122000   11.617000 H         1 <1>         0.237400 
     35 C          25.567000   22.401000   12.922000 C.ar      1 <1>         0.620700 
     36 N          25.772000   21.892000   14.162000 N.ar      1 <1>        -0.711200 
     37 C          25.091000   21.457000   11.858000 C.3       1 <1>        -0.354300 
     38 H          24.975000   20.446000   12.259000 H         1 <1>         0.110200 
     39 H          25.814000   21.418000   11.037000 H         1 <1>         0.106400 
     40 H          24.122000   21.783000   11.469000 H         1 <1>         0.095000 
@<TRIPOS>BOND
     1    1    2 ar   
     2    2    3 ar   
     3    3    4 1    
     4    3    5 ar   
     5    5    6 ar   
     6    6    1 ar   
     7    5    7 1    
     8    7    8 1    
     9    7    9 1    
    10    7   10 1    
    11    2   11 1    
    12   11   12 ar   
    13   12   13 1    
    14   12   14 ar   
    15   14   15 1    
    16   14   16 ar   
    17   16   17 ar   
    18   17   18 1    
    19   17   19 ar   
    20   19   20 1    
    21   19   11 ar   
    22   16   21 1    
    23   21   22 2    
    24   21   23 2    
    25   21   24 1    
    26   24   25 1    
    27   24   26 1    
    28   24   27 1    
    29    1   28 1    
    30   28   29 ar   
    31   29   30 1    
    32   29   31 ar   
    33   31   32 1    
    34   31   33 ar   
    35   33   34 1    
    36   33   35 ar   
    37   35   36 ar   
    38   36   28 ar   
    39   35   37 1    
    40   37   38 1    
    41   37   39 1    
    42   37   40 1    
@<TRIPOS>SUBSTRUCTURE
     1 ****        1 TEMP              0 ****  ****    0 ROOT 
@<TRIPOS>SET
UNITY_3DHIT     STATIC     ATOMS    <user>   **** Atoms matching 3D or FLEX Search
0
