#	Name:			4-51
#	Creating user name:	jeff
#	Creation time:		Fri Dec 13 09:48:20 2002

#	Modifying user name:	jeff
#	Modification time:	Fri Dec 13 09:48:22 2002

@<TRIPOS>MOLECULE
4-51
   40    42     1     0     1
SMALL
USER_CHARGES
****
From 3DB ct
@<TRIPOS>ATOM
      1 C          26.413000   22.141000   16.457000 C.ar      1 <1>         0.259700 
      2 N          25.487000   21.449000   17.246000 N.pl3     1 <1>        -0.111600 
      3 C          26.230000   20.849000   18.249000 C.ar      1 <1>        -0.142400 
      4 H          25.782000   20.220000   19.005000 H         1 <1>         0.273500 
      5 C          27.528000   21.300000   18.131000 C.ar      1 <1>        -0.272600 
      6 N          27.617000   22.123000   17.022000 N.ar      1 <1>        -0.457300 
      7 C          28.705000   21.003000   19.015000 C.3       1 <1>         1.479100 
      8 F          29.172000   22.120000   19.645000 F         1 <1>        -0.433400 
      9 F          29.758000   20.484000   18.320000 F         1 <1>        -0.433800 
     10 F          28.414000   20.102000   19.999000 F         1 <1>        -0.470900 
     11 C          24.061000   21.377000   17.144000 C.ar      1 <1>         0.183100 
     12 C          23.330000   20.414000   17.855000 C.ar      1 <1>        -0.201900 
     13 H          23.810000   19.676000   18.491000 H         1 <1>         0.189100 
     14 C          21.938000   20.340000   17.726000 C.ar      1 <1>        -0.033000 
     15 H          21.392000   19.581000   18.284000 H         1 <1>         0.196900 
     16 C          21.270000   21.229000   16.883000 C.ar      1 <1>        -0.498000 
     17 C          21.985000   22.176000   16.150000 C.ar      1 <1>        -0.011700 
     18 H          21.475000   22.868000   15.482000 H         1 <1>         0.190000 
     19 C          23.376000   22.248000   16.278000 C.ar      1 <1>        -0.158600 
     20 H          23.894000   23.018000   15.711000 H         1 <1>         0.160000 
     21 S          19.504000   21.119000   16.705000 S.o2      1 <1>         2.172600 
     22 O          18.993000   22.465000   16.465000 O.2       1 <1>        -0.965900 
     23 O          18.983000   20.372000   17.846000 O.2       1 <1>        -0.961200 
     24 C          19.289000   20.149000   15.236000 C.3       1 <1>        -0.718800 
     25 H          18.217000   20.036000   15.059000 H         1 <1>         0.239300 
     26 H          19.746000   19.169000   15.387000 H         1 <1>         0.193000 
     27 H          19.751000   20.669000   14.395000 H         1 <1>         0.190600 
     28 C          26.157000   22.739000   15.142000 C.ar      1 <1>         0.572800 
     29 C          26.401000   24.087000   14.911000 C.ar      1 <1>        -0.532100 
     30 H          26.756000   24.734000   15.707000 H         1 <1>         0.261400 
     31 C          26.175000   24.598000   13.634000 C.ar      1 <1>         0.086500 
     32 H          26.347000   25.655000   13.441000 H         1 <1>         0.156800 
     33 C          25.736000   23.749000   12.617000 C.ar      1 <1>        -0.103900 
     34 C          25.525000   22.414000   12.941000 C.ar      1 <1>         0.233300 
     35 H          25.168000   21.707000   12.194000 H         1 <1>         0.149900 
     36 N          25.736000   21.888000   14.172000 N.ar      1 <1>        -0.674800 
     37 C          25.448000   24.268000   11.243000 C.3       1 <1>        -0.356900 
     38 H          25.631000   23.496000   10.488000 H         1 <1>         0.114100 
     39 H          26.095000   25.118000   11.003000 H         1 <1>         0.117500 
     40 H          24.404000   24.588000   11.175000 H         1 <1>         0.119900 
@<TRIPOS>BOND
     1    1    2 ar   
     2    2    3 ar   
     3    3    4 1    
     4    3    5 ar   
     5    5    6 ar   
     6    6    1 ar   
     7    5    7 1    
     8    7    8 1    
     9    7    9 1    
    10    7   10 1    
    11    2   11 1    
    12   11   12 ar   
    13   12   13 1    
    14   12   14 ar   
    15   14   15 1    
    16   14   16 ar   
    17   16   17 ar   
    18   17   18 1    
    19   17   19 ar   
    20   19   20 1    
    21   19   11 ar   
    22   16   21 1    
    23   21   22 2    
    24   21   23 2    
    25   21   24 1    
    26   24   25 1    
    27   24   26 1    
    28   24   27 1    
    29    1   28 1    
    30   28   29 ar   
    31   29   30 1    
    32   29   31 ar   
    33   31   32 1    
    34   31   33 ar   
    35   33   34 ar   
    36   34   35 1    
    37   34   36 ar   
    38   36   28 ar   
    39   33   37 1    
    40   37   38 1    
    41   37   39 1    
    42   37   40 1    
@<TRIPOS>SUBSTRUCTURE
     1 ****        1 TEMP              0 ****  ****    0 ROOT 
@<TRIPOS>SET
UNITY_3DHIT     STATIC     ATOMS    <user>   **** Atoms matching 3D or FLEX Search
0
