#	Name:			4-52
#	Creating user name:	jeff
#	Creation time:		Fri Dec 13 09:48:22 2002

#	Modifying user name:	jeff
#	Modification time:	Fri Dec 13 09:48:24 2002

@<TRIPOS>MOLECULE
4-52
   40    42     1     0     1
SMALL
USER_CHARGES
****
From 3DB ct
@<TRIPOS>ATOM
      1 C          26.411000   22.147000   16.455000 C.ar      1 <1>         0.279700 
      2 N          25.474000   21.448000   17.225000 N.pl3     1 <1>        -0.132800 
      3 C          26.201000   20.855000   18.244000 C.ar      1 <1>        -0.142200 
      4 H          25.742000   20.222000   18.991000 H         1 <1>         0.273800 
      5 C          27.497000   21.318000   18.154000 C.ar      1 <1>        -0.273200 
      6 N          27.602000   22.141000   17.047000 N.ar      1 <1>        -0.463900 
      7 C          28.657000   21.032000   19.063000 C.3       1 <1>         1.490300 
      8 F          29.123000   22.159000   19.676000 F         1 <1>        -0.435500 
      9 F          29.717000   20.489000   18.395000 F         1 <1>        -0.437600 
     10 F          28.344000   20.154000   20.061000 F         1 <1>        -0.473400 
     11 C          24.052000   21.362000   17.091000 C.ar      1 <1>         0.205400 
     12 C          23.344000   22.252000   16.270000 C.ar      1 <1>        -0.173300 
     13 H          23.837000   23.051000   15.722000 H         1 <1>         0.165300 
     14 C          21.950000   22.171000   16.167000 C.ar      1 <1>        -0.006100 
     15 H          21.422000   22.876000   15.527000 H         1 <1>         0.189800 
     16 C          21.256000   21.199000   16.888000 C.ar      1 <1>        -0.500700 
     17 C          21.942000   20.322000   17.728000 C.ar      1 <1>        -0.033100 
     18 H          21.409000   19.566000   18.302000 H         1 <1>         0.196600 
     19 C          23.335000   20.405000   17.831000 C.ar      1 <1>        -0.207600 
     20 H          23.835000   19.686000   18.476000 H         1 <1>         0.190200 
     21 S          19.484000   21.111000   16.772000 S.o2      1 <1>         2.173500 
     22 O          18.978000   22.470000   16.607000 O.2       1 <1>        -0.965800 
     23 O          18.998000   20.322000   17.899000 O.2       1 <1>        -0.961500 
     24 C          19.205000   20.206000   15.273000 C.3       1 <1>        -0.721400 
     25 H          18.126000   20.108000   15.132000 H         1 <1>         0.239600 
     26 H          19.659000   19.217000   15.365000 H         1 <1>         0.193900 
     27 H          19.640000   20.757000   14.438000 H         1 <1>         0.191800 
     28 C          26.178000   22.742000   15.135000 C.ar      1 <1>         0.600200 
     29 C          26.424000   24.093000   14.907000 C.ar      1 <1>        -0.662800 
     30 H          26.760000   24.732000   15.720000 H         1 <1>         0.286700 
     31 C          26.231000   24.610000   13.623000 C.ar      1 <1>         0.537700 
     32 C          25.786000   23.749000   12.619000 C.ar      1 <1>        -0.592700 
     33 H          25.603000   24.103000   11.608000 H         1 <1>         0.245600 
     34 C          25.584000   22.413000   12.928000 C.ar      1 <1>         0.363500 
     35 H          25.248000   21.714000   12.164000 H         1 <1>         0.118200 
     36 N          25.780000   21.887000   14.159000 N.ar      1 <1>        -0.706200 
     37 C          26.441000   26.068000   13.345000 C.3       1 <1>        -0.388500 
     38 H          25.516000   26.622000   13.534000 H         1 <1>         0.116700 
     39 H          26.743000   26.228000   12.305000 H         1 <1>         0.103200 
     40 H          27.234000   26.475000   13.980000 H         1 <1>         0.116600 
@<TRIPOS>BOND
     1    1    2 ar   
     2    2    3 ar   
     3    3    4 1    
     4    3    5 ar   
     5    5    6 ar   
     6    6    1 ar   
     7    5    7 1    
     8    7    8 1    
     9    7    9 1    
    10    7   10 1    
    11    2   11 1    
    12   11   12 ar   
    13   12   13 1    
    14   12   14 ar   
    15   14   15 1    
    16   14   16 ar   
    17   16   17 ar   
    18   17   18 1    
    19   17   19 ar   
    20   19   20 1    
    21   19   11 ar   
    22   16   21 1    
    23   21   22 2    
    24   21   23 2    
    25   21   24 1    
    26   24   25 1    
    27   24   26 1    
    28   24   27 1    
    29    1   28 1    
    30   28   29 ar   
    31   29   30 1    
    32   29   31 ar   
    33   31   32 ar   
    34   32   33 1    
    35   32   34 ar   
    36   34   35 1    
    37   34   36 ar   
    38   36   28 ar   
    39   31   37 1    
    40   37   38 1    
    41   37   39 1    
    42   37   40 1    
@<TRIPOS>SUBSTRUCTURE
     1 ****        1 TEMP              0 ****  ****    0 ROOT 
@<TRIPOS>SET
UNITY_3DHIT     STATIC     ATOMS    <user>   **** Atoms matching 3D or FLEX Search
0
