#	Name:			4-53
#	Creating user name:	jeff
#	Creation time:		Fri Dec 13 09:48:24 2002

#	Modifying user name:	jeff
#	Modification time:	Fri Dec 13 09:48:26 2002

@<TRIPOS>MOLECULE
4-53
   40    42     1     0     1
SMALL
USER_CHARGES
****
From 3DB ct
@<TRIPOS>ATOM
      1 C          26.422000   22.149000   16.464000 C.ar      1 <1>         0.360100 
      2 N          25.481000   21.454000   17.233000 N.pl3     1 <1>        -0.165500 
      3 C          26.204000   20.852000   18.248000 C.ar      1 <1>        -0.132800 
      4 H          25.741000   20.228000   18.999000 H         1 <1>         0.276400 
      5 C          27.510000   21.283000   18.142000 C.ar      1 <1>        -0.308300 
      6 N          27.622000   22.102000   17.034000 N.ar      1 <1>        -0.447000 
      7 C          28.675000   20.965000   19.034000 C.3       1 <1>         1.514700 
      8 F          29.164000   22.074000   19.661000 F         1 <1>        -0.440700 
      9 F          29.719000   20.419000   18.345000 F         1 <1>        -0.440800 
     10 F          28.360000   20.076000   20.020000 F         1 <1>        -0.477700 
     11 C          24.058000   21.372000   17.093000 C.ar      1 <1>         0.212700 
     12 C          23.353000   22.260000   16.267000 C.ar      1 <1>        -0.171200 
     13 H          23.844000   23.061000   15.722000 H         1 <1>         0.161800 
     14 C          21.959000   22.177000   16.156000 C.ar      1 <1>        -0.018900 
     15 H          21.434000   22.881000   15.514000 H         1 <1>         0.195600 
     16 C          21.262000   21.204000   16.873000 C.ar      1 <1>        -0.503000 
     17 C          21.944000   20.328000   17.718000 C.ar      1 <1>        -0.038300 
     18 H          21.410000   19.572000   18.289000 H         1 <1>         0.199300 
     19 C          23.337000   20.414000   17.828000 C.ar      1 <1>        -0.201800 
     20 H          23.833000   19.694000   18.476000 H         1 <1>         0.189500 
     21 S          19.491000   21.113000   16.747000 S.o2      1 <1>         2.188000 
     22 O          18.983000   22.471000   16.579000 O.2       1 <1>        -0.969000 
     23 O          19.000000   20.323000   17.872000 O.2       1 <1>        -0.964500 
     24 C          19.222000   20.207000   15.247000 C.3       1 <1>        -0.724400 
     25 H          18.145000   20.108000   15.099000 H         1 <1>         0.239600 
     26 H          19.677000   19.219000   15.342000 H         1 <1>         0.194800 
     27 H          19.662000   20.759000   14.414000 H         1 <1>         0.192200 
     28 C          26.177000   22.767000   15.154000 C.ar      1 <1>         0.387500 
     29 C          26.402000   24.126000   14.907000 C.ar      1 <1>        -0.129200 
     30 C          26.180000   24.590000   13.605000 C.ar      1 <1>         0.066900 
     31 H          26.343000   25.637000   13.353000 H         1 <1>         0.150200 
     32 C          25.746000   23.713000   12.617000 C.ar      1 <1>        -0.449300 
     33 H          25.565000   24.057000   11.603000 H         1 <1>         0.215300 
     34 C          25.554000   22.386000   12.955000 C.ar      1 <1>         0.324200 
     35 H          25.219000   21.668000   12.210000 H         1 <1>         0.118000 
     36 N          25.765000   21.892000   14.195000 N.ar      1 <1>        -0.646700 
     37 C          26.884000   25.073000   15.967000 C.3       1 <1>        -0.240500 
     38 H          27.937000   24.880000   16.198000 H         1 <1>         0.112000 
     39 H          26.286000   24.973000   16.879000 H         1 <1>         0.088400 
     40 H          26.796000   26.114000   15.640000 H         1 <1>         0.082600 
@<TRIPOS>BOND
     1    1    2 ar   
     2    2    3 ar   
     3    3    4 1    
     4    3    5 ar   
     5    5    6 ar   
     6    6    1 ar   
     7    5    7 1    
     8    7    8 1    
     9    7    9 1    
    10    7   10 1    
    11    2   11 1    
    12   11   12 ar   
    13   12   13 1    
    14   12   14 ar   
    15   14   15 1    
    16   14   16 ar   
    17   16   17 ar   
    18   17   18 1    
    19   17   19 ar   
    20   19   20 1    
    21   19   11 ar   
    22   16   21 1    
    23   21   22 2    
    24   21   23 2    
    25   21   24 1    
    26   24   25 1    
    27   24   26 1    
    28   24   27 1    
    29    1   28 1    
    30   28   29 ar   
    31   29   30 ar   
    32   30   31 1    
    33   30   32 ar   
    34   32   33 1    
    35   32   34 ar   
    36   34   35 1    
    37   34   36 ar   
    38   36   28 ar   
    39   29   37 1    
    40   37   38 1    
    41   37   39 1    
    42   37   40 1    
@<TRIPOS>SUBSTRUCTURE
     1 ****        1 TEMP              0 ****  ****    0 ROOT 
@<TRIPOS>SET
UNITY_3DHIT     STATIC     ATOMS    <user>   **** Atoms matching 3D or FLEX Search
0
