#	Name:			4-54
#	Creating user name:	jeff
#	Creation time:		Fri Dec 13 09:48:26 2002

#	Modifying user name:	jeff
#	Modification time:	Fri Dec 13 09:48:28 2002

@<TRIPOS>MOLECULE
4-54
   39    41     1     0     1
SMALL
USER_CHARGES
****
From 3DB ct
@<TRIPOS>ATOM
      1 C          26.412000   22.150000   16.457000 C.ar      1 <1>         0.346800 
      2 N          25.475000   21.449000   17.225000 N.pl3     1 <1>        -0.209400 
      3 C          26.200000   20.853000   18.242000 C.ar      1 <1>        -0.129600 
      4 H          25.741000   20.217000   18.987000 H         1 <1>         0.269100 
      5 C          27.497000   21.316000   18.154000 C.ar      1 <1>        -0.274000 
      6 N          27.603000   22.142000   17.049000 N.ar      1 <1>        -0.468500 
      7 C          28.656000   21.026000   19.063000 C.3       1 <1>         1.484000 
      8 F          29.123000   22.150000   19.680000 F         1 <1>        -0.435100 
      9 F          29.716000   20.485000   18.394000 F         1 <1>        -0.434600 
     10 F          28.342000   20.145000   20.058000 F         1 <1>        -0.472100 
     11 C          24.052000   21.363000   17.090000 C.ar      1 <1>         0.347800 
     12 C          23.346000   22.253000   16.268000 C.ar      1 <1>        -0.267700 
     13 H          23.840000   23.052000   15.721000 H         1 <1>         0.177500 
     14 C          21.952000   22.171000   16.162000 C.ar      1 <1>         0.098900 
     15 H          21.423000   22.873000   15.521000 H         1 <1>         0.181400 
     16 C          21.256000   21.198000   16.882000 C.ar      1 <1>        -0.625300 
     17 C          21.942000   20.322000   17.723000 C.ar      1 <1>         0.054700 
     18 H          21.408000   19.565000   18.293000 H         1 <1>         0.191600 
     19 C          23.335000   20.406000   17.829000 C.ar      1 <1>        -0.283000 
     20 H          23.835000   19.686000   18.474000 H         1 <1>         0.203000 
     21 S          19.489000   21.115000   16.774000 S.o2      1 <1>         2.455400 
     22 O          18.958000   22.448000   16.555000 O.2       1 <1>        -0.996400 
     23 O          18.982000   20.289000   17.855000 O.2       1 <1>        -0.990500 
     24 N          19.266000   20.257000   15.353000 N.pl3     1 <1>        -1.297200 
     25 H          18.770000   20.819000   14.656000 H         1 <1>         0.483700 
     26 H          18.786000   19.370000   15.528000 H         1 <1>         0.483800 
     27 C          26.180000   22.746000   15.137000 C.ar      1 <1>         0.474500 
     28 C          26.430000   24.093000   14.906000 C.ar      1 <1>        -0.488100 
     29 H          26.777000   24.742000   15.704000 H         1 <1>         0.244900 
     30 C          26.221000   24.596000   13.626000 C.ar      1 <1>         0.176000 
     31 H          26.401000   25.648000   13.415000 H         1 <1>         0.129200 
     32 C          25.784000   23.742000   12.619000 C.ar      1 <1>        -0.556500 
     33 H          25.614000   24.121000   11.615000 H         1 <1>         0.237700 
     34 C          25.573000   22.401000   12.921000 C.ar      1 <1>         0.628300 
     35 N          25.776000   21.892000   14.161000 N.ar      1 <1>        -0.698600 
     36 C          25.101000   21.457000   11.855000 C.3       1 <1>        -0.353000 
     37 H          24.980000   20.446000   12.258000 H         1 <1>         0.113500 
     38 H          25.827000   21.415000   11.038000 H         1 <1>         0.103100 
     39 H          24.133000   21.784000   11.462000 H         1 <1>         0.094400 
@<TRIPOS>BOND
     1    1    2 ar   
     2    2    3 ar   
     3    3    4 1    
     4    3    5 ar   
     5    5    6 ar   
     6    6    1 ar   
     7    5    7 1    
     8    7    8 1    
     9    7    9 1    
    10    7   10 1    
    11    2   11 1    
    12   11   12 ar   
    13   12   13 1    
    14   12   14 ar   
    15   14   15 1    
    16   14   16 ar   
    17   16   17 ar   
    18   17   18 1    
    19   17   19 ar   
    20   19   20 1    
    21   19   11 ar   
    22   16   21 1    
    23   21   22 2    
    24   21   23 2    
    25   21   24 1    
    26   24   25 1    
    27   24   26 1    
    28    1   27 1    
    29   27   28 ar   
    30   28   29 1    
    31   28   30 ar   
    32   30   31 1    
    33   30   32 ar   
    34   32   33 1    
    35   32   34 ar   
    36   34   35 ar   
    37   35   27 ar   
    38   34   36 1    
    39   36   37 1    
    40   36   38 1    
    41   36   39 1    
@<TRIPOS>SUBSTRUCTURE
     1 ****        1 TEMP              0 ****  ****    0 ROOT 
@<TRIPOS>SET
UNITY_3DHIT     STATIC     ATOMS    <user>   **** Atoms matching 3D or FLEX Search
0
