#	Name:			4-55
#	Creating user name:	jeff
#	Creation time:		Fri Dec 13 09:48:29 2002

#	Modifying user name:	jeff
#	Modification time:	Fri Dec 13 09:48:31 2002

@<TRIPOS>MOLECULE
4-55
   39    41     1     0     1
SMALL
USER_CHARGES
****
From 3DB ct
@<TRIPOS>ATOM
      1 C          26.411000   22.149000   16.456000 C.ar      1 <1>         0.281500 
      2 N          25.474000   21.448000   17.224000 N.pl3     1 <1>        -0.159900 
      3 C          26.199000   20.856000   18.244000 C.ar      1 <1>        -0.133300 
      4 H          25.740000   20.222000   18.990000 H         1 <1>         0.269400 
      5 C          27.495000   21.320000   18.156000 C.ar      1 <1>        -0.270500 
      6 N          27.601000   22.144000   17.050000 N.ar      1 <1>        -0.461100 
      7 C          28.653000   21.035000   19.068000 C.3       1 <1>         1.479600 
      8 F          29.116000   22.163000   19.682000 F         1 <1>        -0.434200 
      9 F          29.715000   20.494000   18.403000 F         1 <1>        -0.434000 
     10 F          28.339000   20.157000   20.065000 F         1 <1>        -0.471200 
     11 C          24.052000   21.361000   17.088000 C.ar      1 <1>         0.284700 
     12 C          23.344000   22.251000   16.266000 C.ar      1 <1>        -0.222300 
     13 H          23.837000   23.050000   15.719000 H         1 <1>         0.167400 
     14 C          21.950000   22.170000   16.163000 C.ar      1 <1>         0.074400 
     15 H          21.421000   22.872000   15.522000 H         1 <1>         0.186300 
     16 C          21.254000   21.198000   16.883000 C.ar      1 <1>        -0.613100 
     17 C          21.941000   20.320000   17.722000 C.ar      1 <1>         0.044100 
     18 H          21.407000   19.563000   18.293000 H         1 <1>         0.192900 
     19 C          23.335000   20.403000   17.826000 C.ar      1 <1>        -0.257300 
     20 H          23.834000   19.682000   18.470000 H         1 <1>         0.197800 
     21 S          19.487000   21.115000   16.780000 S.o2      1 <1>         2.459600 
     22 O          18.955000   22.449000   16.563000 O.2       1 <1>        -0.997900 
     23 O          18.984000   20.290000   17.865000 O.2       1 <1>        -0.991900 
     24 N          19.258000   20.257000   15.360000 N.pl3     1 <1>        -1.301700 
     25 H          18.761000   20.820000   14.665000 H         1 <1>         0.485200 
     26 H          18.777000   19.372000   15.537000 H         1 <1>         0.484900 
     27 C          26.180000   22.744000   15.136000 C.ar      1 <1>         0.556600 
     28 C          26.428000   24.092000   14.907000 C.ar      1 <1>        -0.525700 
     29 H          26.767000   24.741000   15.709000 H         1 <1>         0.258100 
     30 C          26.228000   24.601000   13.626000 C.ar      1 <1>         0.086100 
     31 H          26.403000   25.658000   13.434000 H         1 <1>         0.156500 
     32 C          25.811000   23.750000   12.601000 C.ar      1 <1>        -0.111400 
     33 C          25.593000   22.416000   12.923000 C.ar      1 <1>         0.251900 
     34 H          25.252000   21.707000   12.170000 H         1 <1>         0.147100 
     35 N          25.780000   21.892000   14.159000 N.ar      1 <1>        -0.671200 
     36 C          25.549000   24.266000   11.221000 C.3       1 <1>        -0.371800 
     37 H          25.750000   23.493000   10.471000 H         1 <1>         0.117800 
     38 H          26.200000   25.117000   10.992000 H         1 <1>         0.121000 
     39 H          24.506000   24.585000   11.131000 H         1 <1>         0.125400 
@<TRIPOS>BOND
     1    1    2 ar   
     2    2    3 ar   
     3    3    4 1    
     4    3    5 ar   
     5    5    6 ar   
     6    6    1 ar   
     7    5    7 1    
     8    7    8 1    
     9    7    9 1    
    10    7   10 1    
    11    2   11 1    
    12   11   12 ar   
    13   12   13 1    
    14   12   14 ar   
    15   14   15 1    
    16   14   16 ar   
    17   16   17 ar   
    18   17   18 1    
    19   17   19 ar   
    20   19   20 1    
    21   19   11 ar   
    22   16   21 1    
    23   21   22 2    
    24   21   23 2    
    25   21   24 1    
    26   24   25 1    
    27   24   26 1    
    28    1   27 1    
    29   27   28 ar   
    30   28   29 1    
    31   28   30 ar   
    32   30   31 1    
    33   30   32 ar   
    34   32   33 ar   
    35   33   34 1    
    36   33   35 ar   
    37   35   27 ar   
    38   32   36 1    
    39   36   37 1    
    40   36   38 1    
    41   36   39 1    
@<TRIPOS>SUBSTRUCTURE
     1 ****        1 TEMP              0 ****  ****    0 ROOT 
@<TRIPOS>SET
UNITY_3DHIT     STATIC     ATOMS    <user>   **** Atoms matching 3D or FLEX Search
0
