#	Name:			4-56
#	Creating user name:	jeff
#	Creation time:		Fri Dec 13 09:48:31 2002

#	Modifying user name:	jeff
#	Modification time:	Fri Dec 13 09:48:33 2002

@<TRIPOS>MOLECULE
4-56
   39    41     1     0     1
SMALL
USER_CHARGES
****
From 3DB ct
@<TRIPOS>ATOM
      1 C          26.410000   22.148000   16.455000 C.ar      1 <1>         0.312600 
      2 N          25.473000   21.448000   17.224000 N.pl3     1 <1>        -0.192600 
      3 C          26.198000   20.857000   18.245000 C.ar      1 <1>        -0.130500 
      4 H          25.740000   20.224000   18.992000 H         1 <1>         0.269500 
      5 C          27.494000   21.320000   18.156000 C.ar      1 <1>        -0.270900 
      6 N          27.601000   22.143000   17.048000 N.ar      1 <1>        -0.470300 
      7 C          28.653000   21.036000   19.067000 C.3       1 <1>         1.492200 
      8 F          29.115000   22.163000   19.682000 F         1 <1>        -0.436500 
      9 F          29.716000   20.496000   18.402000 F         1 <1>        -0.437800 
     10 F          28.340000   20.157000   20.064000 F         1 <1>        -0.474800 
     11 C          24.050000   21.361000   17.089000 C.ar      1 <1>         0.313700 
     12 C          23.343000   22.251000   16.267000 C.ar      1 <1>        -0.242000 
     13 H          23.835000   23.050000   15.720000 H         1 <1>         0.173500 
     14 C          21.949000   22.169000   16.164000 C.ar      1 <1>         0.081800 
     15 H          21.419000   22.871000   15.523000 H         1 <1>         0.185300 
     16 C          21.253000   21.197000   16.884000 C.ar      1 <1>        -0.617700 
     17 C          21.941000   20.319000   17.724000 C.ar      1 <1>         0.046000 
     18 H          21.406000   19.562000   18.295000 H         1 <1>         0.193000 
     19 C          23.334000   20.403000   17.827000 C.ar      1 <1>        -0.265200 
     20 H          23.834000   19.683000   18.472000 H         1 <1>         0.199600 
     21 S          19.486000   21.113000   16.781000 S.o2      1 <1>         2.460500 
     22 O          18.954000   22.447000   16.564000 O.2       1 <1>        -0.998200 
     23 O          18.983000   20.288000   17.866000 O.2       1 <1>        -0.992100 
     24 N          19.258000   20.256000   15.361000 N.pl3     1 <1>        -1.299400 
     25 H          18.759000   20.818000   14.667000 H         1 <1>         0.484300 
     26 H          18.778000   19.369000   15.538000 H         1 <1>         0.484200 
     27 C          26.179000   22.743000   15.135000 C.ar      1 <1>         0.577700 
     28 C          26.426000   24.093000   14.907000 C.ar      1 <1>        -0.655400 
     29 H          26.761000   24.732000   15.720000 H         1 <1>         0.283600 
     30 C          26.233000   24.610000   13.623000 C.ar      1 <1>         0.534000 
     31 C          25.789000   23.749000   12.618000 C.ar      1 <1>        -0.599100 
     32 H          25.606000   24.104000   11.608000 H         1 <1>         0.247300 
     33 C          25.587000   22.414000   12.927000 C.ar      1 <1>         0.376000 
     34 H          25.252000   21.715000   12.163000 H         1 <1>         0.116300 
     35 N          25.782000   21.888000   14.159000 N.ar      1 <1>        -0.697300 
     36 C          26.444000   26.068000   13.345000 C.3       1 <1>        -0.383300 
     37 H          25.518000   26.622000   13.530000 H         1 <1>         0.114600 
     38 H          26.751000   26.228000   12.306000 H         1 <1>         0.102400 
     39 H          27.235000   26.476000   13.984000 H         1 <1>         0.114800 
@<TRIPOS>BOND
     1    1    2 ar   
     2    2    3 ar   
     3    3    4 1    
     4    3    5 ar   
     5    5    6 ar   
     6    6    1 ar   
     7    5    7 1    
     8    7    8 1    
     9    7    9 1    
    10    7   10 1    
    11    2   11 1    
    12   11   12 ar   
    13   12   13 1    
    14   12   14 ar   
    15   14   15 1    
    16   14   16 ar   
    17   16   17 ar   
    18   17   18 1    
    19   17   19 ar   
    20   19   20 1    
    21   19   11 ar   
    22   16   21 1    
    23   21   22 2    
    24   21   23 2    
    25   21   24 1    
    26   24   25 1    
    27   24   26 1    
    28    1   27 1    
    29   27   28 ar   
    30   28   29 1    
    31   28   30 ar   
    32   30   31 ar   
    33   31   32 1    
    34   31   33 ar   
    35   33   34 1    
    36   33   35 ar   
    37   35   27 ar   
    38   30   36 1    
    39   36   37 1    
    40   36   38 1    
    41   36   39 1    
@<TRIPOS>SUBSTRUCTURE
     1 ****        1 TEMP              0 ****  ****    0 ROOT 
@<TRIPOS>SET
UNITY_3DHIT     STATIC     ATOMS    <user>   **** Atoms matching 3D or FLEX Search
0
