#	Name:			4-57
#	Creating user name:	jeff
#	Creation time:		Fri Dec 13 09:48:33 2002

#	Modifying user name:	jeff
#	Modification time:	Fri Dec 13 09:48:35 2002

@<TRIPOS>MOLECULE
4-57
   39    41     1     0     1
SMALL
USER_CHARGES
****
From 3DB ct
@<TRIPOS>ATOM
      1 C          26.421000   22.149000   16.464000 C.ar      1 <1>         0.431600 
      2 N          25.479000   21.454000   17.231000 N.pl3     1 <1>        -0.261200 
      3 C          26.202000   20.853000   18.248000 C.ar      1 <1>        -0.102600 
      4 H          25.738000   20.229000   18.999000 H         1 <1>         0.266900 
      5 C          27.507000   21.286000   18.144000 C.ar      1 <1>        -0.307800 
      6 N          27.620000   22.105000   17.036000 N.ar      1 <1>        -0.460300 
      7 C          28.670000   20.971000   19.040000 C.3       1 <1>         1.507300 
      8 F          29.155000   22.082000   19.667000 F         1 <1>        -0.439700 
      9 F          29.718000   20.427000   18.355000 F         1 <1>        -0.438000 
     10 F          28.354000   20.082000   20.026000 F         1 <1>        -0.477100 
     11 C          24.057000   21.370000   17.090000 C.ar      1 <1>         0.327400 
     12 C          23.352000   22.258000   16.264000 C.ar      1 <1>        -0.228500 
     13 H          23.842000   23.059000   15.719000 H         1 <1>         0.164400 
     14 C          21.958000   22.175000   16.153000 C.ar      1 <1>         0.071100 
     15 H          21.431000   22.877000   15.510000 H         1 <1>         0.188200 
     16 C          21.259000   21.202000   16.869000 C.ar      1 <1>        -0.616300 
     17 C          21.943000   20.325000   17.712000 C.ar      1 <1>         0.041700 
     18 H          21.407000   19.567000   18.280000 H         1 <1>         0.194300 
     19 C          23.336000   20.411000   17.823000 C.ar      1 <1>        -0.259200 
     20 H          23.832000   19.690000   18.470000 H         1 <1>         0.199400 
     21 S          19.493000   21.116000   16.758000 S.o2      1 <1>         2.459600 
     22 O          18.960000   22.449000   16.540000 O.2       1 <1>        -0.997300 
     23 O          18.986000   20.289000   17.840000 O.2       1 <1>        -0.990900 
     24 N          19.273000   20.260000   15.336000 N.pl3     1 <1>        -1.299100 
     25 H          18.777000   20.823000   14.639000 H         1 <1>         0.484600 
     26 H          18.792000   19.373000   15.510000 H         1 <1>         0.484400 
     27 C          26.178000   22.767000   15.154000 C.ar      1 <1>         0.344400 
     28 C          26.404000   24.127000   14.907000 C.ar      1 <1>        -0.122100 
     29 C          26.183000   24.590000   13.605000 C.ar      1 <1>         0.070400 
     30 H          26.347000   25.637000   13.352000 H         1 <1>         0.147200 
     31 C          25.751000   23.713000   12.616000 C.ar      1 <1>        -0.452700 
     32 H          25.572000   24.057000   11.602000 H         1 <1>         0.215000 
     33 C          25.559000   22.387000   12.954000 C.ar      1 <1>         0.339900 
     34 H          25.224000   21.668000   12.209000 H         1 <1>         0.114700 
     35 N          25.768000   21.893000   14.195000 N.ar      1 <1>        -0.639200 
     36 C          26.884000   25.073000   15.968000 C.3       1 <1>        -0.237600 
     37 H          27.936000   24.881000   16.200000 H         1 <1>         0.110600 
     38 H          26.284000   24.973000   16.878000 H         1 <1>         0.084900 
     39 H          26.796000   26.115000   15.640000 H         1 <1>         0.081700 
@<TRIPOS>BOND
     1    1    2 ar   
     2    2    3 ar   
     3    3    4 1    
     4    3    5 ar   
     5    5    6 ar   
     6    6    1 ar   
     7    5    7 1    
     8    7    8 1    
     9    7    9 1    
    10    7   10 1    
    11    2   11 1    
    12   11   12 ar   
    13   12   13 1    
    14   12   14 ar   
    15   14   15 1    
    16   14   16 ar   
    17   16   17 ar   
    18   17   18 1    
    19   17   19 ar   
    20   19   20 1    
    21   19   11 ar   
    22   16   21 1    
    23   21   22 2    
    24   21   23 2    
    25   21   24 1    
    26   24   25 1    
    27   24   26 1    
    28    1   27 1    
    29   27   28 ar   
    30   28   29 ar   
    31   29   30 1    
    32   29   31 ar   
    33   31   32 1    
    34   31   33 ar   
    35   33   34 1    
    36   33   35 ar   
    37   35   27 ar   
    38   28   36 1    
    39   36   37 1    
    40   36   38 1    
    41   36   39 1    
@<TRIPOS>SUBSTRUCTURE
     1 ****        1 TEMP              0 ****  ****    0 ROOT 
@<TRIPOS>SET
UNITY_3DHIT     STATIC     ATOMS    <user>   **** Atoms matching 3D or FLEX Search
0
