#	Name:			4-58
#	Creating user name:	jeff
#	Creation time:		Fri Dec 13 09:48:07 2002

#	Modifying user name:	jeff
#	Modification time:	Fri Dec 13 09:48:09 2002

@<TRIPOS>MOLECULE
4-58
   37    39     1     0     1
SMALL
USER_CHARGES
****
From 3DB ct
@<TRIPOS>ATOM
      1 C          26.407000   22.134000   16.466000 C.ar      1 <1>         0.298300 
      2 N          25.470000   21.456000   17.256000 N.pl3     1 <1>        -0.065000 
      3 C          26.199000   20.874000   18.277000 C.ar      1 <1>        -0.389100 
      4 H          25.740000   20.257000   19.038000 H         1 <1>         0.310500 
      5 C          27.496000   21.324000   18.162000 C.ar      1 <1>        -0.127900 
      6 N          27.602000   22.122000   17.041000 N.ar      1 <1>        -0.374100 
      7 C          28.662000   21.046000   19.058000 C.3       1 <1>         1.023400 
      8 H          28.401000   20.385000   19.888000 H         1 <1>        -0.022700 
      9 F          29.172000   22.206000   19.574000 F         1 <1>        -0.429200 
     10 F          29.692000   20.477000   18.360000 F         1 <1>        -0.429600 
     11 C          24.050000   21.369000   17.117000 C.ar      1 <1>         0.361400 
     12 C          23.347000   22.256000   16.288000 C.ar      1 <1>        -0.378600 
     13 H          23.841000   23.062000   15.752000 H         1 <1>         0.230000 
     14 C          21.955000   22.168000   16.173000 C.ar      1 <1>         0.057700 
     15 H          21.429000   22.871000   15.530000 H         1 <1>         0.190200 
     16 C          21.259000   21.193000   16.889000 C.ar      1 <1>        -0.548800 
     17 C          21.941000   20.320000   17.737000 C.ar      1 <1>         0.016100 
     18 H          21.407000   19.563000   18.308000 H         1 <1>         0.195000 
     19 C          23.332000   20.410000   17.853000 C.ar      1 <1>        -0.295400 
     20 H          23.831000   19.695000   18.504000 H         1 <1>         0.201700 
     21 S          19.488000   21.098000   16.758000 S.o2      1 <1>         2.194400 
     22 O          18.978000   22.455000   16.587000 O.2       1 <1>        -0.967800 
     23 O          18.995000   20.308000   17.883000 O.2       1 <1>        -0.965800 
     24 C          19.225000   20.189000   15.259000 C.3       1 <1>        -0.722800 
     25 H          18.148000   20.087000   15.108000 H         1 <1>         0.240500 
     26 H          19.682000   19.202000   15.356000 H         1 <1>         0.194100 
     27 H          19.666000   20.741000   14.426000 H         1 <1>         0.194600 
     28 C          26.181000   22.714000   15.140000 C.ar      1 <1>        -0.468000 
     29 C          26.435000   24.068000   14.902000 C.ar      1 <1>         0.219900 
     30 H          26.781000   24.714000   15.706000 H         1 <1>         0.143800 
     31 C          26.241000   24.598000   13.627000 C.ar      1 <1>        -0.518200 
     32 H          26.425000   25.649000   13.426000 H         1 <1>         0.216200 
     33 C          25.811000   23.753000   12.619000 C.ar      1 <1>         0.451000 
     34 H          25.649000   24.131000   11.611000 H         1 <1>         0.096200 
     35 N          25.573000   22.432000   12.799000 N.ar      1 <1>        -0.735800 
     36 C          25.770000   21.945000   14.053000 C.ar      1 <1>         0.551600 
     37 H          25.586000   20.877000   14.159000 H         1 <1>         0.052400 
@<TRIPOS>BOND
     1    1    2 ar   
     2    2    3 ar   
     3    3    4 1    
     4    3    5 ar   
     5    5    6 ar   
     6    6    1 ar   
     7    5    7 1    
     8    7    8 1    
     9    7    9 1    
    10    7   10 1    
    11    2   11 1    
    12   11   12 ar   
    13   12   13 1    
    14   12   14 ar   
    15   14   15 1    
    16   14   16 ar   
    17   16   17 ar   
    18   17   18 1    
    19   17   19 ar   
    20   19   20 1    
    21   19   11 ar   
    22   16   21 1    
    23   21   22 2    
    24   21   23 2    
    25   21   24 1    
    26   24   25 1    
    27   24   26 1    
    28   24   27 1    
    29    1   28 1    
    30   28   29 ar   
    31   29   30 1    
    32   29   31 ar   
    33   31   32 1    
    34   31   33 ar   
    35   33   34 1    
    36   33   35 ar   
    37   35   36 ar   
    38   36   37 1    
    39   36   28 ar   
@<TRIPOS>SUBSTRUCTURE
     1 ****        1 TEMP              0 ****  ****    0 ROOT 
@<TRIPOS>SET
UNITY_3DHIT     STATIC     ATOMS    <user>   **** Atoms matching 3D or FLEX Search
0
