#	Name:			4-59
#	Creating user name:	jeff
#	Creation time:		Fri Dec 13 09:48:09 2002

#	Modifying user name:	jeff
#	Modification time:	Fri Dec 13 09:48:11 2002

@<TRIPOS>MOLECULE
4-59
   35    37     1     0     1
SMALL
USER_CHARGES
****
From 3DB ct
@<TRIPOS>ATOM
      1 C          26.408000   22.135000   16.465000 C.ar      1 <1>         0.194700 
      2 N          25.470000   21.454000   17.257000 N.pl3     1 <1>        -0.075700 
      3 C          26.197000   20.872000   18.279000 C.ar      1 <1>        -0.485600 
      4 H          25.743000   20.255000   19.042000 H         1 <1>         0.336600 
      5 C          27.482000   21.331000   18.148000 C.ar      1 <1>         0.399900 
      6 N          27.605000   22.125000   17.039000 N.ar      1 <1>        -0.482700 
      7 C          28.594000   21.062000   19.009000 C.1       1 <1>         0.059100 
      8 N          29.497000   20.842000   19.711000 N.1       1 <1>        -0.257100 
      9 C          24.050000   21.368000   17.118000 C.ar      1 <1>         0.412200 
     10 C          23.348000   22.255000   16.289000 C.ar      1 <1>        -0.411000 
     11 H          23.842000   23.062000   15.754000 H         1 <1>         0.232100 
     12 C          21.956000   22.168000   16.173000 C.ar      1 <1>         0.073600 
     13 H          21.430000   22.871000   15.530000 H         1 <1>         0.187400 
     14 C          21.259000   21.193000   16.889000 C.ar      1 <1>        -0.559100 
     15 C          21.940000   20.320000   17.737000 C.ar      1 <1>         0.030000 
     16 H          21.406000   19.563000   18.308000 H         1 <1>         0.194100 
     17 C          23.332000   20.410000   17.854000 C.ar      1 <1>        -0.325000 
     18 H          23.830000   19.694000   18.505000 H         1 <1>         0.211400 
     19 S          19.488000   21.099000   16.756000 S.o2      1 <1>         2.196400 
     20 O          18.980000   22.457000   16.585000 O.2       1 <1>        -0.967800 
     21 O          18.994000   20.310000   17.880000 O.2       1 <1>        -0.964500 
     22 C          19.226000   20.190000   15.257000 C.3       1 <1>        -0.729500 
     23 H          18.149000   20.088000   15.106000 H         1 <1>         0.242600 
     24 H          19.683000   19.204000   15.354000 H         1 <1>         0.195800 
     25 H          19.667000   20.742000   14.424000 H         1 <1>         0.195800 
     26 C          26.181000   22.714000   15.140000 C.ar      1 <1>        -0.270600 
     27 C          26.434000   24.068000   14.902000 C.ar      1 <1>         0.138300 
     28 H          26.780000   24.715000   15.705000 H         1 <1>         0.166500 
     29 C          26.240000   24.598000   13.627000 C.ar      1 <1>        -0.507000 
     30 H          26.424000   25.649000   13.426000 H         1 <1>         0.218600 
     31 C          25.809000   23.753000   12.618000 C.ar      1 <1>         0.430900 
     32 H          25.647000   24.131000   11.611000 H         1 <1>         0.101200 
     33 N          25.571000   22.433000   12.799000 N.ar      1 <1>        -0.704700 
     34 C          25.769000   21.945000   14.053000 C.ar      1 <1>         0.450100 
     35 H          25.585000   20.877000   14.158000 H         1 <1>         0.073300 
@<TRIPOS>BOND
     1    1    2 ar   
     2    2    3 ar   
     3    3    4 1    
     4    3    5 ar   
     5    5    6 ar   
     6    6    1 ar   
     7    5    7 1    
     8    7    8 3    
     9    2    9 1    
    10    9   10 ar   
    11   10   11 1    
    12   10   12 ar   
    13   12   13 1    
    14   12   14 ar   
    15   14   15 ar   
    16   15   16 1    
    17   15   17 ar   
    18   17   18 1    
    19   17    9 ar   
    20   14   19 1    
    21   19   20 2    
    22   19   21 2    
    23   19   22 1    
    24   22   23 1    
    25   22   24 1    
    26   22   25 1    
    27    1   26 1    
    28   26   27 ar   
    29   27   28 1    
    30   27   29 ar   
    31   29   30 1    
    32   29   31 ar   
    33   31   32 1    
    34   31   33 ar   
    35   33   34 ar   
    36   34   35 1    
    37   34   26 ar   
@<TRIPOS>SUBSTRUCTURE
     1 ****        1 TEMP              0 ****  ****    0 ROOT 
@<TRIPOS>SET
UNITY_3DHIT     STATIC     ATOMS    <user>   **** Atoms matching 3D or FLEX Search
0
