#	Name:			4-60
#	Creating user name:	jeff
#	Creation time:		Fri Dec 13 09:48:11 2002

#	Modifying user name:	jeff
#	Modification time:	Fri Dec 13 09:48:13 2002

@<TRIPOS>MOLECULE
4-60
   37    39     1     0     1
SMALL
USER_CHARGES
****
From 3DB ct
@<TRIPOS>ATOM
      1 C          26.407000   22.134000   16.466000 C.ar      1 <1>         0.195700 
      2 N          25.469000   21.457000   17.256000 N.pl3     1 <1>        -0.134100 
      3 C          26.199000   20.876000   18.276000 C.ar      1 <1>        -0.529300 
      4 H          25.743000   20.262000   19.040000 H         1 <1>         0.322200 
      5 C          27.491000   21.326000   18.150000 C.ar      1 <1>         0.414100 
      6 N          27.604000   22.118000   17.041000 N.ar      1 <1>        -0.533100 
      7 C          28.659000   21.064000   19.021000 C.3       1 <1>        -0.378700 
      8 H          29.507000   20.714000   18.425000 H         1 <1>         0.128500 
      9 H          28.432000   20.300000   19.772000 H         1 <1>         0.094300 
     10 H          28.955000   21.979000   19.542000 H         1 <1>         0.123700 
     11 C          24.049000   21.370000   17.117000 C.ar      1 <1>         0.458700 
     12 C          23.346000   22.256000   16.288000 C.ar      1 <1>        -0.417000 
     13 H          23.839000   23.063000   15.752000 H         1 <1>         0.230100 
     14 C          21.953000   22.168000   16.173000 C.ar      1 <1>         0.068200 
     15 H          21.427000   22.870000   15.530000 H         1 <1>         0.187200 
     16 C          21.258000   21.192000   16.889000 C.ar      1 <1>        -0.569900 
     17 C          21.940000   20.320000   17.738000 C.ar      1 <1>         0.032300 
     18 H          21.407000   19.563000   18.308000 H         1 <1>         0.190800 
     19 C          23.332000   20.411000   17.853000 C.ar      1 <1>        -0.337000 
     20 H          23.831000   19.697000   18.505000 H         1 <1>         0.211300 
     21 S          19.487000   21.096000   16.759000 S.o2      1 <1>         2.203100 
     22 O          18.976000   22.453000   16.588000 O.2       1 <1>        -0.972900 
     23 O          18.995000   20.306000   17.884000 O.2       1 <1>        -0.970200 
     24 C          19.224000   20.187000   15.259000 C.3       1 <1>        -0.732000 
     25 H          18.147000   20.085000   15.109000 H         1 <1>         0.239900 
     26 H          19.681000   19.201000   15.357000 H         1 <1>         0.194900 
     27 H          19.664000   20.739000   14.427000 H         1 <1>         0.196300 
     28 C          26.183000   22.715000   15.140000 C.ar      1 <1>        -0.241500 
     29 C          26.436000   24.068000   14.902000 C.ar      1 <1>         0.126200 
     30 H          26.783000   24.714000   15.706000 H         1 <1>         0.166400 
     31 C          26.241000   24.599000   13.628000 C.ar      1 <1>        -0.506600 
     32 H          26.426000   25.650000   13.426000 H         1 <1>         0.215100 
     33 C          25.811000   23.753000   12.619000 C.ar      1 <1>         0.421800 
     34 H          25.648000   24.132000   11.612000 H         1 <1>         0.098100 
     35 N          25.572000   22.433000   12.799000 N.ar      1 <1>        -0.701900 
     36 C          25.770000   21.945000   14.053000 C.ar      1 <1>         0.430800 
     37 H          25.586000   20.878000   14.159000 H         1 <1>         0.075000 
@<TRIPOS>BOND
     1    1    2 ar   
     2    2    3 ar   
     3    3    4 1    
     4    3    5 ar   
     5    5    6 ar   
     6    6    1 ar   
     7    5    7 1    
     8    7    8 1    
     9    7    9 1    
    10    7   10 1    
    11    2   11 1    
    12   11   12 ar   
    13   12   13 1    
    14   12   14 ar   
    15   14   15 1    
    16   14   16 ar   
    17   16   17 ar   
    18   17   18 1    
    19   17   19 ar   
    20   19   20 1    
    21   19   11 ar   
    22   16   21 1    
    23   21   22 2    
    24   21   23 2    
    25   21   24 1    
    26   24   25 1    
    27   24   26 1    
    28   24   27 1    
    29    1   28 1    
    30   28   29 ar   
    31   29   30 1    
    32   29   31 ar   
    33   31   32 1    
    34   31   33 ar   
    35   33   34 1    
    36   33   35 ar   
    37   35   36 ar   
    38   36   37 1    
    39   36   28 ar   
@<TRIPOS>SUBSTRUCTURE
     1 ****        1 TEMP              0 ****  ****    0 ROOT 
@<TRIPOS>SET
UNITY_3DHIT     STATIC     ATOMS    <user>   **** Atoms matching 3D or FLEX Search
0
