#	Name:			4-62
#	Creating user name:	jeff
#	Creation time:		Fri Dec 13 09:48:13 2002

#	Modifying user name:	jeff
#	Modification time:	Fri Dec 13 09:48:15 2002

@<TRIPOS>MOLECULE
4-62
   38    40     1     0     1
SMALL
USER_CHARGES
****
From 3DB ct
@<TRIPOS>ATOM
      1 C          26.408000   22.135000   16.466000 C.ar      1 <1>         0.270000 
      2 N          25.470000   21.456000   17.256000 N.pl3     1 <1>        -0.111300 
      3 C          26.200000   20.874000   18.276000 C.ar      1 <1>        -0.383700 
      4 H          25.744000   20.260000   19.040000 H         1 <1>         0.321500 
      5 C          27.493000   21.327000   18.155000 C.ar      1 <1>         0.028700 
      6 N          27.604000   22.120000   17.041000 N.ar      1 <1>        -0.460000 
      7 C          28.660000   21.058000   19.044000 C.3       1 <1>         0.237500 
      8 H          29.589000   21.083000   18.465000 H         1 <1>         0.025600 
      9 H          28.565000   20.070000   19.506000 H         1 <1>         0.072700 
     10 O          28.754000   22.036000   20.084000 O.3       1 <1>        -0.652400 
     11 H          29.549000   21.777000   20.595000 H         1 <1>         0.431300 
     12 C          24.050000   21.370000   17.118000 C.ar      1 <1>         0.399600 
     13 C          23.347000   22.256000   16.289000 C.ar      1 <1>        -0.402400 
     14 H          23.841000   23.063000   15.753000 H         1 <1>         0.235400 
     15 C          21.955000   22.168000   16.173000 C.ar      1 <1>         0.071000 
     16 H          21.428000   22.870000   15.530000 H         1 <1>         0.185800 
     17 C          21.259000   21.192000   16.889000 C.ar      1 <1>        -0.572100 
     18 C          21.941000   20.320000   17.738000 C.ar      1 <1>         0.040800 
     19 H          21.407000   19.563000   18.308000 H         1 <1>         0.192400 
     20 C          23.332000   20.411000   17.854000 C.ar      1 <1>        -0.315100 
     21 H          23.831000   19.697000   18.505000 H         1 <1>         0.193400 
     22 S          19.488000   21.098000   16.756000 S.o2      1 <1>         2.194500 
     23 O          18.979000   22.455000   16.585000 O.2       1 <1>        -0.968000 
     24 O          18.994000   20.308000   17.881000 O.2       1 <1>        -0.968300 
     25 C          19.226000   20.188000   15.257000 C.3       1 <1>        -0.721900 
     26 H          18.150000   20.086000   15.106000 H         1 <1>         0.238100 
     27 H          19.683000   19.202000   15.355000 H         1 <1>         0.192600 
     28 H          19.668000   20.740000   14.425000 H         1 <1>         0.195100 
     29 C          26.182000   22.714000   15.141000 C.ar      1 <1>        -0.368100 
     30 C          26.435000   24.068000   14.902000 C.ar      1 <1>         0.164100 
     31 H          26.782000   24.715000   15.705000 H         1 <1>         0.156200 
     32 C          26.239000   24.598000   13.627000 C.ar      1 <1>        -0.512300 
     33 H          26.423000   25.649000   13.425000 H         1 <1>         0.215100 
     34 C          25.808000   23.752000   12.619000 C.ar      1 <1>         0.440700 
     35 H          25.644000   24.130000   11.612000 H         1 <1>         0.095500 
     36 N          25.570000   22.432000   12.800000 N.ar      1 <1>        -0.714800 
     37 C          25.769000   21.945000   14.054000 C.ar      1 <1>         0.486700 
     38 H          25.585000   20.877000   14.161000 H         1 <1>         0.066000 
@<TRIPOS>BOND
     1    1    2 ar   
     2    2    3 ar   
     3    3    4 1    
     4    3    5 ar   
     5    5    6 ar   
     6    6    1 ar   
     7    5    7 1    
     8    7    8 1    
     9    7    9 1    
    10    7   10 1    
    11   10   11 1    
    12    2   12 1    
    13   12   13 ar   
    14   13   14 1    
    15   13   15 ar   
    16   15   16 1    
    17   15   17 ar   
    18   17   18 ar   
    19   18   19 1    
    20   18   20 ar   
    21   20   21 1    
    22   20   12 ar   
    23   17   22 1    
    24   22   23 2    
    25   22   24 2    
    26   22   25 1    
    27   25   26 1    
    28   25   27 1    
    29   25   28 1    
    30    1   29 1    
    31   29   30 ar   
    32   30   31 1    
    33   30   32 ar   
    34   32   33 1    
    35   32   34 ar   
    36   34   35 1    
    37   34   36 ar   
    38   36   37 ar   
    39   37   38 1    
    40   37   29 ar   
@<TRIPOS>SUBSTRUCTURE
     1 ****        1 TEMP              0 ****  ****    0 ROOT 
@<TRIPOS>SET
UNITY_3DHIT     STATIC     ATOMS    <user>   **** Atoms matching 3D or FLEX Search
0
