#	Name:			4-63
#	Creating user name:	jeff
#	Creation time:		Fri Dec 13 09:48:16 2002

#	Modifying user name:	jeff
#	Modification time:	Fri Dec 13 09:48:17 2002

@<TRIPOS>MOLECULE
4-63
   36    38     1     0     1
SMALL
USER_CHARGES
****
From 3DB ct
@<TRIPOS>ATOM
      1 C          26.406000   22.135000   16.466000 C.ar      1 <1>         0.256000 
      2 N          25.469000   21.456000   17.256000 N.pl3     1 <1>        -0.068200 
      3 C          26.198000   20.874000   18.277000 C.ar      1 <1>        -0.394300 
      4 H          25.739000   20.258000   19.038000 H         1 <1>         0.305100 
      5 C          27.495000   21.325000   18.163000 C.ar      1 <1>        -0.084000 
      6 N          27.601000   22.122000   17.042000 N.ar      1 <1>        -0.376100 
      7 C          28.660000   21.048000   19.060000 C.3       1 <1>         0.931000 
      8 H          28.402000   20.375000   19.882000 H         1 <1>         0.004600 
      9 F          29.157000   22.207000   19.589000 F         1 <1>        -0.410300 
     10 F          29.698000   20.495000   18.360000 F         1 <1>        -0.410500 
     11 C          24.049000   21.369000   17.116000 C.ar      1 <1>         0.432100 
     12 C          23.347000   22.255000   16.287000 C.ar      1 <1>        -0.429200 
     13 H          23.840000   23.062000   15.751000 H         1 <1>         0.237200 
     14 C          21.954000   22.166000   16.170000 C.ar      1 <1>         0.136100 
     15 H          21.427000   22.867000   15.525000 H         1 <1>         0.187800 
     16 C          21.257000   21.191000   16.885000 C.ar      1 <1>        -0.651900 
     17 C          21.940000   20.318000   17.733000 C.ar      1 <1>         0.089900 
     18 H          21.404000   19.560000   18.300000 H         1 <1>         0.189400 
     19 C          23.331000   20.409000   17.851000 C.ar      1 <1>        -0.347400 
     20 H          23.830000   19.693000   18.502000 H         1 <1>         0.210200 
     21 S          19.491000   21.100000   16.765000 S.o2      1 <1>         2.471500 
     22 O          18.955000   22.431000   16.541000 O.2       1 <1>        -0.997100 
     23 O          18.980000   20.273000   17.844000 O.2       1 <1>        -0.993800 
     24 N          19.282000   20.240000   15.343000 N.pl3     1 <1>        -1.295300 
     25 H          18.788000   20.800000   14.643000 H         1 <1>         0.484100 
     26 H          18.804000   19.352000   15.515000 H         1 <1>         0.482800 
     27 C          26.182000   22.714000   15.140000 C.ar      1 <1>        -0.409800 
     28 C          26.435000   24.068000   14.902000 C.ar      1 <1>         0.190400 
     29 H          26.780000   24.714000   15.707000 H         1 <1>         0.152400 
     30 C          26.242000   24.598000   13.628000 C.ar      1 <1>        -0.517300 
     31 H          26.427000   25.649000   13.426000 H         1 <1>         0.216100 
     32 C          25.813000   23.753000   12.618000 C.ar      1 <1>         0.449200 
     33 H          25.652000   24.131000   11.611000 H         1 <1>         0.096700 
     34 N          25.575000   22.432000   12.798000 N.ar      1 <1>        -0.728100 
     35 C          25.771000   21.945000   14.053000 C.ar      1 <1>         0.527900 
     36 H          25.587000   20.877000   14.159000 H         1 <1>         0.062700 
@<TRIPOS>BOND
     1    1    2 ar   
     2    2    3 ar   
     3    3    4 1    
     4    3    5 ar   
     5    5    6 ar   
     6    6    1 ar   
     7    5    7 1    
     8    7    8 1    
     9    7    9 1    
    10    7   10 1    
    11    2   11 1    
    12   11   12 ar   
    13   12   13 1    
    14   12   14 ar   
    15   14   15 1    
    16   14   16 ar   
    17   16   17 ar   
    18   17   18 1    
    19   17   19 ar   
    20   19   20 1    
    21   19   11 ar   
    22   16   21 1    
    23   21   22 2    
    24   21   23 2    
    25   21   24 1    
    26   24   25 1    
    27   24   26 1    
    28    1   27 1    
    29   27   28 ar   
    30   28   29 1    
    31   28   30 ar   
    32   30   31 1    
    33   30   32 ar   
    34   32   33 1    
    35   32   34 ar   
    36   34   35 ar   
    37   35   36 1    
    38   35   27 ar   
@<TRIPOS>SUBSTRUCTURE
     1 ****        1 TEMP              0 ****  ****    0 ROOT 
@<TRIPOS>SET
UNITY_3DHIT     STATIC     ATOMS    <user>   **** Atoms matching 3D or FLEX Search
0
