#	Name:			4-64
#	Creating user name:	jeff
#	Creation time:		Fri Dec 13 09:48:35 2002

#	Modifying user name:	jeff
#	Modification time:	Fri Dec 13 09:48:37 2002

@<TRIPOS>MOLECULE
4-64
   43    46     1     0     1
SMALL
USER_CHARGES
****
From 3DB ct
@<TRIPOS>ATOM
      1 C          26.412000   22.145000   16.454000 C.ar      1 <1>         0.318000 
      2 N          25.475000   21.448000   17.226000 N.pl3     1 <1>        -0.149700 
      3 C          26.201000   20.855000   18.244000 C.ar      1 <1>        -0.139700 
      4 H          25.742000   20.224000   18.993000 H         1 <1>         0.272600 
      5 C          27.498000   21.315000   18.151000 C.ar      1 <1>        -0.283500 
      6 N          27.604000   22.136000   17.043000 N.ar      1 <1>        -0.470000 
      7 C          28.659000   21.026000   19.059000 C.3       1 <1>         1.494800 
      8 F          28.346000   20.147000   20.056000 F         1 <1>        -0.474700 
      9 F          29.126000   22.151000   19.674000 F         1 <1>        -0.436400 
     10 F          29.718000   20.484000   18.390000 F         1 <1>        -0.438000 
     11 C          24.052000   21.365000   17.094000 C.ar      1 <1>         0.208300 
     12 C          23.345000   22.255000   16.271000 C.ar      1 <1>        -0.163700 
     13 H          23.838000   23.050000   15.719000 H         1 <1>         0.159000 
     14 C          21.951000   22.176000   16.171000 C.ar      1 <1>        -0.009000 
     15 H          21.423000   22.876000   15.527000 H         1 <1>         0.190500 
     16 C          21.255000   21.216000   16.907000 C.ar      1 <1>        -0.503700 
     17 C          21.942000   20.328000   17.734000 C.ar      1 <1>        -0.035400 
     18 H          21.410000   19.570000   18.306000 H         1 <1>         0.196700 
     19 C          23.335000   20.409000   17.834000 C.ar      1 <1>        -0.206300 
     20 H          23.836000   19.686000   18.475000 H         1 <1>         0.190300 
     21 S          19.486000   21.104000   16.760000 S.o2      1 <1>         2.174000 
     22 O          18.962000   22.455000   16.584000 O.2       1 <1>        -0.966100 
     23 O          18.994000   20.310000   17.881000 O.2       1 <1>        -0.961600 
     24 C          19.245000   20.193000   15.258000 C.3       1 <1>        -0.723000 
     25 H          18.171000   20.084000   15.097000 H         1 <1>         0.239700 
     26 H          19.707000   19.210000   15.360000 H         1 <1>         0.194600 
     27 H          19.691000   20.748000   14.430000 H         1 <1>         0.191300 
     28 C          26.178000   22.741000   15.134000 C.ar      1 <1>         0.545600 
     29 C          26.430000   24.089000   14.907000 C.ar      1 <1>        -0.647000 
     30 H          26.775000   24.723000   15.720000 H         1 <1>         0.282600 
     31 C          26.227000   24.613000   13.623000 C.ar      1 <1>         0.486500 
     32 C          25.788000   23.753000   12.597000 C.ar      1 <1>        -0.243000 
     33 C          25.585000   22.412000   12.926000 C.ar      1 <1>         0.288700 
     34 H          25.251000   21.698000   12.174000 H         1 <1>         0.139900 
     35 N          25.776000   21.886000   14.162000 N.ar      1 <1>        -0.689600 
     36 C          25.578000   24.263000   11.303000 C.ar      1 <1>        -0.180500 
     37 H          25.239000   23.609000   10.500000 H         1 <1>         0.174200 
     38 C          25.802000   25.613000   11.031000 C.ar      1 <1>        -0.112600 
     39 H          25.637000   26.000000   10.027000 H         1 <1>         0.149900 
     40 C          26.237000   26.464000   12.044000 C.ar      1 <1>        -0.070300 
     41 H          26.412000   27.517000   11.831000 H         1 <1>         0.154700 
     42 C          26.449000   25.969000   13.332000 C.ar      1 <1>        -0.360500 
     43 H          26.790000   26.653000   14.109000 H         1 <1>         0.212300 
@<TRIPOS>BOND
     1    1    2 ar   
     2    2    3 ar   
     3    3    4 1    
     4    3    5 ar   
     5    5    6 ar   
     6    6    1 ar   
     7    5    7 1    
     8    7    8 1    
     9    7    9 1    
    10    7   10 1    
    11    2   11 1    
    12   11   12 ar   
    13   12   13 1    
    14   12   14 ar   
    15   14   15 1    
    16   14   16 ar   
    17   16   17 ar   
    18   17   18 1    
    19   17   19 ar   
    20   19   20 1    
    21   19   11 ar   
    22   16   21 1    
    23   21   22 2    
    24   21   23 2    
    25   21   24 1    
    26   24   25 1    
    27   24   26 1    
    28   24   27 1    
    29    1   28 1    
    30   28   29 ar   
    31   29   30 1    
    32   29   31 ar   
    33   31   32 ar   
    34   32   33 ar   
    35   33   34 1    
    36   33   35 ar   
    37   35   28 ar   
    38   32   36 ar   
    39   36   37 1    
    40   36   38 ar   
    41   38   39 1    
    42   38   40 ar   
    43   40   41 1    
    44   40   42 ar   
    45   42   43 1    
    46   42   31 ar   
@<TRIPOS>SUBSTRUCTURE
     1 ****        1 TEMP              0 ****  ****    0 ROOT 
@<TRIPOS>SET
UNITY_3DHIT     STATIC     ATOMS    <user>   **** Atoms matching 3D or FLEX Search
0
