#	Name:			4-66
#	Creating user name:	jeff
#	Creation time:		Fri Dec 13 09:48:40 2002

#	Modifying user name:	jeff
#	Modification time:	Fri Dec 13 09:48:42 2002

@<TRIPOS>MOLECULE
4-66
   43    46     1     0     1
SMALL
USER_CHARGES
****
From 3DB ct
@<TRIPOS>ATOM
      1 C          26.407000   22.131000   16.465000 C.ar      1 <1>         0.490200 
      2 N          25.470000   21.455000   17.258000 N.pl3     1 <1>        -0.216900 
      3 C          26.199000   20.873000   18.278000 C.ar      1 <1>        -0.189700 
      4 H          25.741000   20.259000   19.041000 H         1 <1>         0.289000 
      5 C          27.500000   21.319000   18.164000 C.ar      1 <1>        -0.285100 
      6 N          27.603000   22.117000   17.038000 N.ar      1 <1>        -0.464600 
      7 C          28.667000   21.037000   19.065000 C.3       1 <1>         1.519900 
      8 F          28.358000   20.180000   20.082000 F         1 <1>        -0.477500 
      9 F          29.151000   22.170000   19.653000 F         1 <1>        -0.441000 
     10 F          29.715000   20.474000   18.396000 F         1 <1>        -0.444100 
     11 C          24.050000   21.371000   17.121000 C.ar      1 <1>         0.371200 
     12 C          23.348000   22.258000   16.292000 C.ar      1 <1>        -0.341800 
     13 H          23.842000   23.061000   15.752000 H         1 <1>         0.209400 
     14 C          21.955000   22.172000   16.178000 C.ar      1 <1>         0.056300 
     15 H          21.430000   22.871000   15.530000 H         1 <1>         0.190200 
     16 C          21.257000   21.209000   16.909000 C.ar      1 <1>        -0.553500 
     17 C          21.940000   20.326000   17.744000 C.ar      1 <1>         0.019100 
     18 H          21.406000   19.567000   18.312000 H         1 <1>         0.196800 
     19 C          23.332000   20.413000   17.858000 C.ar      1 <1>        -0.297700 
     20 H          23.831000   19.695000   18.505000 H         1 <1>         0.207200 
     21 S          19.490000   21.091000   16.747000 S.o2      1 <1>         2.197500 
     22 O          18.965000   22.438000   16.549000 O.2       1 <1>        -0.966700 
     23 O          18.989000   20.309000   17.873000 O.2       1 <1>        -0.963600 
     24 C          19.266000   20.162000   15.253000 C.3       1 <1>        -0.733300 
     25 H          18.193000   20.046000   15.084000 H         1 <1>         0.243600 
     26 H          19.731000   19.181000   15.371000 H         1 <1>         0.197000 
     27 H          19.716000   20.709000   14.423000 H         1 <1>         0.198100 
     28 C          26.180000   22.711000   15.140000 C.ar      1 <1>        -0.398800 
     29 C          26.434000   24.062000   14.901000 C.ar      1 <1>        -0.003900 
     30 H          26.781000   24.696000   15.716000 H         1 <1>         0.199200 
     31 C          26.240000   24.605000   13.622000 C.ar      1 <1>        -0.134600 
     32 C          25.800000   23.745000   12.592000 C.ar      1 <1>         0.622100 
     33 N          25.570000   22.435000   12.801000 N.ar      1 <1>        -0.728400 
     34 C          25.769000   21.947000   14.055000 C.ar      1 <1>         0.415800 
     35 H          25.584000   20.879000   14.159000 H         1 <1>         0.094500 
     36 C          25.605000   24.285000   11.327000 C.ar      1 <1>        -0.392300 
     37 H          25.266000   23.639000   10.519000 H         1 <1>         0.217100 
     38 C          25.835000   25.640000   11.062000 C.ar      1 <1>        -0.042500 
     39 H          25.674000   26.032000   10.060000 H         1 <1>         0.156900 
     40 C          26.270000   26.481000   12.079000 C.ar      1 <1>        -0.178700 
     41 H          26.451000   27.535000   11.879000 H         1 <1>         0.167600 
     42 C          26.473000   25.966000   13.358000 C.ar      1 <1>        -0.188900 
     43 H          26.814000   26.633000   14.149000 H         1 <1>         0.184900 
@<TRIPOS>BOND
     1    1    2 ar   
     2    2    3 ar   
     3    3    4 1    
     4    3    5 ar   
     5    5    6 ar   
     6    6    1 ar   
     7    5    7 1    
     8    7    8 1    
     9    7    9 1    
    10    7   10 1    
    11    2   11 1    
    12   11   12 ar   
    13   12   13 1    
    14   12   14 ar   
    15   14   15 1    
    16   14   16 ar   
    17   16   17 ar   
    18   17   18 1    
    19   17   19 ar   
    20   19   20 1    
    21   19   11 ar   
    22   16   21 1    
    23   21   22 2    
    24   21   23 2    
    25   21   24 1    
    26   24   25 1    
    27   24   26 1    
    28   24   27 1    
    29    1   28 1    
    30   28   29 ar   
    31   29   30 1    
    32   29   31 ar   
    33   31   32 ar   
    34   32   33 ar   
    35   33   34 ar   
    36   34   35 1    
    37   34   28 ar   
    38   32   36 ar   
    39   36   37 1    
    40   36   38 ar   
    41   38   39 1    
    42   38   40 ar   
    43   40   41 1    
    44   40   42 ar   
    45   42   43 1    
    46   42   31 ar   
@<TRIPOS>SUBSTRUCTURE
     1 ****        1 TEMP              0 ****  ****    0 ROOT 
@<TRIPOS>SET
UNITY_3DHIT     STATIC     ATOMS    <user>   **** Atoms matching 3D or FLEX Search
0
