#	Name:			4-67
#	Creating user name:	jeff
#	Creation time:		Fri Dec 13 09:48:42 2002

#	Modifying user name:	jeff
#	Modification time:	Fri Dec 13 09:48:45 2002

@<TRIPOS>MOLECULE
4-67
   45    48     1     0     1
SMALL
USER_CHARGES
****
From 3DB ct
@<TRIPOS>ATOM
      1 C          26.405000   22.152000   16.514000 C.ar      1 <1>         0.686900 
      2 N          25.472000   21.432000   17.261000 N.pl3     1 <1>        -0.379800 
      3 C          26.204000   20.796000   18.247000 C.ar      1 <1>        -0.125800 
      4 H          25.749000   20.141000   18.977000 H         1 <1>         0.275200 
      5 C          27.507000   21.244000   18.148000 C.ar      1 <1>        -0.359900 
      6 N          27.607000   22.103000   17.067000 N.ar      1 <1>        -0.453200 
      7 C          28.679000   20.907000   19.022000 C.3       1 <1>         1.539600 
      8 F          28.364000   20.022000   20.013000 F         1 <1>        -0.483400 
      9 F          29.194000   22.008000   19.643000 F         1 <1>        -0.438700 
     10 F          29.706000   20.345000   18.320000 F         1 <1>        -0.451900 
     11 C          24.052000   21.357000   17.121000 C.ar      1 <1>         0.419400 
     12 C          23.357000   22.250000   16.293000 C.ar      1 <1>        -0.298000 
     13 H          23.861000   23.046000   15.750000 H         1 <1>         0.204200 
     14 C          21.964000   22.176000   16.177000 C.ar      1 <1>         0.025500 
     15 H          21.445000   22.880000   15.529000 H         1 <1>         0.190600 
     16 C          21.258000   21.218000   16.906000 C.ar      1 <1>        -0.555100 
     17 C          21.933000   20.327000   17.741000 C.ar      1 <1>         0.027700 
     18 H          21.392000   19.571000   18.306000 H         1 <1>         0.190300 
     19 C          23.325000   20.404000   17.855000 C.ar      1 <1>        -0.323800 
     20 H          23.817000   19.680000   18.502000 H         1 <1>         0.215000 
     21 S          19.490000   21.112000   16.741000 S.o2      1 <1>         2.185800 
     22 O          18.972000   22.465000   16.564000 O.2       1 <1>        -0.960900 
     23 O          18.984000   20.315000   17.855000 O.2       1 <1>        -0.959100 
     24 C          19.261000   20.207000   15.234000 C.3       1 <1>        -0.730600 
     25 H          18.187000   20.101000   15.062000 H         1 <1>         0.243100 
     26 H          19.720000   19.222000   15.337000 H         1 <1>         0.193000 
     27 H          19.715000   20.764000   14.412000 H         1 <1>         0.190100 
     28 C          26.209000   22.817000   15.202000 C.ar      1 <1>        -0.508100 
     29 C          26.434000   24.189000   14.890000 C.ar      1 <1>         0.116800 
     30 C          26.141000   24.351000   13.530000 C.ar      1 <1>         0.109300 
     31 N          25.771000   23.111000   13.046000 N.pl3     1 <1>        -0.111600 
     32 C          25.826000   22.175000   14.045000 C.ar      1 <1>        -0.073800 
     33 H          25.585000   21.136000   13.850000 H         1 <1>         0.259800 
     34 C          25.387000   22.834000   11.677000 C.3       1 <1>        -0.169900 
     35 H          25.140000   21.775000   11.574000 H         1 <1>         0.116200 
     36 H          26.228000   23.084000   11.026000 H         1 <1>         0.119100 
     37 H          24.512000   23.443000   11.435000 H         1 <1>         0.115700 
     38 C          26.245000   25.595000   12.888000 C.ar      1 <1>        -0.298200 
     39 H          26.015000   25.710000   11.831000 H         1 <1>         0.183000 
     40 C          26.657000   26.695000   13.647000 C.ar      1 <1>        -0.104600 
     41 H          26.745000   27.671000   13.170000 H         1 <1>         0.152900 
     42 C          26.955000   26.560000   14.999000 C.ar      1 <1>        -0.180500 
     43 H          27.275000   27.429000   15.572000 H         1 <1>         0.160900 
     44 C          26.848000   25.317000   15.631000 C.ar      1 <1>        -0.139200 
     45 H          27.083000   25.223000   16.689000 H         1 <1>         0.186000 
@<TRIPOS>BOND
     1    1    2 ar   
     2    2    3 ar   
     3    3    4 1    
     4    3    5 ar   
     5    5    6 ar   
     6    6    1 ar   
     7    5    7 1    
     8    7    8 1    
     9    7    9 1    
    10    7   10 1    
    11    2   11 1    
    12   11   12 ar   
    13   12   13 1    
    14   12   14 ar   
    15   14   15 1    
    16   14   16 ar   
    17   16   17 ar   
    18   17   18 1    
    19   17   19 ar   
    20   19   20 1    
    21   19   11 ar   
    22   16   21 1    
    23   21   22 2    
    24   21   23 2    
    25   21   24 1    
    26   24   25 1    
    27   24   26 1    
    28   24   27 1    
    29    1   28 1    
    30   28   29 ar   
    31   29   30 ar   
    32   30   31 ar   
    33   31   32 ar   
    34   32   33 1    
    35   32   28 ar   
    36   31   34 1    
    37   34   35 1    
    38   34   36 1    
    39   34   37 1    
    40   30   38 ar   
    41   38   39 1    
    42   38   40 ar   
    43   40   41 1    
    44   40   42 ar   
    45   42   43 1    
    46   42   44 ar   
    47   44   45 1    
    48   44   29 ar   
@<TRIPOS>SUBSTRUCTURE
     1 ****        1 TEMP              0 ****  ****    0 ROOT 
@<TRIPOS>SET
UNITY_3DHIT     STATIC     ATOMS    <user>   **** Atoms matching 3D or FLEX Search
0
