#	Name:			4-69
#	Creating user name:	jeff
#	Creation time:		Fri Dec 13 09:48:47 2002

#	Modifying user name:	jeff
#	Modification time:	Fri Dec 13 09:48:49 2002

@<TRIPOS>MOLECULE
4-69
   41    44     1     0     1
SMALL
USER_CHARGES
****
From 3DB ct
@<TRIPOS>ATOM
      1 C          26.416000   22.133000   16.466000 C.ar      1 <1>         0.686400 
      2 N          25.474000   21.471000   17.264000 N.pl3     1 <1>        -0.298500 
      3 C          26.200000   20.891000   18.289000 C.ar      1 <1>        -0.174000 
      4 H          25.736000   20.298000   19.065000 H         1 <1>         0.293400 
      5 C          27.511000   21.295000   18.151000 C.ar      1 <1>        -0.331900 
      6 N          27.622000   22.076000   17.014000 N.ar      1 <1>        -0.470500 
      7 C          28.683000   20.987000   19.037000 C.3       1 <1>         1.577400 
      8 F          28.361000   20.153000   20.069000 F         1 <1>        -0.493200 
      9 F          29.212000   22.110000   19.604000 F         1 <1>        -0.452600 
     10 F          29.701000   20.381000   18.359000 F         1 <1>        -0.454100 
     11 C          24.052000   21.386000   17.123000 C.ar      1 <1>         0.378100 
     12 C          23.348000   22.267000   16.290000 C.ar      1 <1>        -0.319300 
     13 H          23.837000   23.070000   15.748000 H         1 <1>         0.201600 
     14 C          21.956000   22.174000   16.170000 C.ar      1 <1>         0.055700 
     15 H          21.430000   22.870000   15.518000 H         1 <1>         0.188400 
     16 C          21.259000   21.210000   16.899000 C.ar      1 <1>        -0.557400 
     17 C          21.943000   20.331000   17.738000 C.ar      1 <1>         0.008500 
     18 H          21.410000   19.569000   18.304000 H         1 <1>         0.196700 
     19 C          23.334000   20.425000   17.857000 C.ar      1 <1>        -0.282200 
     20 H          23.832000   19.708000   18.506000 H         1 <1>         0.200700 
     21 S          19.493000   21.080000   16.730000 S.o2      1 <1>         2.191500 
     22 O          18.963000   22.422000   16.512000 O.2       1 <1>        -0.963100 
     23 O          18.990000   20.311000   17.864000 O.2       1 <1>        -0.960500 
     24 C          19.281000   20.129000   15.249000 C.3       1 <1>        -0.731400 
     25 H          18.210000   20.006000   15.076000 H         1 <1>         0.244400 
     26 H          19.751000   19.153000   15.382000 H         1 <1>         0.195300 
     27 H          19.732000   20.667000   14.413000 H         1 <1>         0.191300 
     28 C          26.180000   22.719000   15.146000 C.ar      1 <1>        -0.456300 
     29 C          25.747000   21.929000   14.066000 C.ar      1 <1>        -0.004300 
     30 H          25.564000   20.864000   14.202000 H         1 <1>         0.144600 
     31 C          25.546000   22.493000   12.793000 C.ar      1 <1>        -0.211600 
     32 H          25.205000   21.862000   11.973000 H         1 <1>         0.183400 
     33 C          25.783000   23.850000   12.573000 C.ar      1 <1>        -0.233100 
     34 H          25.631000   24.293000   11.593000 H         1 <1>         0.231700 
     35 C          26.221000   24.606000   13.640000 C.ar      1 <1>         0.208100 
     36 C          26.419000   24.062000   14.891000 C.ar      1 <1>         0.357800 
     37 O          26.841000   24.998000   15.789000 O.3       1 <1>        -0.427900 
     38 C          26.902000   26.182000   14.963000 C.3       1 <1>         0.344500 
     39 H          26.243000   26.945000   15.392000 H         1 <1>         0.088300 
     40 H          27.931000   26.559000   14.964000 H         1 <1>         0.082100 
     41 O          26.499000   25.937000   13.597000 O.3       1 <1>        -0.428200 
@<TRIPOS>BOND
     1    1    2 ar   
     2    2    3 ar   
     3    3    4 1    
     4    3    5 ar   
     5    5    6 ar   
     6    6    1 ar   
     7    5    7 1    
     8    7    8 1    
     9    7    9 1    
    10    7   10 1    
    11    2   11 1    
    12   11   12 ar   
    13   12   13 1    
    14   12   14 ar   
    15   14   15 1    
    16   14   16 ar   
    17   16   17 ar   
    18   17   18 1    
    19   17   19 ar   
    20   19   20 1    
    21   19   11 ar   
    22   16   21 1    
    23   21   22 2    
    24   21   23 2    
    25   21   24 1    
    26   24   25 1    
    27   24   26 1    
    28   24   27 1    
    29    1   28 1    
    30   28   29 ar   
    31   29   30 1    
    32   29   31 ar   
    33   31   32 1    
    34   31   33 ar   
    35   33   34 1    
    36   33   35 ar   
    37   35   36 ar   
    38   36   28 ar   
    39   36   37 1    
    40   37   38 1    
    41   38   39 1    
    42   38   40 1    
    43   38   41 1    
    44   41   35 1    
@<TRIPOS>SUBSTRUCTURE
     1 ****        1 TEMP              0 ****  ****    0 ROOT 
@<TRIPOS>SET
UNITY_3DHIT     STATIC     ATOMS    <user>   **** Atoms matching 3D or FLEX Search
0
