#	Name:			4-70
#	Creating user name:	jeff
#	Creation time:		Fri Dec 13 09:48:49 2002

#	Modifying user name:	jeff
#	Modification time:	Fri Dec 13 09:48:51 2002

@<TRIPOS>MOLECULE
4-70
   35    37     1     0     1
SMALL
USER_CHARGES
****
From 3DB ct
@<TRIPOS>ATOM
      1 C          26.393000   22.143000   16.495000 C.ar      1 <1>         0.483300 
      2 N          25.464000   21.437000   17.260000 N.pl3     1 <1>        -0.301800 
      3 C          26.201000   20.824000   18.257000 C.ar      1 <1>        -0.085300 
      4 H          25.750000   20.180000   19.000000 H         1 <1>         0.272400 
      5 C          27.499000   21.283000   18.151000 C.ar      1 <1>        -0.353600 
      6 N          27.593000   22.122000   17.053000 N.ar      1 <1>        -0.422500 
      7 C          28.673000   20.977000   19.035000 C.3       1 <1>         1.520400 
      8 F          28.371000   20.090000   20.029000 F         1 <1>        -0.477800 
      9 F          29.160000   22.092000   19.654000 F         1 <1>        -0.436100 
     10 F          29.716000   20.433000   18.343000 F         1 <1>        -0.443800 
     11 C          24.044000   21.357000   17.126000 C.ar      1 <1>         0.282100 
     12 C          23.346000   22.248000   16.298000 C.ar      1 <1>        -0.192600 
     13 H          23.847000   23.047000   15.756000 H         1 <1>         0.183100 
     14 C          21.953000   22.170000   16.186000 C.ar      1 <1>        -0.025500 
     15 H          21.430000   22.871000   15.539000 H         1 <1>         0.195900 
     16 C          21.251000   21.210000   16.917000 C.ar      1 <1>        -0.507300 
     17 C          21.931000   20.322000   17.752000 C.ar      1 <1>        -0.008200 
     18 H          21.394000   19.565000   18.320000 H         1 <1>         0.197000 
     19 C          23.324000   20.403000   17.863000 C.ar      1 <1>        -0.261300 
     20 H          23.820000   19.682000   18.510000 H         1 <1>         0.204100 
     21 S          19.483000   21.098000   16.758000 S.o2      1 <1>         2.178500 
     22 O          18.965000   22.446000   16.548000 O.2       1 <1>        -0.959000 
     23 O          18.980000   20.329000   17.892000 O.2       1 <1>        -0.959500 
     24 C          19.253000   20.155000   15.274000 C.3       1 <1>        -0.723600 
     25 H          18.180000   20.043000   15.107000 H         1 <1>         0.242100 
     26 H          19.714000   19.173000   15.401000 H         1 <1>         0.191400 
     27 H          19.706000   20.691000   14.438000 H         1 <1>         0.194900 
     28 C          26.200000   22.777000   15.163000 C.ar      1 <1>        -0.034700 
     29 C          26.456000   24.152000   14.884000 C.ar      1 <1>        -0.148000 
     30 H          26.791000   24.879000   15.616000 H         1 <1>         0.198200 
     31 C          26.217000   24.466000   13.563000 C.ar      1 <1>        -0.362300 
     32 H          26.319000   25.432000   13.085000 H         1 <1>         0.258800 
     33 S          25.715000   23.102000   12.660000 S.3       1 <1>         0.262500 
     34 C          25.823000   22.082000   14.033000 C.ar      1 <1>        -0.417000 
     35 H          25.599000   21.027000   13.937000 H         1 <1>         0.255000 
@<TRIPOS>BOND
     1    1    2 ar   
     2    2    3 ar   
     3    3    4 1    
     4    3    5 ar   
     5    5    6 ar   
     6    6    1 ar   
     7    5    7 1    
     8    7    8 1    
     9    7    9 1    
    10    7   10 1    
    11    2   11 1    
    12   11   12 ar   
    13   12   13 1    
    14   12   14 ar   
    15   14   15 1    
    16   14   16 ar   
    17   16   17 ar   
    18   17   18 1    
    19   17   19 ar   
    20   19   20 1    
    21   19   11 ar   
    22   16   21 1    
    23   21   22 2    
    24   21   23 2    
    25   21   24 1    
    26   24   25 1    
    27   24   26 1    
    28   24   27 1    
    29    1   28 1    
    30   28   29 ar   
    31   29   30 1    
    32   29   31 ar   
    33   31   32 1    
    34   31   33 ar   
    35   33   34 ar   
    36   34   35 1    
    37   34   28 ar   
@<TRIPOS>SUBSTRUCTURE
     1 ****        1 TEMP              0 ****  ****    0 ROOT 
@<TRIPOS>SET
UNITY_3DHIT     STATIC     ATOMS    <user>   **** Atoms matching 3D or FLEX Search
0
