#	Name:			4-71
#	Creating user name:	jeff
#	Creation time:		Fri Dec 13 09:48:51 2002

#	Modifying user name:	jeff
#	Modification time:	Fri Dec 13 09:48:53 2002

@<TRIPOS>MOLECULE
4-71
   35    37     1     0     1
SMALL
USER_CHARGES
****
From 3DB ct
@<TRIPOS>ATOM
      1 C          26.411000   22.173000   16.527000 C.ar      1 <1>         0.532900 
      2 N          25.476000   21.448000   17.267000 N.pl3     1 <1>        -0.175300 
      3 C          26.208000   20.810000   18.253000 C.ar      1 <1>        -0.184300 
      4 H          25.753000   20.149000   18.978000 H         1 <1>         0.285500 
      5 C          27.509000   21.265000   18.163000 C.ar      1 <1>        -0.288200 
      6 N          27.610000   22.131000   17.087000 N.ar      1 <1>        -0.471900 
      7 C          28.679000   20.930000   19.043000 C.3       1 <1>         1.514500 
      8 F          28.369000   20.018000   20.011000 F         1 <1>        -0.478400 
      9 F          29.168000   22.026000   19.692000 F         1 <1>        -0.440900 
     10 F          29.722000   20.401000   18.339000 F         1 <1>        -0.439900 
     11 C          24.056000   21.369000   17.126000 C.ar      1 <1>         0.310200 
     12 C          23.360000   22.259000   16.295000 C.ar      1 <1>        -0.340400 
     13 H          23.860000   23.058000   15.754000 H         1 <1>         0.214600 
     14 C          21.967000   22.180000   16.178000 C.ar      1 <1>         0.052600 
     15 H          21.446000   22.882000   15.529000 H         1 <1>         0.191200 
     16 C          21.263000   21.220000   16.905000 C.ar      1 <1>        -0.533400 
     17 C          21.939000   20.331000   17.741000 C.ar      1 <1>        -0.002800 
     18 H          21.401000   19.574000   18.306000 H         1 <1>         0.196900 
     19 C          23.332000   20.413000   17.858000 C.ar      1 <1>        -0.253900 
     20 H          23.825000   19.691000   18.506000 H         1 <1>         0.199100 
     21 S          19.495000   21.108000   16.740000 S.o2      1 <1>         2.183900 
     22 O          18.981000   22.451000   16.495000 O.2       1 <1>        -0.963700 
     23 O          18.984000   20.367000   17.889000 O.2       1 <1>        -0.959300 
     24 C          19.271000   20.130000   15.277000 C.3       1 <1>        -0.736200 
     25 H          18.199000   20.016000   15.107000 H         1 <1>         0.246600 
     26 H          19.729000   19.151000   15.430000 H         1 <1>         0.197300 
     27 H          19.729000   20.646000   14.431000 H         1 <1>         0.192800 
     28 C          26.214000   22.823000   15.261000 C.ar      1 <1>        -0.405900 
     29 C          26.449000   24.154000   14.973000 C.ar      1 <1>         0.001400 
     30 H          26.788000   24.873000   15.711000 H         1 <1>         0.186000 
     31 C          26.183000   24.471000   13.608000 C.ar      1 <1>        -0.190400 
     32 H          26.288000   25.459000   13.173000 H         1 <1>         0.196200 
     33 C          25.783000   23.365000   12.891000 C.ar      1 <1>        -0.363200 
     34 H          25.524000   23.316000   11.841000 H         1 <1>         0.260200 
     35 S          25.743000   21.955000   13.858000 S.3       1 <1>         0.266400 
@<TRIPOS>BOND
     1    1    2 ar   
     2    2    3 ar   
     3    3    4 1    
     4    3    5 ar   
     5    5    6 ar   
     6    6    1 ar   
     7    5    7 1    
     8    7    8 1    
     9    7    9 1    
    10    7   10 1    
    11    2   11 1    
    12   11   12 ar   
    13   12   13 1    
    14   12   14 ar   
    15   14   15 1    
    16   14   16 ar   
    17   16   17 ar   
    18   17   18 1    
    19   17   19 ar   
    20   19   20 1    
    21   19   11 ar   
    22   16   21 1    
    23   21   22 2    
    24   21   23 2    
    25   21   24 1    
    26   24   25 1    
    27   24   26 1    
    28   24   27 1    
    29    1   28 1    
    30   28   29 ar   
    31   29   30 1    
    32   29   31 ar   
    33   31   32 1    
    34   31   33 ar   
    35   33   34 1    
    36   33   35 ar   
    37   35   28 ar   
@<TRIPOS>SUBSTRUCTURE
     1 ****        1 TEMP              0 ****  ****    0 ROOT 
@<TRIPOS>SET
UNITY_3DHIT     STATIC     ATOMS    <user>   **** Atoms matching 3D or FLEX Search
0
