#	Name:			4-72
#	Creating user name:	jeff
#	Creation time:		Fri Dec 13 09:48:53 2002

#	Modifying user name:	jeff
#	Modification time:	Fri Dec 13 09:48:55 2002

@<TRIPOS>MOLECULE
4-72
   34    36     1     0     1
SMALL
USER_CHARGES
****
From 3DB ct
@<TRIPOS>ATOM
      1 C          26.411000   22.172000   16.527000 C.ar      1 <1>         0.560400 
      2 N          25.476000   21.448000   17.269000 N.pl3     1 <1>        -0.231100 
      3 C          26.210000   20.808000   18.252000 C.ar      1 <1>        -0.173900 
      4 H          25.755000   20.147000   18.978000 H         1 <1>         0.280900 
      5 C          27.511000   21.262000   18.160000 C.ar      1 <1>        -0.284800 
      6 N          27.611000   22.128000   17.084000 N.ar      1 <1>        -0.478200 
      7 C          28.682000   20.925000   19.037000 C.3       1 <1>         1.514600 
      8 F          28.367000   20.033000   20.021000 F         1 <1>        -0.479200 
      9 F          29.190000   22.025000   19.665000 F         1 <1>        -0.441500 
     10 F          29.713000   20.371000   18.335000 F         1 <1>        -0.439700 
     11 C          24.056000   21.371000   17.129000 C.ar      1 <1>         0.423800 
     12 C          23.360000   22.261000   16.299000 C.ar      1 <1>        -0.424600 
     13 H          23.860000   23.060000   15.758000 H         1 <1>         0.227100 
     14 C          21.967000   22.181000   16.182000 C.ar      1 <1>         0.157000 
     15 H          21.443000   22.882000   15.535000 H         1 <1>         0.184100 
     16 C          21.262000   21.220000   16.908000 C.ar      1 <1>        -0.660400 
     17 C          21.939000   20.334000   17.747000 C.ar      1 <1>         0.081500 
     18 H          21.400000   19.578000   18.313000 H         1 <1>         0.191300 
     19 C          23.332000   20.416000   17.864000 C.ar      1 <1>        -0.314600 
     20 H          23.826000   19.695000   18.512000 H         1 <1>         0.207900 
     21 S          19.503000   21.108000   16.728000 S.o2      1 <1>         2.477100 
     22 O          18.955000   22.432000   16.493000 O.2       1 <1>        -0.998200 
     23 O          18.971000   20.268000   17.786000 O.2       1 <1>        -0.991500 
     24 N          19.351000   20.257000   15.293000 N.pl3     1 <1>        -1.310500 
     25 H          18.875000   20.818000   14.581000 H         1 <1>         0.487300 
     26 H          18.876000   19.363000   15.442000 H         1 <1>         0.488100 
     27 C          26.211000   22.823000   15.261000 C.ar      1 <1>        -0.419900 
     28 C          26.446000   24.154000   14.973000 C.ar      1 <1>         0.001100 
     29 H          26.785000   24.873000   15.711000 H         1 <1>         0.185200 
     30 C          26.179000   24.470000   13.608000 C.ar      1 <1>        -0.190100 
     31 H          26.282000   25.458000   13.173000 H         1 <1>         0.194700 
     32 C          25.779000   23.365000   12.892000 C.ar      1 <1>        -0.363600 
     33 H          25.518000   23.316000   11.842000 H         1 <1>         0.260500 
     34 S          25.740000   21.954000   13.859000 S.3       1 <1>         0.279400 
@<TRIPOS>BOND
     1    1    2 ar   
     2    2    3 ar   
     3    3    4 1    
     4    3    5 ar   
     5    5    6 ar   
     6    6    1 ar   
     7    5    7 1    
     8    7    8 1    
     9    7    9 1    
    10    7   10 1    
    11    2   11 1    
    12   11   12 ar   
    13   12   13 1    
    14   12   14 ar   
    15   14   15 1    
    16   14   16 ar   
    17   16   17 ar   
    18   17   18 1    
    19   17   19 ar   
    20   19   20 1    
    21   19   11 ar   
    22   16   21 1    
    23   21   22 2    
    24   21   23 2    
    25   21   24 1    
    26   24   25 1    
    27   24   26 1    
    28    1   27 1    
    29   27   28 ar   
    30   28   29 1    
    31   28   30 ar   
    32   30   31 1    
    33   30   32 ar   
    34   32   33 1    
    35   32   34 ar   
    36   34   27 ar   
@<TRIPOS>SUBSTRUCTURE
     1 ****        1 TEMP              0 ****  ****    0 ROOT 
@<TRIPOS>SET
UNITY_3DHIT     STATIC     ATOMS    <user>   **** Atoms matching 3D or FLEX Search
0
