#	Name:			4-73
#	Creating user name:	jeff
#	Creation time:		Fri Dec 13 09:48:55 2002

#	Modifying user name:	jeff
#	Modification time:	Fri Dec 13 09:48:57 2002

@<TRIPOS>MOLECULE
4-73
   35    37     1     0     1
SMALL
USER_CHARGES
****
From 3DB ct
@<TRIPOS>ATOM
      1 C          26.410000   22.176000   16.527000 C.ar      1 <1>         0.409700 
      2 N          25.476000   21.448000   17.265000 N.pl3     1 <1>        -0.133600 
      3 C          26.209000   20.808000   18.249000 C.ar      1 <1>        -0.200600 
      4 H          25.755000   20.145000   18.972000 H         1 <1>         0.284800 
      5 C          27.509000   21.267000   18.161000 C.ar      1 <1>        -0.249000 
      6 N          27.609000   22.136000   17.087000 N.ar      1 <1>        -0.469900 
      7 C          28.678000   20.932000   19.041000 C.3       1 <1>         1.494400 
      8 F          28.370000   20.019000   20.008000 F         1 <1>        -0.474000 
      9 F          29.166000   22.029000   19.691000 F         1 <1>        -0.437000 
     10 F          29.723000   20.406000   18.337000 F         1 <1>        -0.436300 
     11 C          24.056000   21.369000   17.124000 C.ar      1 <1>         0.356200 
     12 C          23.360000   22.259000   16.294000 C.ar      1 <1>        -0.445500 
     13 H          23.860000   23.059000   15.754000 H         1 <1>         0.241200 
     14 C          21.967000   22.180000   16.177000 C.ar      1 <1>         0.114000 
     15 H          21.446000   22.882000   15.529000 H         1 <1>         0.182700 
     16 C          21.263000   21.220000   16.905000 C.ar      1 <1>        -0.553300 
     17 C          21.940000   20.331000   17.741000 C.ar      1 <1>         0.012700 
     18 H          21.401000   19.574000   18.306000 H         1 <1>         0.194600 
     19 C          23.332000   20.413000   17.857000 C.ar      1 <1>        -0.270500 
     20 H          23.827000   19.691000   18.505000 H         1 <1>         0.200800 
     21 S          19.496000   21.108000   16.742000 S.o2      1 <1>         2.178500 
     22 O          18.981000   22.452000   16.498000 O.2       1 <1>        -0.961900 
     23 O          18.985000   20.368000   17.891000 O.2       1 <1>        -0.956300 
     24 C          19.270000   20.132000   15.279000 C.3       1 <1>        -0.723900 
     25 H          18.197000   20.019000   15.110000 H         1 <1>         0.245200 
     26 H          19.727000   19.152000   15.431000 H         1 <1>         0.195200 
     27 H          19.727000   20.647000   14.433000 H         1 <1>         0.187000 
     28 C          26.213000   22.827000   15.261000 C.ar      1 <1>        -0.262000 
     29 C          26.449000   24.159000   14.976000 C.ar      1 <1>         0.243000 
     30 H          26.787000   24.873000   15.719000 H         1 <1>         0.150900 
     31 C          26.184000   24.458000   13.617000 C.ar      1 <1>        -0.832300 
     32 C          25.784000   23.367000   12.887000 C.ar      1 <1>         0.049000 
     33 H          25.526000   23.319000   11.838000 H         1 <1>         0.185200 
     34 S          25.744000   21.956000   13.856000 S.3       1 <1>         0.214800 
     35 Br         26.383000   26.200000   12.921000 Br        1 <1>         0.266200 
@<TRIPOS>BOND
     1    1    2 ar   
     2    2    3 ar   
     3    3    4 1    
     4    3    5 ar   
     5    5    6 ar   
     6    6    1 ar   
     7    5    7 1    
     8    7    8 1    
     9    7    9 1    
    10    7   10 1    
    11    2   11 1    
    12   11   12 ar   
    13   12   13 1    
    14   12   14 ar   
    15   14   15 1    
    16   14   16 ar   
    17   16   17 ar   
    18   17   18 1    
    19   17   19 ar   
    20   19   20 1    
    21   19   11 ar   
    22   16   21 1    
    23   21   22 2    
    24   21   23 2    
    25   21   24 1    
    26   24   25 1    
    27   24   26 1    
    28   24   27 1    
    29    1   28 1    
    30   28   29 ar   
    31   29   30 1    
    32   29   31 ar   
    33   31   32 ar   
    34   32   33 1    
    35   32   34 ar   
    36   34   28 ar   
    37   31   35 1    
@<TRIPOS>SUBSTRUCTURE
     1 ****        1 TEMP              0 ****  ****    0 ROOT 
@<TRIPOS>SET
UNITY_3DHIT     STATIC     ATOMS    <user>   **** Atoms matching 3D or FLEX Search
0
