#	Name:			4-74
#	Creating user name:	jeff
#	Creation time:		Fri Dec 13 09:48:57 2002

#	Modifying user name:	jeff
#	Modification time:	Fri Dec 13 09:48:59 2002

@<TRIPOS>MOLECULE
4-74
   38    40     1     0     1
SMALL
USER_CHARGES
****
From 3DB ct
@<TRIPOS>ATOM
      1 C          26.418000   22.173000   16.530000 C.ar      1 <1>         0.674300 
      2 N          25.480000   21.452000   17.270000 N.pl3     1 <1>        -0.240600 
      3 C          26.210000   20.808000   18.254000 C.ar      1 <1>        -0.153200 
      4 H          25.753000   20.153000   18.982000 H         1 <1>         0.282900 
      5 C          27.517000   21.245000   18.153000 C.ar      1 <1>        -0.352000 
      6 N          27.622000   22.110000   17.078000 N.ar      1 <1>        -0.452200 
      7 C          28.688000   20.892000   19.023000 C.3       1 <1>         1.550900 
      8 F          28.367000   20.006000   20.010000 F         1 <1>        -0.483500 
      9 F          29.218000   21.984000   19.646000 F         1 <1>        -0.446800 
     10 F          29.706000   20.322000   18.314000 F         1 <1>        -0.447600 
     11 C          24.059000   21.375000   17.126000 C.ar      1 <1>         0.346900 
     12 C          23.364000   22.264000   16.293000 C.ar      1 <1>        -0.357700 
     13 H          23.863000   23.063000   15.752000 H         1 <1>         0.220000 
     14 C          21.971000   22.183000   16.172000 C.ar      1 <1>         0.067400 
     15 H          21.452000   22.884000   15.521000 H         1 <1>         0.189900 
     16 C          21.266000   21.223000   16.898000 C.ar      1 <1>        -0.545300 
     17 C          21.941000   20.336000   17.736000 C.ar      1 <1>        -0.001100 
     18 H          21.401000   19.578000   18.300000 H         1 <1>         0.196900 
     19 C          23.333000   20.419000   17.857000 C.ar      1 <1>        -0.264900 
     20 H          23.824000   19.696000   18.506000 H         1 <1>         0.201000 
     21 S          19.499000   21.110000   16.726000 S.o2      1 <1>         2.192300 
     22 O          18.986000   22.451000   16.463000 O.2       1 <1>        -0.966200 
     23 O          18.983000   20.383000   17.882000 O.2       1 <1>        -0.961800 
     24 C          19.281000   20.116000   15.274000 C.3       1 <1>        -0.733100 
     25 H          18.209000   20.001000   15.100000 H         1 <1>         0.245000 
     26 H          19.737000   19.138000   15.440000 H         1 <1>         0.197100 
     27 H          19.743000   20.621000   14.424000 H         1 <1>         0.191200 
     28 C          26.215000   22.838000   15.270000 C.ar      1 <1>        -0.634300 
     29 C          26.434000   24.179000   14.982000 C.ar      1 <1>         0.364400 
     30 C          26.152000   24.462000   13.603000 C.ar      1 <1>        -0.326500 
     31 H          26.241000   25.442000   13.147000 H         1 <1>         0.222300 
     32 C          25.759000   23.346000   12.900000 C.ar      1 <1>        -0.327200 
     33 H          25.494000   23.285000   11.852000 H         1 <1>         0.256100 
     34 S          25.736000   21.951000   13.881000 S.3       1 <1>         0.285900 
     35 C          26.893000   25.209000   15.964000 C.3       1 <1>        -0.239300 
     36 H          27.923000   25.007000   16.276000 H         1 <1>         0.100800 
     37 H          26.251000   25.210000   16.851000 H         1 <1>         0.064900 
     38 H          26.863000   26.213000   15.527000 H         1 <1>         0.083100 
@<TRIPOS>BOND
     1    1    2 ar   
     2    2    3 ar   
     3    3    4 1    
     4    3    5 ar   
     5    5    6 ar   
     6    6    1 ar   
     7    5    7 1    
     8    7    8 1    
     9    7    9 1    
    10    7   10 1    
    11    2   11 1    
    12   11   12 ar   
    13   12   13 1    
    14   12   14 ar   
    15   14   15 1    
    16   14   16 ar   
    17   16   17 ar   
    18   17   18 1    
    19   17   19 ar   
    20   19   20 1    
    21   19   11 ar   
    22   16   21 1    
    23   21   22 2    
    24   21   23 2    
    25   21   24 1    
    26   24   25 1    
    27   24   26 1    
    28   24   27 1    
    29    1   28 1    
    30   28   29 ar   
    31   29   30 ar   
    32   30   31 1    
    33   30   32 ar   
    34   32   33 1    
    35   32   34 ar   
    36   34   28 ar   
    37   29   35 1    
    38   35   36 1    
    39   35   37 1    
    40   35   38 1    
@<TRIPOS>SUBSTRUCTURE
     1 ****        1 TEMP              0 ****  ****    0 ROOT 
@<TRIPOS>SET
UNITY_3DHIT     STATIC     ATOMS    <user>   **** Atoms matching 3D or FLEX Search
0
