#	Name:			4-75
#	Creating user name:	jeff
#	Creation time:		Fri Dec 13 09:48:59 2002

#	Modifying user name:	jeff
#	Modification time:	Fri Dec 13 09:49:01 2002

@<TRIPOS>MOLECULE
4-75
   37    39     1     0     1
SMALL
USER_CHARGES
****
From 3DB ct
@<TRIPOS>ATOM
      1 C          26.398000   22.152000   16.483000 C.ar      1 <1>         0.544300 
      2 N          25.471000   21.453000   17.254000 N.pl3     1 <1>        -0.359900 
      3 C          26.208000   20.847000   18.255000 C.ar      1 <1>        -0.120700 
      4 H          25.756000   20.212000   19.005000 H         1 <1>         0.285300 
      5 C          27.508000   21.299000   18.142000 C.ar      1 <1>        -0.280300 
      6 N          27.603000   22.127000   17.035000 N.ar      1 <1>        -0.443400 
      7 C          28.683000   20.995000   19.027000 C.3       1 <1>         1.505100 
      8 F          28.384000   20.101000   20.014000 F         1 <1>        -0.482800 
      9 F          29.162000   22.110000   19.652000 F         1 <1>        -0.430300 
     10 F          29.730000   20.461000   18.332000 F         1 <1>        -0.441700 
     11 C          24.052000   21.371000   17.119000 C.ar      1 <1>         0.297500 
     12 C          23.352000   22.260000   16.290000 C.ar      1 <1>        -0.180800 
     13 H          23.849000   23.062000   15.751000 H         1 <1>         0.182700 
     14 C          21.959000   22.176000   16.176000 C.ar      1 <1>        -0.038700 
     15 H          21.435000   22.877000   15.528000 H         1 <1>         0.199000 
     16 C          21.259000   21.214000   16.906000 C.ar      1 <1>        -0.498700 
     17 C          21.941000   20.329000   17.742000 C.ar      1 <1>        -0.019700 
     18 H          21.405000   19.571000   18.309000 H         1 <1>         0.197600 
     19 C          23.333000   20.414000   17.855000 C.ar      1 <1>        -0.263000 
     20 H          23.831000   19.695000   18.503000 H         1 <1>         0.209000 
     21 S          19.492000   21.098000   16.744000 S.o2      1 <1>         2.182800 
     22 O          18.970000   22.444000   16.535000 O.2       1 <1>        -0.957500 
     23 O          18.990000   20.326000   17.877000 O.2       1 <1>        -0.957800 
     24 C          19.267000   20.156000   15.258000 C.3       1 <1>        -0.756600 
     25 H          18.194000   20.044000   15.088000 H         1 <1>         0.251300 
     26 H          19.727000   19.175000   15.385000 H         1 <1>         0.200300 
     27 H          19.722000   20.694000   14.424000 H         1 <1>         0.204400 
     28 C          26.184000   22.772000   15.145000 C.ar      1 <1>         0.157700 
     29 N          26.441000   24.118000   14.924000 N.ar      1 <1>        -0.466000 
     30 C          26.201000   24.416000   13.663000 C.ar      1 <1>         0.258300 
     31 S          25.685000   23.103000   12.678000 S.3       1 <1>         0.205600 
     32 C          25.794000   22.057000   14.031000 C.ar      1 <1>        -0.564600 
     33 H          25.569000   21.003000   13.944000 H         1 <1>         0.306900 
     34 C          26.351000   25.773000   13.069000 C.3       1 <1>        -0.233100 
     35 H          27.096000   25.767000   12.267000 H         1 <1>         0.098900 
     36 H          26.680000   26.488000   13.830000 H         1 <1>         0.114800 
     37 H          25.398000   26.128000   12.663000 H         1 <1>         0.094200 
@<TRIPOS>BOND
     1    1    2 ar   
     2    2    3 ar   
     3    3    4 1    
     4    3    5 ar   
     5    5    6 ar   
     6    6    1 ar   
     7    5    7 1    
     8    7    8 1    
     9    7    9 1    
    10    7   10 1    
    11    2   11 1    
    12   11   12 ar   
    13   12   13 1    
    14   12   14 ar   
    15   14   15 1    
    16   14   16 ar   
    17   16   17 ar   
    18   17   18 1    
    19   17   19 ar   
    20   19   20 1    
    21   19   11 ar   
    22   16   21 1    
    23   21   22 2    
    24   21   23 2    
    25   21   24 1    
    26   24   25 1    
    27   24   26 1    
    28   24   27 1    
    29    1   28 1    
    30   28   29 ar   
    31   29   30 ar   
    32   30   31 ar   
    33   31   32 ar   
    34   32   33 1    
    35   32   28 ar   
    36   30   34 1    
    37   34   35 1    
    38   34   36 1    
    39   34   37 1    
@<TRIPOS>SUBSTRUCTURE
     1 ****        1 TEMP              0 ****  ****    0 ROOT 
@<TRIPOS>SET
UNITY_3DHIT     STATIC     ATOMS    <user>   **** Atoms matching 3D or FLEX Search
0
