#	Name:			4-76
#	Creating user name:	jeff
#	Creation time:		Fri Dec 13 09:49:01 2002

#	Modifying user name:	jeff
#	Modification time:	Fri Dec 13 09:49:03 2002

@<TRIPOS>MOLECULE
4-76
   36    38     1     0     1
SMALL
USER_CHARGES
****
From 3DB ct
@<TRIPOS>ATOM
      1 C          26.397000   22.152000   16.483000 C.ar      1 <1>         0.535200 
      2 N          25.471000   21.453000   17.254000 N.pl3     1 <1>        -0.369800 
      3 C          26.209000   20.846000   18.255000 C.ar      1 <1>        -0.114500 
      4 H          25.758000   20.210000   19.004000 H         1 <1>         0.282200 
      5 C          27.508000   21.300000   18.142000 C.ar      1 <1>        -0.278700 
      6 N          27.602000   22.128000   17.035000 N.ar      1 <1>        -0.443700 
      7 C          28.683000   20.997000   19.026000 C.3       1 <1>         1.501100 
      8 F          28.385000   20.105000   20.016000 F         1 <1>        -0.482300 
      9 F          29.163000   22.113000   19.649000 F         1 <1>        -0.430300 
     10 F          29.730000   20.463000   18.332000 F         1 <1>        -0.440000 
     11 C          24.051000   21.369000   17.119000 C.ar      1 <1>         0.329500 
     12 C          23.351000   22.259000   16.291000 C.ar      1 <1>        -0.201300 
     13 H          23.847000   23.062000   15.752000 H         1 <1>         0.178800 
     14 C          21.958000   22.175000   16.179000 C.ar      1 <1>         0.021000 
     15 H          21.428000   22.875000   15.536000 H         1 <1>         0.196000 
     16 C          21.257000   21.212000   16.909000 C.ar      1 <1>        -0.580500 
     17 C          21.941000   20.328000   17.745000 C.ar      1 <1>         0.024400 
     18 H          21.405000   19.571000   18.314000 H         1 <1>         0.202700 
     19 C          23.333000   20.412000   17.856000 C.ar      1 <1>        -0.276500 
     20 H          23.832000   19.693000   18.503000 H         1 <1>         0.209600 
     21 S          19.497000   21.101000   16.739000 S.o2      1 <1>         2.456400 
     22 O          18.953000   22.419000   16.465000 O.2       1 <1>        -0.989200 
     23 O          18.968000   20.297000   17.826000 O.2       1 <1>        -0.989900 
     24 N          19.336000   20.207000   15.332000 N.pl3     1 <1>        -1.294900 
     25 H          18.859000   20.746000   14.606000 H         1 <1>         0.483600 
     26 H          18.860000   19.319000   15.512000 H         1 <1>         0.482600 
     27 C          26.183000   22.772000   15.145000 C.ar      1 <1>         0.177700 
     28 N          26.439000   24.119000   14.924000 N.ar      1 <1>        -0.476100 
     29 C          26.201000   24.416000   13.662000 C.ar      1 <1>         0.261600 
     30 S          25.687000   23.103000   12.677000 S.3       1 <1>         0.203400 
     31 C          25.794000   22.057000   14.030000 C.ar      1 <1>        -0.568600 
     32 H          25.570000   21.003000   13.943000 H         1 <1>         0.316700 
     33 C          26.351000   25.773000   13.068000 C.3       1 <1>        -0.225600 
     34 H          27.093000   25.765000   12.263000 H         1 <1>         0.094600 
     35 H          26.685000   26.487000   13.828000 H         1 <1>         0.112700 
     36 H          25.398000   26.129000   12.666000 H         1 <1>         0.092400 
@<TRIPOS>BOND
     1    1    2 ar   
     2    2    3 ar   
     3    3    4 1    
     4    3    5 ar   
     5    5    6 ar   
     6    6    1 ar   
     7    5    7 1    
     8    7    8 1    
     9    7    9 1    
    10    7   10 1    
    11    2   11 1    
    12   11   12 ar   
    13   12   13 1    
    14   12   14 ar   
    15   14   15 1    
    16   14   16 ar   
    17   16   17 ar   
    18   17   18 1    
    19   17   19 ar   
    20   19   20 1    
    21   19   11 ar   
    22   16   21 1    
    23   21   22 2    
    24   21   23 2    
    25   21   24 1    
    26   24   25 1    
    27   24   26 1    
    28    1   27 1    
    29   27   28 ar   
    30   28   29 ar   
    31   29   30 ar   
    32   30   31 ar   
    33   31   32 1    
    34   31   27 ar   
    35   29   33 1    
    36   33   34 1    
    37   33   35 1    
    38   33   36 1    
@<TRIPOS>SUBSTRUCTURE
     1 ****        1 TEMP              0 ****  ****    0 ROOT 
@<TRIPOS>SET
UNITY_3DHIT     STATIC     ATOMS    <user>   **** Atoms matching 3D or FLEX Search
0
