#	Name:			4-77
#	Creating user name:	jeff
#	Creation time:		Fri Dec 13 09:49:03 2002

#	Modifying user name:	jeff
#	Modification time:	Fri Dec 13 09:49:05 2002

@<TRIPOS>MOLECULE
4-77
   36    38     1     0     1
SMALL
USER_CHARGES
****
From 3DB ct
@<TRIPOS>ATOM
      1 C          26.430000   22.140000   16.538000 C.ar      1 <1>         0.895100 
      2 N          25.486000   21.413000   17.265000 N.pl3     1 <1>        -0.560200 
      3 C          26.208000   20.755000   18.244000 C.ar      1 <1>        -0.069400 
      4 H          25.744000   20.087000   18.956000 H         1 <1>         0.278000 
      5 C          27.512000   21.205000   18.170000 C.ar      1 <1>        -0.393900 
      6 N          27.624000   22.086000   17.107000 N.ar      1 <1>        -0.434400 
      7 C          28.673000   20.852000   19.054000 C.3       1 <1>         1.574000 
      8 F          28.355000   19.920000   20.000000 F         1 <1>        -0.487100 
      9 F          29.156000   21.935000   19.730000 F         1 <1>        -0.444300 
     10 F          29.723000   20.338000   18.348000 F         1 <1>        -0.456900 
     11 C          24.067000   21.350000   17.117000 C.ar      1 <1>         0.629300 
     12 C          23.385000   22.252000   16.286000 C.ar      1 <1>        -0.420300 
     13 H          23.897000   23.048000   15.752000 H         1 <1>         0.236000 
     14 C          21.992000   22.188000   16.163000 C.ar      1 <1>         0.113000 
     15 H          21.477000   22.897000   15.518000 H         1 <1>         0.196700 
     16 C          21.273000   21.232000   16.884000 C.ar      1 <1>        -0.665400 
     17 C          21.936000   20.336000   17.722000 C.ar      1 <1>         0.105400 
     18 H          21.386000   19.584000   18.284000 H         1 <1>         0.192400 
     19 C          23.329000   20.401000   17.845000 C.ar      1 <1>        -0.406800 
     20 H          23.812000   19.673000   18.494000 H         1 <1>         0.229400 
     21 S          19.513000   21.150000   16.699000 S.o2      1 <1>         2.474200 
     22 O          18.991000   22.477000   16.424000 O.2       1 <1>        -0.994200 
     23 O          18.963000   20.351000   17.780000 O.2       1 <1>        -0.991400 
     24 N          19.348000   20.264000   15.287000 N.pl3     1 <1>        -1.289400 
     25 H          18.886000   20.814000   14.559000 H         1 <1>         0.482600 
     26 H          18.856000   19.383000   15.459000 H         1 <1>         0.480900 
     27 C          26.248000   22.800000   15.279000 C.ar      1 <1>        -0.848500 
     28 C          25.793000   22.246000   14.099000 C.ar      1 <1>         0.334200 
     29 H          25.539000   21.199000   13.966000 H         1 <1>         0.150200 
     30 N          25.673000   23.117000   13.027000 N.ar      1 <1>        -0.574600 
     31 C          26.006000   24.333000   13.413000 C.ar      1 <1>         0.320800 
     32 S          26.461000   24.489000   15.063000 S.3       1 <1>         0.293100 
     33 C          25.997000   25.533000   12.531000 C.3       1 <1>        -0.276000 
     34 H          25.290000   26.282000   12.901000 H         1 <1>         0.101100 
     35 H          25.696000   25.258000   11.515000 H         1 <1>         0.117000 
     36 H          26.993000   25.984000   12.477000 H         1 <1>         0.109500 
@<TRIPOS>BOND
     1    1    2 ar   
     2    2    3 ar   
     3    3    4 1    
     4    3    5 ar   
     5    5    6 ar   
     6    6    1 ar   
     7    5    7 1    
     8    7    8 1    
     9    7    9 1    
    10    7   10 1    
    11    2   11 1    
    12   11   12 ar   
    13   12   13 1    
    14   12   14 ar   
    15   14   15 1    
    16   14   16 ar   
    17   16   17 ar   
    18   17   18 1    
    19   17   19 ar   
    20   19   20 1    
    21   19   11 ar   
    22   16   21 1    
    23   21   22 2    
    24   21   23 2    
    25   21   24 1    
    26   24   25 1    
    27   24   26 1    
    28    1   27 1    
    29   27   28 ar   
    30   28   29 1    
    31   28   30 ar   
    32   30   31 ar   
    33   31   32 ar   
    34   32   27 ar   
    35   31   33 1    
    36   33   34 1    
    37   33   35 1    
    38   33   36 1    
@<TRIPOS>SUBSTRUCTURE
     1 ****        1 TEMP              0 ****  ****    0 ROOT 
@<TRIPOS>SET
UNITY_3DHIT     STATIC     ATOMS    <user>   **** Atoms matching 3D or FLEX Search
0
