#	Name:			4-78
#	Creating user name:	jeff
#	Creation time:		Fri Dec 13 09:49:05 2002

#	Modifying user name:	jeff
#	Modification time:	Fri Dec 13 09:49:07 2002

@<TRIPOS>MOLECULE
4-78
   36    38     1     0     1
SMALL
USER_CHARGES
****
From 3DB ct
@<TRIPOS>ATOM
      1 C          26.424000   22.155000   16.523000 C.ar      1 <1>         0.530900 
      2 N          25.481000   21.418000   17.242000 N.pl3     1 <1>        -0.261300 
      3 C          26.203000   20.756000   18.221000 C.ar      1 <1>        -0.093400 
      4 H          25.738000   20.086000   18.931000 H         1 <1>         0.274000 
      5 C          27.507000   21.203000   18.151000 C.ar      1 <1>        -0.311900 
      6 N          27.621000   22.088000   17.093000 N.ar      1 <1>        -0.454000 
      7 C          28.668000   20.842000   19.032000 C.3       1 <1>         1.500900 
      8 F          28.348000   19.909000   19.975000 F         1 <1>        -0.474100 
      9 F          29.155000   21.922000   19.711000 F         1 <1>        -0.434900 
     10 F          29.715000   20.328000   18.324000 F         1 <1>        -0.434100 
     11 C          24.059000   21.350000   17.101000 C.ar      1 <1>         0.299700 
     12 C          23.366000   22.249000   16.277000 C.ar      1 <1>        -0.229000 
     13 H          23.871000   23.043000   15.732000 H         1 <1>         0.178600 
     14 C          21.972000   22.184000   16.168000 C.ar      1 <1>         0.080400 
     15 H          21.451000   22.891000   15.526000 H         1 <1>         0.189100 
     16 C          21.261000   21.228000   16.896000 C.ar      1 <1>        -0.610300 
     17 C          21.935000   20.332000   17.727000 C.ar      1 <1>         0.032600 
     18 H          21.391000   19.580000   18.294000 H         1 <1>         0.196000 
     19 C          23.329000   20.400000   17.835000 C.ar      1 <1>        -0.244600 
     20 H          23.818000   19.671000   18.479000 H         1 <1>         0.195300 
     21 S          19.500000   21.138000   16.728000 S.o2      1 <1>         2.462900 
     22 O          18.971000   22.463000   16.456000 O.2       1 <1>        -0.996600 
     23 O          18.962000   20.339000   17.815000 O.2       1 <1>        -0.991200 
     24 N          19.325000   20.248000   15.320000 N.pl3     1 <1>        -1.309100 
     25 H          18.855000   20.795000   14.594000 H         1 <1>         0.488500 
     26 H          18.837000   19.367000   15.499000 H         1 <1>         0.488500 
     27 C          26.213000   22.814000   15.260000 C.ar      1 <1>        -0.084100 
     28 S          26.509000   24.497000   15.067000 S.3       1 <1>         0.332900 
     29 C          26.062000   24.379000   13.418000 C.ar      1 <1>        -0.542300 
     30 H          26.064000   25.245000   12.770000 H         1 <1>         0.311800 
     31 C          25.733000   23.074000   13.106000 C.ar      1 <1>         0.362800 
     32 N          25.834000   22.183000   14.165000 N.ar      1 <1>        -0.433100 
     33 C          25.295000   22.562000   11.781000 C.3       1 <1>        -0.420800 
     34 H          25.911000   21.708000   11.483000 H         1 <1>         0.144800 
     35 H          25.380000   23.331000   11.007000 H         1 <1>         0.108900 
     36 H          24.251000   22.237000   11.830000 H         1 <1>         0.146300 
@<TRIPOS>BOND
     1    1    2 ar   
     2    2    3 ar   
     3    3    4 1    
     4    3    5 ar   
     5    5    6 ar   
     6    6    1 ar   
     7    5    7 1    
     8    7    8 1    
     9    7    9 1    
    10    7   10 1    
    11    2   11 1    
    12   11   12 ar   
    13   12   13 1    
    14   12   14 ar   
    15   14   15 1    
    16   14   16 ar   
    17   16   17 ar   
    18   17   18 1    
    19   17   19 ar   
    20   19   20 1    
    21   19   11 ar   
    22   16   21 1    
    23   21   22 2    
    24   21   23 2    
    25   21   24 1    
    26   24   25 1    
    27   24   26 1    
    28    1   27 1    
    29   27   28 ar   
    30   28   29 ar   
    31   29   30 1    
    32   29   31 ar   
    33   31   32 ar   
    34   32   27 ar   
    35   31   33 1    
    36   33   34 1    
    37   33   35 1    
    38   33   36 1    
@<TRIPOS>SUBSTRUCTURE
     1 ****        1 TEMP              0 ****  ****    0 ROOT 
@<TRIPOS>SET
UNITY_3DHIT     STATIC     ATOMS    <user>   **** Atoms matching 3D or FLEX Search
0
