#	Name:			4-79
#	Creating user name:	jeff
#	Creation time:		Fri Dec 13 09:49:07 2002

#	Modifying user name:	jeff
#	Modification time:	Fri Dec 13 09:49:09 2002

@<TRIPOS>MOLECULE
4-79
   37    39     1     0     1
SMALL
USER_CHARGES
****
From 3DB ct
@<TRIPOS>ATOM
      1 C          26.420000   22.154000   16.510000 C.ar      1 <1>         0.344500 
      2 N          25.486000   21.436000   17.255000 N.pl3     1 <1>         0.013000 
      3 C          26.213000   20.799000   18.244000 C.ar      1 <1>        -0.297600 
      4 H          25.754000   20.141000   18.969000 H         1 <1>         0.307400 
      5 C          27.512000   21.261000   18.162000 C.ar      1 <1>        -0.194600 
      6 N          27.616000   22.121000   17.081000 N.ar      1 <1>        -0.528000 
      7 C          28.676000   20.938000   19.054000 C.3       1 <1>         1.489200 
      8 F          28.365000   20.027000   20.022000 F         1 <1>        -0.472300 
      9 F          29.151000   22.040000   19.703000 F         1 <1>        -0.440000 
     10 F          29.729000   20.415000   18.361000 F         1 <1>        -0.436800 
     11 C          24.068000   21.363000   17.110000 C.ar      1 <1>         0.257700 
     12 C          23.381000   22.261000   16.280000 C.ar      1 <1>        -0.259300 
     13 H          23.889000   23.062000   15.748000 H         1 <1>         0.213000 
     14 C          21.988000   22.191000   16.160000 C.ar      1 <1>         0.017800 
     15 H          21.473000   22.898000   15.513000 H         1 <1>         0.192900 
     16 C          21.276000   21.233000   16.884000 C.ar      1 <1>        -0.516500 
     17 C          21.945000   20.339000   17.720000 C.ar      1 <1>        -0.011200 
     18 H          21.400000   19.584000   18.284000 H         1 <1>         0.195000 
     19 C          23.338000   20.412000   17.841000 C.ar      1 <1>        -0.260000 
     20 H          23.827000   19.688000   18.490000 H         1 <1>         0.196200 
     21 S          19.509000   21.131000   16.713000 S.o2      1 <1>         2.181000 
     22 O          18.999000   22.484000   16.508000 O.2       1 <1>        -0.966600 
     23 O          18.994000   20.359000   17.839000 O.2       1 <1>        -0.963900 
     24 C          19.282000   20.199000   15.222000 C.3       1 <1>        -0.724000 
     25 H          18.209000   20.093000   15.048000 H         1 <1>         0.240100 
     26 H          19.738000   19.215000   15.344000 H         1 <1>         0.192800 
     27 H          19.741000   20.739000   14.391000 H         1 <1>         0.192100 
     28 C          26.228000   22.798000   15.189000 C.ar      1 <1>         0.033300 
     29 N          25.758000   22.140000   14.072000 N.ar      1 <1>        -0.575200 
     30 C          25.696000   23.085000   13.153000 C.ar      1 <1>         0.588000 
     31 O          26.072000   24.326000   13.593000 O.3       1 <1>        -0.269600 
     32 C          26.398000   24.131000   14.903000 C.ar      1 <1>        -0.067000 
     33 H          26.709000   25.004000   15.460000 H         1 <1>         0.305400 
     34 C          25.277000   22.988000   11.740000 C.3       1 <1>        -0.410700 
     35 H          24.414000   23.632000   11.552000 H         1 <1>         0.143700 
     36 H          24.999000   21.959000   11.490000 H         1 <1>         0.145600 
     37 H          26.092000   23.293000   11.078000 H         1 <1>         0.145000 
@<TRIPOS>BOND
     1    1    2 ar   
     2    2    3 ar   
     3    3    4 1    
     4    3    5 ar   
     5    5    6 ar   
     6    6    1 ar   
     7    5    7 1    
     8    7    8 1    
     9    7    9 1    
    10    7   10 1    
    11    2   11 1    
    12   11   12 ar   
    13   12   13 1    
    14   12   14 ar   
    15   14   15 1    
    16   14   16 ar   
    17   16   17 ar   
    18   17   18 1    
    19   17   19 ar   
    20   19   20 1    
    21   19   11 ar   
    22   16   21 1    
    23   21   22 2    
    24   21   23 2    
    25   21   24 1    
    26   24   25 1    
    27   24   26 1    
    28   24   27 1    
    29    1   28 1    
    30   28   29 ar   
    31   29   30 ar   
    32   30   31 ar   
    33   31   32 ar   
    34   32   33 1    
    35   32   28 ar   
    36   30   34 1    
    37   34   35 1    
    38   34   36 1    
    39   34   37 1    
@<TRIPOS>SUBSTRUCTURE
     1 ****        1 TEMP              0 ****  ****    0 ROOT 
@<TRIPOS>SET
UNITY_3DHIT     STATIC     ATOMS    <user>   **** Atoms matching 3D or FLEX Search
0
