#	Name:			4-80
#	Creating user name:	jeff
#	Creation time:		Fri Dec 13 09:49:09 2002

#	Modifying user name:	jeff
#	Modification time:	Fri Dec 13 09:49:11 2002

@<TRIPOS>MOLECULE
4-80
   36    38     1     0     1
SMALL
USER_CHARGES
****
From 3DB ct
@<TRIPOS>ATOM
      1 C          26.396000   22.165000   16.500000 C.ar      1 <1>         0.349100 
      2 N          25.468000   21.431000   17.237000 N.pl3     1 <1>        -0.228600 
      3 C          26.203000   20.792000   18.221000 C.ar      1 <1>        -0.076500 
      4 H          25.751000   20.122000   18.939000 H         1 <1>         0.267100 
      5 C          27.497000   21.265000   18.143000 C.ar      1 <1>        -0.330400 
      6 N          27.593000   22.139000   17.073000 N.ar      1 <1>        -0.407100 
      7 C          28.666000   20.940000   19.028000 C.3       1 <1>         1.502000 
      8 F          28.360000   20.025000   19.994000 F         1 <1>        -0.472000 
      9 F          29.142000   22.040000   19.680000 F         1 <1>        -0.435200 
     10 F          29.716000   20.421000   18.329000 F         1 <1>        -0.437800 
     11 C          24.048000   21.351000   17.105000 C.ar      1 <1>         0.291700 
     12 C          23.347000   22.246000   16.284000 C.ar      1 <1>        -0.232900 
     13 H          23.846000   23.042000   15.738000 H         1 <1>         0.198200 
     14 C          21.953000   22.174000   16.185000 C.ar      1 <1>         0.063100 
     15 H          21.424000   22.878000   15.545000 H         1 <1>         0.195700 
     16 C          21.251000   21.215000   16.919000 C.ar      1 <1>        -0.595000 
     17 C          21.934000   20.324000   17.747000 C.ar      1 <1>         0.021200 
     18 H          21.398000   19.570000   18.319000 H         1 <1>         0.199400 
     19 C          23.328000   20.399000   17.847000 C.ar      1 <1>        -0.244100 
     20 H          23.827000   19.676000   18.489000 H         1 <1>         0.192500 
     21 S          19.489000   21.114000   16.762000 S.o2      1 <1>         2.473000 
     22 O          18.947000   22.441000   16.524000 O.2       1 <1>        -0.997200 
     23 O          18.965000   20.285000   17.833000 O.2       1 <1>        -0.997100 
     24 N          19.313000   20.254000   15.335000 N.pl3     1 <1>        -1.308100 
     25 H          18.831000   20.812000   14.626000 H         1 <1>         0.488000 
     26 H          18.834000   19.364000   15.498000 H         1 <1>         0.488200 
     27 C          26.200000   22.822000   15.180000 C.ar      1 <1>         0.324200 
     28 C          26.440000   24.188000   14.910000 C.ar      1 <1>        -0.632700 
     29 H          26.761000   24.958000   15.597000 H         1 <1>         0.306500 
     30 C          26.173000   24.324000   13.571000 C.ar      1 <1>         0.489000 
     31 O          25.813000   23.115000   13.062000 O.3       1 <1>        -0.166500 
     32 N          25.847000   22.162000   14.067000 N.ar      1 <1>        -0.305400 
     33 C          26.203000   25.455000   12.626000 C.3       1 <1>        -0.402000 
     34 H          25.216000   25.608000   12.180000 H         1 <1>         0.140400 
     35 H          26.920000   25.263000   11.822000 H         1 <1>         0.141400 
     36 H          26.496000   26.381000   13.131000 H         1 <1>         0.137900 
@<TRIPOS>BOND
     1    1    2 ar   
     2    2    3 ar   
     3    3    4 1    
     4    3    5 ar   
     5    5    6 ar   
     6    6    1 ar   
     7    5    7 1    
     8    7    8 1    
     9    7    9 1    
    10    7   10 1    
    11    2   11 1    
    12   11   12 ar   
    13   12   13 1    
    14   12   14 ar   
    15   14   15 1    
    16   14   16 ar   
    17   16   17 ar   
    18   17   18 1    
    19   17   19 ar   
    20   19   20 1    
    21   19   11 ar   
    22   16   21 1    
    23   21   22 2    
    24   21   23 2    
    25   21   24 1    
    26   24   25 1    
    27   24   26 1    
    28    1   27 1    
    29   27   28 ar   
    30   28   29 1    
    31   28   30 ar   
    32   30   31 ar   
    33   31   32 ar   
    34   32   27 ar   
    35   30   33 1    
    36   33   34 1    
    37   33   35 1    
    38   33   36 1    
@<TRIPOS>SUBSTRUCTURE
     1 ****        1 TEMP              0 ****  ****    0 ROOT 
@<TRIPOS>SET
UNITY_3DHIT     STATIC     ATOMS    <user>   **** Atoms matching 3D or FLEX Search
0
