#	Name:			5-1a
#	Creating user name:	jeff
#	Creation time:		Fri Dec 13 09:49:11 2002

#	Modifying user name:	jeff
#	Modification time:	Fri Dec 13 09:49:13 2002

@<TRIPOS>MOLECULE
5-1a
   39    41     1     0     1
SMALL
USER_CHARGES
****
From 3DB ct
@<TRIPOS>ATOM
      1 C          26.382000   22.070000   16.415000 C.2       1 <1>         0.061100 
      2 C          25.495000   21.496000   17.253000 C.2       1 <1>        -0.172600 
      3 C          26.178000   20.947000   18.475000 C.3       1 <1>        -0.051100 
      4 H          25.868000   19.930000   18.734000 H         1 <1>         0.045300 
      5 H          25.995000   21.601000   19.335000 H         1 <1>         0.074700 
      6 C          27.651000   20.963000   18.077000 C.3       1 <1>        -0.093300 
      7 H          27.934000   19.985000   17.666000 H         1 <1>         0.059900 
      8 H          28.308000   21.161000   18.929000 H         1 <1>         0.039200 
      9 C          27.770000   22.031000   16.996000 C.3       1 <1>        -0.130200 
     10 H          28.035000   23.000000   17.431000 H         1 <1>         0.092000 
     11 H          28.529000   21.750000   16.259000 H         1 <1>         0.063300 
     12 C          24.038000   21.384000   17.115000 C.ar      1 <1>         0.211800 
     13 C          23.330000   22.261000   16.279000 C.ar      1 <1>        -0.208600 
     14 H          23.855000   23.031000   15.716000 H         1 <1>         0.157600 
     15 C          21.940000   22.169000   16.157000 C.ar      1 <1>        -0.037600 
     16 H          21.415000   22.858000   15.499000 H         1 <1>         0.190200 
     17 C          21.247000   21.202000   16.887000 C.ar      1 <1>        -0.500100 
     18 C          21.934000   20.320000   17.723000 C.ar      1 <1>        -0.014600 
     19 H          21.404000   19.556000   18.288000 H         1 <1>         0.176100 
     20 C          23.324000   20.418000   17.839000 C.ar      1 <1>        -0.284300 
     21 H          23.844000   19.718000   18.491000 H         1 <1>         0.211500 
     22 S          19.482000   21.070000   16.719000 S.o2      1 <1>         2.176500 
     23 O          18.945000   22.415000   16.535000 O.2       1 <1>        -0.970400 
     24 O          18.984000   20.271000   17.835000 O.2       1 <1>        -0.970600 
     25 C          19.269000   20.156000   15.215000 C.3       1 <1>        -0.713600 
     26 H          18.198000   20.035000   15.041000 H         1 <1>         0.233400 
     27 H          19.740000   19.177000   15.324000 H         1 <1>         0.187000 
     28 H          19.719000   20.714000   14.393000 H         1 <1>         0.184800 
     29 C          26.155000   22.699000   15.108000 C.ar      1 <1>        -0.048900 
     30 C          26.419000   24.065000   14.921000 C.ar      1 <1>        -0.073700 
     31 H          26.770000   24.681000   15.747000 H         1 <1>         0.155800 
     32 C          26.222000   24.666000   13.675000 C.ar      1 <1>        -0.388000 
     33 H          26.421000   25.725000   13.537000 H         1 <1>         0.228100 
     34 C          25.768000   23.901000   12.609000 C.ar      1 <1>         0.574400 
     35 C          25.511000   22.545000   12.764000 C.ar      1 <1>        -0.408300 
     36 H          25.163000   21.958000   11.919000 H         1 <1>         0.231200 
     37 C          25.708000   21.945000   14.011000 C.ar      1 <1>        -0.072400 
     38 H          25.517000   20.878000   14.113000 H         1 <1>         0.152100 
     39 F          25.580000   24.477000   11.414000 F         1 <1>        -0.367700 
@<TRIPOS>BOND
     1    1    2 2    
     2    2    3 1    
     3    3    4 1    
     4    3    5 1    
     5    3    6 1    
     6    6    7 1    
     7    6    8 1    
     8    6    9 1    
     9    9   10 1    
    10    9   11 1    
    11    9    1 1    
    12    2   12 1    
    13   12   13 ar   
    14   13   14 1    
    15   13   15 ar   
    16   15   16 1    
    17   15   17 ar   
    18   17   18 ar   
    19   18   19 1    
    20   18   20 ar   
    21   20   21 1    
    22   20   12 ar   
    23   17   22 1    
    24   22   23 2    
    25   22   24 2    
    26   22   25 1    
    27   25   26 1    
    28   25   27 1    
    29   25   28 1    
    30    1   29 1    
    31   29   30 ar   
    32   30   31 1    
    33   30   32 ar   
    34   32   33 1    
    35   32   34 ar   
    36   34   35 ar   
    37   35   36 1    
    38   35   37 ar   
    39   37   38 1    
    40   37   29 ar   
    41   34   39 1    
@<TRIPOS>SUBSTRUCTURE
     1 ****        1 TEMP              0 ****  ****    0 ROOT 
@<TRIPOS>SET
UNITY_3DHIT     STATIC     ATOMS    <user>   **** Atoms matching 3D or FLEX Search
0
@<TRIPOS>UNITY_BOND_ATTR
1 1
S I
