#	Name:			5-1b
#	Creating user name:	jeff
#	Creation time:		Fri Dec 13 09:49:13 2002

#	Modifying user name:	jeff
#	Modification time:	Fri Dec 13 09:49:15 2002

@<TRIPOS>MOLECULE
5-1b
   43    45     1     0     1
SMALL
USER_CHARGES
****
From 3DB ct
@<TRIPOS>ATOM
      1 C          26.381000   22.071000   16.416000 C.2       1 <1>         0.149200 
      2 C          25.494000   21.497000   17.254000 C.2       1 <1>        -0.251400 
      3 C          26.179000   20.944000   18.475000 C.3       1 <1>        -0.037400 
      4 H          25.866000   19.928000   18.732000 H         1 <1>         0.043300 
      5 H          25.999000   21.597000   19.336000 H         1 <1>         0.070800 
      6 C          27.650000   20.957000   18.074000 C.3       1 <1>        -0.099600 
      7 H          27.930000   19.980000   17.660000 H         1 <1>         0.059700 
      8 H          28.310000   21.152000   18.925000 H         1 <1>         0.037300 
      9 C          27.770000   22.026000   16.994000 C.3       1 <1>        -0.136800 
     10 H          28.039000   22.995000   17.430000 H         1 <1>         0.092800 
     11 H          28.527000   21.744000   16.255000 H         1 <1>         0.063400 
     12 C          24.038000   21.386000   17.119000 C.ar      1 <1>         0.275200 
     13 C          23.330000   22.263000   16.282000 C.ar      1 <1>        -0.241100 
     14 H          23.856000   23.032000   15.718000 H         1 <1>         0.171200 
     15 C          21.940000   22.169000   16.159000 C.ar      1 <1>        -0.019300 
     16 H          21.415000   22.857000   15.500000 H         1 <1>         0.187000 
     17 C          21.248000   21.201000   16.888000 C.ar      1 <1>        -0.517600 
     18 C          21.934000   20.320000   17.726000 C.ar      1 <1>        -0.007500 
     19 H          21.405000   19.557000   18.292000 H         1 <1>         0.170600 
     20 C          23.325000   20.420000   17.843000 C.ar      1 <1>        -0.300300 
     21 H          23.845000   19.720000   18.495000 H         1 <1>         0.212200 
     22 S          19.483000   21.069000   16.713000 S.o2      1 <1>         2.189000 
     23 O          18.947000   22.411000   16.509000 O.2       1 <1>        -0.976400 
     24 O          18.982000   20.285000   17.838000 O.2       1 <1>        -0.976600 
     25 C          19.277000   20.137000   15.220000 C.3       1 <1>        -0.715700 
     26 H          18.206000   20.020000   15.039000 H         1 <1>         0.231600 
     27 H          19.743000   19.157000   15.344000 H         1 <1>         0.188800 
     28 H          19.736000   20.684000   14.393000 H         1 <1>         0.185100 
     29 C          26.153000   22.701000   15.109000 C.ar      1 <1>        -0.191200 
     30 C          26.416000   24.063000   14.920000 C.ar      1 <1>        -0.068900 
     31 H          26.765000   24.682000   15.744000 H         1 <1>         0.148300 
     32 C          26.220000   24.661000   13.671000 C.ar      1 <1>        -0.350700 
     33 H          26.425000   25.723000   13.551000 H         1 <1>         0.174200 
     34 C          25.765000   23.910000   12.584000 C.ar      1 <1>         0.503000 
     35 C          25.514000   22.551000   12.759000 C.ar      1 <1>        -0.469800 
     36 H          25.167000   21.919000   11.945000 H         1 <1>         0.221600 
     37 C          25.710000   21.953000   14.011000 C.ar      1 <1>         0.054700 
     38 H          25.521000   20.885000   14.111000 H         1 <1>         0.118500 
     39 O          25.616000   24.614000   11.422000 O.3       1 <1>        -0.448400 
     40 C          25.932000   26.005000   11.469000 C.3       1 <1>         0.118800 
     41 H          25.771000   26.416000   10.467000 H         1 <1>         0.078100 
     42 H          26.984000   26.160000   11.729000 H         1 <1>         0.033100 
     43 H          25.268000   26.535000   12.159000 H         1 <1>         0.031300 
@<TRIPOS>BOND
     1    1    2 2    
     2    2    3 1    
     3    3    4 1    
     4    3    5 1    
     5    3    6 1    
     6    6    7 1    
     7    6    8 1    
     8    6    9 1    
     9    9   10 1    
    10    9   11 1    
    11    9    1 1    
    12    2   12 1    
    13   12   13 ar   
    14   13   14 1    
    15   13   15 ar   
    16   15   16 1    
    17   15   17 ar   
    18   17   18 ar   
    19   18   19 1    
    20   18   20 ar   
    21   20   21 1    
    22   20   12 ar   
    23   17   22 1    
    24   22   23 2    
    25   22   24 2    
    26   22   25 1    
    27   25   26 1    
    28   25   27 1    
    29   25   28 1    
    30    1   29 1    
    31   29   30 ar   
    32   30   31 1    
    33   30   32 ar   
    34   32   33 1    
    35   32   34 ar   
    36   34   35 ar   
    37   35   36 1    
    38   35   37 ar   
    39   37   38 1    
    40   37   29 ar   
    41   34   39 1    
    42   39   40 1    
    43   40   41 1    
    44   40   42 1    
    45   40   43 1    
@<TRIPOS>SUBSTRUCTURE
     1 ****        1 TEMP              0 ****  ****    0 ROOT 
@<TRIPOS>SET
UNITY_3DHIT     STATIC     ATOMS    <user>   **** Atoms matching 3D or FLEX Search
0
@<TRIPOS>UNITY_BOND_ATTR
1 1
S I
