#	Name:			5-1d
#	Creating user name:	jeff
#	Creation time:		Fri Dec 13 09:49:18 2002

#	Modifying user name:	jeff
#	Modification time:	Fri Dec 13 09:49:20 2002

@<TRIPOS>MOLECULE
5-1d
   42    44     1     0     1
SMALL
USER_CHARGES
****
From 3DB ct
@<TRIPOS>ATOM
      1 C          26.381000   22.071000   16.415000 C.2       1 <1>         0.055500 
      2 C          25.492000   21.497000   17.252000 C.2       1 <1>        -0.170500 
      3 C          26.176000   20.946000   18.474000 C.3       1 <1>        -0.051300 
      4 H          25.865000   19.930000   18.732000 H         1 <1>         0.041300 
      5 H          25.993000   21.600000   19.335000 H         1 <1>         0.072000 
      6 C          27.648000   20.962000   18.076000 C.3       1 <1>        -0.084800 
      7 H          27.931000   19.984000   17.664000 H         1 <1>         0.057000 
      8 H          28.306000   21.158000   18.929000 H         1 <1>         0.035300 
      9 C          27.768000   22.030000   16.996000 C.3       1 <1>        -0.139300 
     10 H          28.034000   22.999000   17.432000 H         1 <1>         0.095200 
     11 H          28.527000   21.749000   16.259000 H         1 <1>         0.065000 
     12 C          24.035000   21.384000   17.115000 C.ar      1 <1>         0.211200 
     13 C          23.326000   22.260000   16.280000 C.ar      1 <1>        -0.207800 
     14 H          23.850000   23.030000   15.715000 H         1 <1>         0.160500 
     15 C          21.935000   22.168000   16.160000 C.ar      1 <1>        -0.037700 
     16 H          21.409000   22.855000   15.502000 H         1 <1>         0.188600 
     17 C          21.244000   21.200000   16.891000 C.ar      1 <1>        -0.497500 
     18 C          21.933000   20.318000   17.726000 C.ar      1 <1>        -0.024400 
     19 H          21.404000   19.555000   18.293000 H         1 <1>         0.175900 
     20 C          23.323000   20.418000   17.840000 C.ar      1 <1>        -0.279600 
     21 H          23.844000   19.718000   18.491000 H         1 <1>         0.210200 
     22 S          19.479000   21.067000   16.725000 S.o2      1 <1>         2.178400 
     23 O          18.939000   22.412000   16.550000 O.2       1 <1>        -0.973200 
     24 O          18.984000   20.260000   17.837000 O.2       1 <1>        -0.972500 
     25 C          19.265000   20.162000   15.215000 C.3       1 <1>        -0.719600 
     26 H          18.194000   20.041000   15.041000 H         1 <1>         0.232900 
     27 H          19.737000   19.183000   15.317000 H         1 <1>         0.189100 
     28 H          19.713000   20.727000   14.396000 H         1 <1>         0.186100 
     29 C          26.157000   22.700000   15.106000 C.ar      1 <1>         0.008500 
     30 C          26.419000   24.064000   14.919000 C.ar      1 <1>        -0.159300 
     31 H          26.759000   24.682000   15.748000 H         1 <1>         0.152300 
     32 C          26.230000   24.666000   13.671000 C.ar      1 <1>        -0.260400 
     33 H          26.428000   25.732000   13.561000 H         1 <1>         0.186400 
     34 C          25.794000   23.912000   12.578000 C.ar      1 <1>         0.216200 
     35 C          25.529000   22.551000   12.758000 C.ar      1 <1>        -0.305700 
     36 H          25.177000   21.943000   11.926000 H         1 <1>         0.194700 
     37 C          25.718000   21.951000   14.007000 C.ar      1 <1>        -0.128800 
     38 H          25.522000   20.884000   14.108000 H         1 <1>         0.141600 
     39 C          25.558000   24.564000   11.247000 C.3       1 <1>        -0.318800 
     40 H          25.727000   23.856000   10.429000 H         1 <1>         0.090600 
     41 H          26.246000   25.404000   11.097000 H         1 <1>         0.089100 
     42 H          24.530000   24.934000   11.189000 H         1 <1>         0.097500 
@<TRIPOS>BOND
     1    1    2 2    
     2    2    3 1    
     3    3    4 1    
     4    3    5 1    
     5    3    6 1    
     6    6    7 1    
     7    6    8 1    
     8    6    9 1    
     9    9   10 1    
    10    9   11 1    
    11    9    1 1    
    12    2   12 1    
    13   12   13 ar   
    14   13   14 1    
    15   13   15 ar   
    16   15   16 1    
    17   15   17 ar   
    18   17   18 ar   
    19   18   19 1    
    20   18   20 ar   
    21   20   21 1    
    22   20   12 ar   
    23   17   22 1    
    24   22   23 2    
    25   22   24 2    
    26   22   25 1    
    27   25   26 1    
    28   25   27 1    
    29   25   28 1    
    30    1   29 1    
    31   29   30 ar   
    32   30   31 1    
    33   30   32 ar   
    34   32   33 1    
    35   32   34 ar   
    36   34   35 ar   
    37   35   36 1    
    38   35   37 ar   
    39   37   38 1    
    40   37   29 ar   
    41   34   39 1    
    42   39   40 1    
    43   39   41 1    
    44   39   42 1    
@<TRIPOS>SUBSTRUCTURE
     1 ****        1 TEMP              0 ****  ****    0 ROOT 
@<TRIPOS>SET
UNITY_3DHIT     STATIC     ATOMS    <user>   **** Atoms matching 3D or FLEX Search
0
@<TRIPOS>UNITY_BOND_ATTR
1 1
S I
