#	Name:			5-1f
#	Creating user name:	jeff
#	Creation time:		Fri Dec 13 09:49:22 2002

#	Modifying user name:	jeff
#	Modification time:	Fri Dec 13 09:49:24 2002

@<TRIPOS>MOLECULE
5-1f
   42    44     1     0     1
SMALL
USER_CHARGES
****
From 3DB ct
@<TRIPOS>ATOM
      1 C          26.381000   22.071000   16.416000 C.2       1 <1>        -0.087500 
      2 C          25.493000   21.496000   17.251000 C.2       1 <1>        -0.066000 
      3 C          26.177000   20.946000   18.474000 C.3       1 <1>        -0.067200 
      4 H          25.867000   19.929000   18.731000 H         1 <1>         0.046400 
      5 H          25.993000   21.599000   19.335000 H         1 <1>         0.078600 
      6 C          27.649000   20.963000   18.077000 C.3       1 <1>        -0.074600 
      7 H          27.933000   19.986000   17.664000 H         1 <1>         0.059800 
      8 H          28.307000   21.160000   18.930000 H         1 <1>         0.036300 
      9 C          27.769000   22.032000   16.997000 C.3       1 <1>        -0.133300 
     10 H          28.033000   23.002000   17.434000 H         1 <1>         0.101700 
     11 H          28.529000   21.753000   16.261000 H         1 <1>         0.064100 
     12 C          24.036000   21.383000   17.113000 C.ar      1 <1>         0.141800 
     13 C          23.327000   22.259000   16.278000 C.ar      1 <1>        -0.187500 
     14 H          23.852000   23.030000   15.715000 H         1 <1>         0.149400 
     15 C          21.937000   22.168000   16.158000 C.ar      1 <1>        -0.047600 
     16 H          21.411000   22.856000   15.500000 H         1 <1>         0.193300 
     17 C          21.245000   21.200000   16.889000 C.ar      1 <1>        -0.484100 
     18 C          21.933000   20.318000   17.723000 C.ar      1 <1>        -0.022300 
     19 H          21.404000   19.554000   18.289000 H         1 <1>         0.178400 
     20 C          23.323000   20.416000   17.837000 C.ar      1 <1>        -0.255000 
     21 H          23.844000   19.715000   18.488000 H         1 <1>         0.205500 
     22 S          19.479000   21.070000   16.726000 S.o2      1 <1>         2.169100 
     23 O          18.942000   22.416000   16.547000 O.2       1 <1>        -0.966400 
     24 O          18.984000   20.268000   17.840000 O.2       1 <1>        -0.967600 
     25 C          19.262000   20.161000   15.219000 C.3       1 <1>        -0.717800 
     26 H          18.190000   20.040000   15.048000 H         1 <1>         0.237500 
     27 H          19.734000   19.182000   15.323000 H         1 <1>         0.188500 
     28 H          19.708000   20.723000   14.397000 H         1 <1>         0.187300 
     29 C          26.157000   22.700000   15.107000 C.ar      1 <1>         0.257000 
     30 C          26.419000   24.063000   14.920000 C.ar      1 <1>        -0.269900 
     31 H          26.763000   24.681000   15.748000 H         1 <1>         0.170200 
     32 C          26.227000   24.665000   13.671000 C.ar      1 <1>         0.042700 
     33 H          26.428000   25.731000   13.561000 H         1 <1>         0.156400 
     34 C          25.782000   23.913000   12.575000 C.ar      1 <1>        -0.504100 
     35 C          25.522000   22.549000   12.760000 C.ar      1 <1>         0.001000 
     36 H          25.171000   21.939000   11.929000 H         1 <1>         0.164800 
     37 C          25.715000   21.949000   14.010000 C.ar      1 <1>        -0.257200 
     38 H          25.521000   20.882000   14.112000 H         1 <1>         0.165000 
     39 C          25.553000   24.567000   11.236000 C.3       1 <1>         1.503600 
     40 F          25.721000   23.720000   10.176000 F         1 <1>        -0.462600 
     41 F          26.393000   25.619000   10.990000 F         1 <1>        -0.462800 
     42 F          24.289000   25.072000   11.104000 F         1 <1>        -0.464800 
@<TRIPOS>BOND
     1    1    2 2    
     2    2    3 1    
     3    3    4 1    
     4    3    5 1    
     5    3    6 1    
     6    6    7 1    
     7    6    8 1    
     8    6    9 1    
     9    9   10 1    
    10    9   11 1    
    11    9    1 1    
    12    2   12 1    
    13   12   13 ar   
    14   13   14 1    
    15   13   15 ar   
    16   15   16 1    
    17   15   17 ar   
    18   17   18 ar   
    19   18   19 1    
    20   18   20 ar   
    21   20   21 1    
    22   20   12 ar   
    23   17   22 1    
    24   22   23 2    
    25   22   24 2    
    26   22   25 1    
    27   25   26 1    
    28   25   27 1    
    29   25   28 1    
    30    1   29 1    
    31   29   30 ar   
    32   30   31 1    
    33   30   32 ar   
    34   32   33 1    
    35   32   34 ar   
    36   34   35 ar   
    37   35   36 1    
    38   35   37 ar   
    39   37   38 1    
    40   37   29 ar   
    41   34   39 1    
    42   39   40 1    
    43   39   41 1    
    44   39   42 1    
@<TRIPOS>SUBSTRUCTURE
     1 ****        1 TEMP              0 ****  ****    0 ROOT 
@<TRIPOS>SET
UNITY_3DHIT     STATIC     ATOMS    <user>   **** Atoms matching 3D or FLEX Search
0
@<TRIPOS>UNITY_BOND_ATTR
1 1
S I
