#	Name:			5-1g
#	Creating user name:	jeff
#	Creation time:		Fri Dec 13 09:49:24 2002

#	Modifying user name:	jeff
#	Modification time:	Fri Dec 13 09:49:27 2002

@<TRIPOS>MOLECULE
5-1g
   39    41     1     0     1
SMALL
USER_CHARGES
****
From 3DB ct
@<TRIPOS>ATOM
      1 C          26.398000   22.092000   16.447000 C.2       1 <1>        -0.322100 
      2 C          25.512000   21.510000   17.276000 C.2       1 <1>        -0.044800 
      3 C          26.207000   20.905000   18.464000 C.3       1 <1>        -0.030600 
      4 H          25.870000   19.894000   18.706000 H         1 <1>         0.032600 
      5 H          26.069000   21.542000   19.345000 H         1 <1>         0.071100 
      6 C          27.669000   20.884000   18.024000 C.3       1 <1>        -0.051400 
      7 H          27.907000   19.910000   17.577000 H         1 <1>         0.045400 
      8 H          28.356000   21.033000   18.864000 H         1 <1>         0.028400 
      9 C          27.800000   21.979000   16.970000 C.3       1 <1>        -0.042600 
     10 H          28.130000   22.918000   17.427000 H         1 <1>         0.069700 
     11 H          28.519000   21.689000   16.197000 H         1 <1>         0.028000 
     12 C          24.057000   21.405000   17.120000 C.ar      1 <1>         0.080400 
     13 C          23.361000   22.281000   16.273000 C.ar      1 <1>        -0.114400 
     14 H          23.892000   23.056000   15.723000 H         1 <1>         0.118900 
     15 C          21.973000   22.188000   16.130000 C.ar      1 <1>        -0.071100 
     16 H          21.457000   22.878000   15.466000 H         1 <1>         0.197100 
     17 C          21.269000   21.220000   16.848000 C.ar      1 <1>        -0.473700 
     18 C          21.944000   20.337000   17.693000 C.ar      1 <1>        -0.030400 
     19 H          21.406000   19.573000   18.250000 H         1 <1>         0.175500 
     20 C          23.332000   20.436000   17.830000 C.ar      1 <1>        -0.238700 
     21 H          23.842000   19.734000   18.488000 H         1 <1>         0.203700 
     22 S          19.507000   21.089000   16.654000 S.o2      1 <1>         2.164800 
     23 O          18.982000   22.424000   16.384000 O.2       1 <1>        -0.966100 
     24 O          18.983000   20.359000   17.805000 O.2       1 <1>        -0.966000 
     25 C          19.316000   20.092000   15.201000 C.3       1 <1>        -0.730500 
     26 H          18.248000   19.965000   15.015000 H         1 <1>         0.243700 
     27 H          19.781000   19.119000   15.373000 H         1 <1>         0.190400 
     28 H          19.782000   20.602000   14.356000 H         1 <1>         0.185000 
     29 C          26.143000   22.729000   15.150000 C.ar      1 <1>         1.048500 
     30 C          26.361000   24.096000   14.899000 C.ar      1 <1>        -1.113500 
     31 C          26.106000   24.638000   13.636000 C.ar      1 <1>         0.826900 
     32 H          26.273000   25.696000   13.451000 H         1 <1>        -0.031100 
     33 C          25.629000   23.820000   12.616000 C.ar      1 <1>        -0.910300 
     34 C          25.402000   22.466000   12.844000 C.ar      1 <1>         0.452800 
     35 H          25.027000   21.823000   12.050000 H         1 <1>         0.068900 
     36 C          25.657000   21.924000   14.106000 C.ar      1 <1>        -0.696900 
     37 H          25.477000   20.862000   14.268000 H         1 <1>         0.236500 
     38 Cl         25.314000   24.488000   11.060000 Cl        1 <1>         0.162800 
     39 Cl         26.912000   25.180000   16.131000 Cl        1 <1>         0.203100 
@<TRIPOS>BOND
     1    1    2 2    
     2    2    3 1    
     3    3    4 1    
     4    3    5 1    
     5    3    6 1    
     6    6    7 1    
     7    6    8 1    
     8    6    9 1    
     9    9   10 1    
    10    9   11 1    
    11    9    1 1    
    12    2   12 1    
    13   12   13 ar   
    14   13   14 1    
    15   13   15 ar   
    16   15   16 1    
    17   15   17 ar   
    18   17   18 ar   
    19   18   19 1    
    20   18   20 ar   
    21   20   21 1    
    22   20   12 ar   
    23   17   22 1    
    24   22   23 2    
    25   22   24 2    
    26   22   25 1    
    27   25   26 1    
    28   25   27 1    
    29   25   28 1    
    30    1   29 1    
    31   29   30 ar   
    32   30   31 ar   
    33   31   32 1    
    34   31   33 ar   
    35   33   34 ar   
    36   34   35 1    
    37   34   36 ar   
    38   36   37 1    
    39   36   29 ar   
    40   33   38 1    
    41   30   39 1    
@<TRIPOS>SUBSTRUCTURE
     1 ****        1 TEMP              0 ****  ****    0 ROOT 
@<TRIPOS>SET
UNITY_3DHIT     STATIC     ATOMS    <user>   **** Atoms matching 3D or FLEX Search
0
@<TRIPOS>UNITY_BOND_ATTR
1 1
S I
