#	Name:			5-1h
#	Creating user name:	jeff
#	Creation time:		Fri Dec 13 09:49:27 2002

#	Modifying user name:	jeff
#	Modification time:	Fri Dec 13 09:49:29 2002

@<TRIPOS>MOLECULE
5-1h
   40    42     1     0     1
SMALL
USER_CHARGES
****
From 3DB ct
@<TRIPOS>ATOM
      1 C          26.381000   22.072000   16.416000 C.2       1 <1>        -0.034100 
      2 C          25.494000   21.496000   17.251000 C.2       1 <1>        -0.091400 
      3 C          26.176000   20.947000   18.475000 C.3       1 <1>        -0.071900 
      4 H          25.866000   19.930000   18.732000 H         1 <1>         0.046200 
      5 H          25.990000   21.600000   19.335000 H         1 <1>         0.077400 
      6 C          27.649000   20.965000   18.080000 C.3       1 <1>        -0.074000 
      7 H          27.935000   19.988000   17.670000 H         1 <1>         0.057300 
      8 H          28.304000   21.165000   18.933000 H         1 <1>         0.037200 
      9 C          27.768000   22.032000   16.998000 C.3       1 <1>        -0.143600 
     10 H          28.034000   23.002000   17.433000 H         1 <1>         0.100200 
     11 H          28.529000   21.751000   16.262000 H         1 <1>         0.068300 
     12 C          24.037000   21.382000   17.113000 C.ar      1 <1>         0.180100 
     13 C          23.327000   22.259000   16.277000 C.ar      1 <1>        -0.212100 
     14 H          23.852000   23.029000   15.714000 H         1 <1>         0.156900 
     15 C          21.937000   22.167000   16.157000 C.ar      1 <1>        -0.032500 
     16 H          21.410000   22.856000   15.501000 H         1 <1>         0.193200 
     17 C          21.245000   21.200000   16.889000 C.ar      1 <1>        -0.498100 
     18 C          21.933000   20.317000   17.722000 C.ar      1 <1>        -0.016100 
     19 H          21.405000   19.553000   18.289000 H         1 <1>         0.174100 
     20 C          23.324000   20.415000   17.836000 C.ar      1 <1>        -0.280500 
     21 H          23.844000   19.714000   18.487000 H         1 <1>         0.210600 
     22 S          19.479000   21.071000   16.727000 S.o2      1 <1>         2.181900 
     23 O          18.944000   22.417000   16.545000 O.2       1 <1>        -0.972100 
     24 O          18.984000   20.274000   17.845000 O.2       1 <1>        -0.971500 
     25 C          19.259000   20.157000   15.223000 C.3       1 <1>        -0.715500 
     26 H          18.187000   20.038000   15.053000 H         1 <1>         0.234200 
     27 H          19.729000   19.178000   15.330000 H         1 <1>         0.189000 
     28 H          19.707000   20.716000   14.399000 H         1 <1>         0.184400 
     29 C          26.157000   22.700000   15.107000 C.ar      1 <1>         0.134000 
     30 C          26.421000   24.064000   14.920000 C.ar      1 <1>        -0.216300 
     31 H          26.768000   24.681000   15.747000 H         1 <1>         0.169200 
     32 C          26.227000   24.667000   13.671000 C.ar      1 <1>        -0.155100 
     33 H          26.433000   25.730000   13.557000 H         1 <1>         0.187800 
     34 C          25.775000   23.910000   12.587000 C.ar      1 <1>         0.134100 
     35 C          25.521000   22.547000   12.760000 C.ar      1 <1>        -0.195000 
     36 H          25.175000   21.938000   11.927000 H         1 <1>         0.195000 
     37 C          25.715000   21.948000   14.010000 C.ar      1 <1>        -0.182100 
     38 H          25.524000   20.881000   14.111000 H         1 <1>         0.155200 
     39 C          25.576000   24.527000   11.307000 C.1       1 <1>         0.061600 
     40 N          25.414000   25.027000   10.268000 N.1       1 <1>        -0.266200 
@<TRIPOS>BOND
     1    1    2 2    
     2    2    3 1    
     3    3    4 1    
     4    3    5 1    
     5    3    6 1    
     6    6    7 1    
     7    6    8 1    
     8    6    9 1    
     9    9   10 1    
    10    9   11 1    
    11    9    1 1    
    12    2   12 1    
    13   12   13 ar   
    14   13   14 1    
    15   13   15 ar   
    16   15   16 1    
    17   15   17 ar   
    18   17   18 ar   
    19   18   19 1    
    20   18   20 ar   
    21   20   21 1    
    22   20   12 ar   
    23   17   22 1    
    24   22   23 2    
    25   22   24 2    
    26   22   25 1    
    27   25   26 1    
    28   25   27 1    
    29   25   28 1    
    30    1   29 1    
    31   29   30 ar   
    32   30   31 1    
    33   30   32 ar   
    34   32   33 1    
    35   32   34 ar   
    36   34   35 ar   
    37   35   36 1    
    38   35   37 ar   
    39   37   38 1    
    40   37   29 ar   
    41   34   39 1    
    42   39   40 3    
@<TRIPOS>SUBSTRUCTURE
     1 ****        1 TEMP              0 ****  ****    0 ROOT 
@<TRIPOS>SET
UNITY_3DHIT     STATIC     ATOMS    <user>   **** Atoms matching 3D or FLEX Search
0
@<TRIPOS>UNITY_BOND_ATTR
1 1
S I
