#	Name:			5-1i
#	Creating user name:	jeff
#	Creation time:		Fri Dec 13 09:49:29 2002

#	Modifying user name:	jeff
#	Modification time:	Fri Dec 13 09:49:31 2002

@<TRIPOS>MOLECULE
5-1i
   43    45     1     0     1
SMALL
USER_CHARGES
****
From 3DB ct
@<TRIPOS>ATOM
      1 C          26.380000   22.071000   16.415000 C.2       1 <1>         0.043700 
      2 C          25.492000   21.497000   17.251000 C.2       1 <1>        -0.170700 
      3 C          26.174000   20.947000   18.474000 C.3       1 <1>        -0.034300 
      4 H          25.862000   19.931000   18.733000 H         1 <1>         0.039900 
      5 H          25.991000   21.601000   19.334000 H         1 <1>         0.070900 
      6 C          27.646000   20.961000   18.077000 C.3       1 <1>        -0.131600 
      7 H          27.929000   19.983000   17.665000 H         1 <1>         0.067400 
      8 H          28.304000   21.158000   18.930000 H         1 <1>         0.045600 
      9 C          27.767000   22.030000   16.997000 C.3       1 <1>        -0.106800 
     10 H          28.033000   22.999000   17.433000 H         1 <1>         0.091700 
     11 H          28.527000   21.749000   16.260000 H         1 <1>         0.064000 
     12 C          24.035000   21.383000   17.115000 C.ar      1 <1>         0.216300 
     13 C          23.325000   22.259000   16.279000 C.ar      1 <1>        -0.210600 
     14 H          23.849000   23.028000   15.714000 H         1 <1>         0.158500 
     15 C          21.935000   22.167000   16.160000 C.ar      1 <1>        -0.047400 
     16 H          21.408000   22.855000   15.503000 H         1 <1>         0.191200 
     17 C          21.243000   21.199000   16.892000 C.ar      1 <1>        -0.488200 
     18 C          21.932000   20.317000   17.726000 C.ar      1 <1>        -0.018500 
     19 H          21.404000   19.553000   18.293000 H         1 <1>         0.174600 
     20 C          23.323000   20.417000   17.840000 C.ar      1 <1>        -0.288800 
     21 H          23.844000   19.717000   18.491000 H         1 <1>         0.212400 
     22 S          19.478000   21.066000   16.729000 S.o2      1 <1>         2.165900 
     23 O          18.939000   22.412000   16.555000 O.2       1 <1>        -0.969000 
     24 O          18.985000   20.259000   17.840000 O.2       1 <1>        -0.969400 
     25 C          19.262000   20.162000   15.219000 C.3       1 <1>        -0.720100 
     26 H          18.190000   20.040000   15.047000 H         1 <1>         0.234700 
     27 H          19.735000   19.183000   15.319000 H         1 <1>         0.190400 
     28 H          19.708000   20.727000   14.399000 H         1 <1>         0.183700 
     29 C          26.156000   22.701000   15.106000 C.ar      1 <1>         0.009300 
     30 C          26.422000   24.064000   14.918000 C.ar      1 <1>        -0.173000 
     31 H          26.770000   24.681000   15.746000 H         1 <1>         0.146100 
     32 C          26.234000   24.667000   13.670000 C.ar      1 <1>        -0.138900 
     33 H          26.448000   25.729000   13.556000 H         1 <1>         0.178200 
     34 C          25.778000   23.919000   12.578000 C.ar      1 <1>         0.042900 
     35 C          25.533000   22.552000   12.755000 C.ar      1 <1>        -0.296500 
     36 H          25.198000   21.941000   11.918000 H         1 <1>         0.184700 
     37 C          25.721000   21.951000   14.005000 C.ar      1 <1>        -0.097700 
     38 H          25.534000   20.883000   14.103000 H         1 <1>         0.133400 
     39 C          25.591000   24.564000   11.232000 C.3       1 <1>         0.286100 
     40 H          25.293000   25.612000   11.340000 H         1 <1>        -0.016900 
     41 H          24.817000   24.046000   10.654000 H         1 <1>        -0.000500 
     42 O          26.824000   24.500000   10.521000 O.3       1 <1>        -0.663600 
     43 H          26.642000   24.933000    9.660000 H         1 <1>         0.411100 
@<TRIPOS>BOND
     1    1    2 2    
     2    2    3 1    
     3    3    4 1    
     4    3    5 1    
     5    3    6 1    
     6    6    7 1    
     7    6    8 1    
     8    6    9 1    
     9    9   10 1    
    10    9   11 1    
    11    9    1 1    
    12    2   12 1    
    13   12   13 ar   
    14   13   14 1    
    15   13   15 ar   
    16   15   16 1    
    17   15   17 ar   
    18   17   18 ar   
    19   18   19 1    
    20   18   20 ar   
    21   20   21 1    
    22   20   12 ar   
    23   17   22 1    
    24   22   23 2    
    25   22   24 2    
    26   22   25 1    
    27   25   26 1    
    28   25   27 1    
    29   25   28 1    
    30    1   29 1    
    31   29   30 ar   
    32   30   31 1    
    33   30   32 ar   
    34   32   33 1    
    35   32   34 ar   
    36   34   35 ar   
    37   35   36 1    
    38   35   37 ar   
    39   37   38 1    
    40   37   29 ar   
    41   34   39 1    
    42   39   40 1    
    43   39   41 1    
    44   39   42 1    
    45   42   43 1    
@<TRIPOS>SUBSTRUCTURE
     1 ****        1 TEMP              0 ****  ****    0 ROOT 
@<TRIPOS>SET
UNITY_3DHIT     STATIC     ATOMS    <user>   **** Atoms matching 3D or FLEX Search
0
@<TRIPOS>UNITY_BOND_ATTR
1 1
S I
