#	Name:			5-1j
#	Creating user name:	jeff
#	Creation time:		Fri Dec 13 09:49:31 2002

#	Modifying user name:	jeff
#	Modification time:	Fri Dec 13 09:49:34 2002

@<TRIPOS>MOLECULE
5-1j
   46    48     1     0     1
SMALL
USER_CHARGES
****
From 3DB ct
@<TRIPOS>ATOM
      1 C          26.380000   22.071000   16.415000 C.2       1 <1>         0.012100 
      2 C          25.492000   21.496000   17.251000 C.2       1 <1>        -0.158400 
      3 C          26.175000   20.947000   18.474000 C.3       1 <1>        -0.041500 
      4 H          25.864000   19.930000   18.732000 H         1 <1>         0.039100 
      5 H          25.992000   21.601000   19.334000 H         1 <1>         0.070500 
      6 C          27.647000   20.962000   18.077000 C.3       1 <1>        -0.103300 
      7 H          27.930000   19.984000   17.665000 H         1 <1>         0.061500 
      8 H          28.305000   21.158000   18.930000 H         1 <1>         0.037700 
      9 C          27.767000   22.031000   16.997000 C.3       1 <1>        -0.109400 
     10 H          28.032000   23.000000   17.434000 H         1 <1>         0.091500 
     11 H          28.528000   21.751000   16.261000 H         1 <1>         0.059100 
     12 C          24.035000   21.383000   17.114000 C.ar      1 <1>         0.208100 
     13 C          23.325000   22.259000   16.279000 C.ar      1 <1>        -0.218300 
     14 H          23.849000   23.029000   15.714000 H         1 <1>         0.162600 
     15 C          21.934000   22.167000   16.160000 C.ar      1 <1>        -0.039500 
     16 H          21.408000   22.855000   15.502000 H         1 <1>         0.189400 
     17 C          21.243000   21.200000   16.891000 C.ar      1 <1>        -0.491900 
     18 C          21.932000   20.317000   17.726000 C.ar      1 <1>        -0.026100 
     19 H          21.404000   19.554000   18.293000 H         1 <1>         0.175900 
     20 C          23.323000   20.417000   17.839000 C.ar      1 <1>        -0.274600 
     21 H          23.844000   19.716000   18.490000 H         1 <1>         0.209300 
     22 S          19.477000   21.067000   16.728000 S.o2      1 <1>         2.173700 
     23 O          18.939000   22.412000   16.554000 O.2       1 <1>        -0.972200 
     24 O          18.984000   20.261000   17.841000 O.2       1 <1>        -0.972000 
     25 C          19.261000   20.161000   15.219000 C.3       1 <1>        -0.710400 
     26 H          18.190000   20.038000   15.048000 H         1 <1>         0.231300 
     27 H          19.735000   19.183000   15.320000 H         1 <1>         0.187500 
     28 H          19.707000   20.726000   14.398000 H         1 <1>         0.180300 
     29 C          26.157000   22.701000   15.106000 C.ar      1 <1>         0.076800 
     30 C          26.423000   24.063000   14.918000 C.ar      1 <1>        -0.169600 
     31 H          26.773000   24.680000   15.745000 H         1 <1>         0.145600 
     32 C          26.233000   24.667000   13.671000 C.ar      1 <1>        -0.181100 
     33 H          26.447000   25.729000   13.556000 H         1 <1>         0.192100 
     34 C          25.774000   23.919000   12.580000 C.ar      1 <1>        -0.021600 
     35 C          25.529000   22.552000   12.757000 C.ar      1 <1>        -0.201200 
     36 H          25.192000   21.940000   11.921000 H         1 <1>         0.172300 
     37 C          25.720000   21.951000   14.006000 C.ar      1 <1>        -0.164600 
     38 H          25.532000   20.883000   14.104000 H         1 <1>         0.142200 
     39 C          25.581000   24.566000   11.233000 C.3       1 <1>         0.156300 
     40 H          25.227000   25.597000   11.359000 H         1 <1>         0.047800 
     41 H          24.834000   24.017000   10.649000 H         1 <1>         0.048200 
     42 O          26.840000   24.558000   10.551000 O.3       1 <1>        -0.390800 
     43 C          26.724000   25.169000    9.267000 C.3       1 <1>        -0.057300 
     44 H          27.705000   25.142000    8.786000 H         1 <1>         0.106100 
     45 H          26.412000   26.213000    9.368000 H         1 <1>         0.061800 
     46 H          26.013000   24.618000    8.645000 H         1 <1>         0.064900 
@<TRIPOS>BOND
     1    1    2 2    
     2    2    3 1    
     3    3    4 1    
     4    3    5 1    
     5    3    6 1    
     6    6    7 1    
     7    6    8 1    
     8    6    9 1    
     9    9   10 1    
    10    9   11 1    
    11    9    1 1    
    12    2   12 1    
    13   12   13 ar   
    14   13   14 1    
    15   13   15 ar   
    16   15   16 1    
    17   15   17 ar   
    18   17   18 ar   
    19   18   19 1    
    20   18   20 ar   
    21   20   21 1    
    22   20   12 ar   
    23   17   22 1    
    24   22   23 2    
    25   22   24 2    
    26   22   25 1    
    27   25   26 1    
    28   25   27 1    
    29   25   28 1    
    30    1   29 1    
    31   29   30 ar   
    32   30   31 1    
    33   30   32 ar   
    34   32   33 1    
    35   32   34 ar   
    36   34   35 ar   
    37   35   36 1    
    38   35   37 ar   
    39   37   38 1    
    40   37   29 ar   
    41   34   39 1    
    42   39   40 1    
    43   39   41 1    
    44   39   42 1    
    45   42   43 1    
    46   43   44 1    
    47   43   45 1    
    48   43   46 1    
@<TRIPOS>SUBSTRUCTURE
     1 ****        1 TEMP              0 ****  ****    0 ROOT 
@<TRIPOS>SET
UNITY_3DHIT     STATIC     ATOMS    <user>   **** Atoms matching 3D or FLEX Search
0
@<TRIPOS>UNITY_BOND_ATTR
1 1
S I
