#	Name:			5-1k
#	Creating user name:	jeff
#	Creation time:		Fri Dec 13 09:49:34 2002

#	Modifying user name:	jeff
#	Modification time:	Fri Dec 13 09:49:36 2002

@<TRIPOS>MOLECULE
5-1k
   43    45     1     0     1
SMALL
USER_CHARGES
****
From 3DB ct
@<TRIPOS>ATOM
      1 C          26.382000   22.071000   16.416000 C.2       1 <1>         0.073500 
      2 C          25.495000   21.496000   17.253000 C.2       1 <1>        -0.227800 
      3 C          26.178000   20.944000   18.475000 C.3       1 <1>        -0.033400 
      4 H          25.868000   19.927000   18.731000 H         1 <1>         0.040700 
      5 H          25.995000   21.596000   19.336000 H         1 <1>         0.069100 
      6 C          27.651000   20.962000   18.078000 C.3       1 <1>        -0.081300 
      7 H          27.935000   19.984000   17.666000 H         1 <1>         0.057700 
      8 H          28.308000   21.160000   18.930000 H         1 <1>         0.030900 
      9 C          27.770000   22.030000   16.996000 C.3       1 <1>        -0.121700 
     10 H          28.036000   22.999000   17.432000 H         1 <1>         0.092400 
     11 H          28.529000   21.749000   16.259000 H         1 <1>         0.056000 
     12 C          24.038000   21.385000   17.116000 C.ar      1 <1>         0.263600 
     13 C          23.330000   22.261000   16.280000 C.ar      1 <1>        -0.230100 
     14 H          23.856000   23.031000   15.716000 H         1 <1>         0.168000 
     15 C          21.940000   22.169000   16.157000 C.ar      1 <1>        -0.038800 
     16 H          21.415000   22.858000   15.498000 H         1 <1>         0.190900 
     17 C          21.247000   21.202000   16.887000 C.ar      1 <1>        -0.504300 
     18 C          21.934000   20.320000   17.723000 C.ar      1 <1>        -0.008100 
     19 H          21.404000   19.556000   18.289000 H         1 <1>         0.173000 
     20 C          23.324000   20.418000   17.840000 C.ar      1 <1>        -0.293100 
     21 H          23.844000   19.718000   18.492000 H         1 <1>         0.211800 
     22 S          19.482000   21.070000   16.719000 S.o2      1 <1>         2.180300 
     23 O          18.945000   22.415000   16.530000 O.2       1 <1>        -0.974900 
     24 O          18.984000   20.275000   17.837000 O.2       1 <1>        -0.974800 
     25 C          19.270000   20.151000   15.217000 C.3       1 <1>        -0.690100 
     26 H          18.199000   20.029000   15.043000 H         1 <1>         0.227300 
     27 H          19.742000   19.173000   15.329000 H         1 <1>         0.181600 
     28 H          19.719000   20.708000   14.393000 H         1 <1>         0.174300 
     29 C          26.154000   22.700000   15.109000 C.ar      1 <1>         0.046100 
     30 C          26.420000   24.061000   14.918000 C.ar      1 <1>        -0.187600 
     31 H          26.775000   24.679000   15.742000 H         1 <1>         0.147300 
     32 C          26.221000   24.663000   13.670000 C.ar      1 <1>        -0.135100 
     33 H          26.433000   25.726000   13.561000 H         1 <1>         0.172200 
     34 C          25.751000   23.916000   12.587000 C.ar      1 <1>        -0.059900 
     35 C          25.511000   22.551000   12.763000 C.ar      1 <1>        -0.094500 
     36 H          25.180000   21.929000   11.935000 H         1 <1>         0.157700 
     37 C          25.711000   21.951000   14.012000 C.ar      1 <1>        -0.206700 
     38 H          25.526000   20.882000   14.110000 H         1 <1>         0.151900 
     39 S          25.532000   24.727000   11.013000 S.3       1 <1>        -0.069400 
     40 C          25.994000   26.429000   11.451000 C.3       1 <1>        -0.261200 
     41 H          26.052000   27.026000   10.537000 H         1 <1>         0.147100 
     42 H          26.972000   26.448000   11.941000 H         1 <1>         0.085800 
     43 H          25.246000   26.880000   12.108000 H         1 <1>         0.093800 
@<TRIPOS>BOND
     1    1    2 2    
     2    2    3 1    
     3    3    4 1    
     4    3    5 1    
     5    3    6 1    
     6    6    7 1    
     7    6    8 1    
     8    6    9 1    
     9    9   10 1    
    10    9   11 1    
    11    9    1 1    
    12    2   12 1    
    13   12   13 ar   
    14   13   14 1    
    15   13   15 ar   
    16   15   16 1    
    17   15   17 ar   
    18   17   18 ar   
    19   18   19 1    
    20   18   20 ar   
    21   20   21 1    
    22   20   12 ar   
    23   17   22 1    
    24   22   23 2    
    25   22   24 2    
    26   22   25 1    
    27   25   26 1    
    28   25   27 1    
    29   25   28 1    
    30    1   29 1    
    31   29   30 ar   
    32   30   31 1    
    33   30   32 ar   
    34   32   33 1    
    35   32   34 ar   
    36   34   35 ar   
    37   35   36 1    
    38   35   37 ar   
    39   37   38 1    
    40   37   29 ar   
    41   34   39 1    
    42   39   40 1    
    43   40   41 1    
    44   40   42 1    
    45   40   43 1    
@<TRIPOS>SUBSTRUCTURE
     1 ****        1 TEMP              0 ****  ****    0 ROOT 
@<TRIPOS>SET
UNITY_3DHIT     STATIC     ATOMS    <user>   **** Atoms matching 3D or FLEX Search
0
@<TRIPOS>UNITY_BOND_ATTR
1 1
S I
