#	Name:			5-1l
#	Creating user name:	jeff
#	Creation time:		Fri Dec 13 09:49:36 2002

#	Modifying user name:	jeff
#	Modification time:	Fri Dec 13 09:49:38 2002

@<TRIPOS>MOLECULE
5-1l
   42    44     1     0     1
SMALL
USER_CHARGES
****
From 3DB ct
@<TRIPOS>ATOM
      1 C          26.396000   22.094000   16.444000 C.2       1 <1>         0.301200 
      2 C          25.510000   21.508000   17.272000 C.2       1 <1>        -0.276100 
      3 C          26.206000   20.904000   18.460000 C.3       1 <1>        -0.058600 
      4 H          25.875000   19.889000   18.699000 H         1 <1>         0.056600 
      5 H          26.064000   21.538000   19.342000 H         1 <1>         0.080200 
      6 C          27.670000   20.890000   18.023000 C.3       1 <1>        -0.150500 
      7 H          27.913000   19.918000   17.573000 H         1 <1>         0.068500 
      8 H          28.354000   21.039000   18.865000 H         1 <1>         0.058100 
      9 C          27.797000   21.990000   16.974000 C.3       1 <1>        -0.144700 
     10 H          28.114000   22.930000   17.437000 H         1 <1>         0.087800 
     11 H          28.522000   21.709000   16.203000 H         1 <1>         0.071000 
     12 C          24.054000   21.400000   17.118000 C.ar      1 <1>         0.296200 
     13 C          23.354000   22.277000   16.274000 C.ar      1 <1>        -0.252100 
     14 H          23.883000   23.052000   15.721000 H         1 <1>         0.167300 
     15 C          21.966000   22.186000   16.135000 C.ar      1 <1>        -0.013400 
     16 H          21.449000   22.876000   15.471000 H         1 <1>         0.186200 
     17 C          21.264000   21.218000   16.854000 C.ar      1 <1>        -0.514200 
     18 C          21.940000   20.334000   17.696000 C.ar      1 <1>         0.001000 
     19 H          21.404000   19.570000   18.255000 H         1 <1>         0.173600 
     20 C          23.329000   20.433000   17.829000 C.ar      1 <1>        -0.324900 
     21 H          23.839000   19.729000   18.485000 H         1 <1>         0.219600 
     22 S          19.500000   21.089000   16.665000 S.o2      1 <1>         2.182200 
     23 O          18.978000   22.422000   16.381000 O.2       1 <1>        -0.971900 
     24 O          18.978000   20.371000   17.824000 O.2       1 <1>        -0.972300 
     25 C          19.305000   20.078000   15.222000 C.3       1 <1>        -0.720500 
     26 H          18.236000   19.956000   15.036000 H         1 <1>         0.236400 
     27 H          19.764000   19.104000   15.404000 H         1 <1>         0.188000 
     28 H          19.775000   20.576000   14.372000 H         1 <1>         0.186300 
     29 C          26.143000   22.733000   15.148000 C.ar      1 <1>        -0.376600 
     30 C          26.358000   24.110000   14.920000 C.ar      1 <1>         0.291400 
     31 C          26.121000   24.634000   13.637000 C.ar      1 <1>        -0.536100 
     32 H          26.290000   25.688000   13.426000 H         1 <1>         0.260800 
     33 C          25.657000   23.813000   12.616000 C.ar      1 <1>         0.620600 
     34 C          25.426000   22.464000   12.835000 C.ar      1 <1>        -0.454300 
     35 H          25.063000   21.835000   12.027000 H         1 <1>         0.237800 
     36 C          25.671000   21.925000   14.098000 C.ar      1 <1>         0.031500 
     37 H          25.495000   20.862000   14.258000 H         1 <1>         0.134900 
     38 F          25.430000   24.334000   11.403000 F         1 <1>        -0.370500 
     39 C          26.856000   25.039000   15.993000 C.3       1 <1>        -0.173900 
     40 H          26.629000   26.082000   15.748000 H         1 <1>         0.063800 
     41 H          27.940000   24.943000   16.101000 H         1 <1>         0.057500 
     42 H          26.371000   24.831000   16.953000 H         1 <1>         0.052100 
@<TRIPOS>BOND
     1    1    2 2    
     2    2    3 1    
     3    3    4 1    
     4    3    5 1    
     5    3    6 1    
     6    6    7 1    
     7    6    8 1    
     8    6    9 1    
     9    9   10 1    
    10    9   11 1    
    11    9    1 1    
    12    2   12 1    
    13   12   13 ar   
    14   13   14 1    
    15   13   15 ar   
    16   15   16 1    
    17   15   17 ar   
    18   17   18 ar   
    19   18   19 1    
    20   18   20 ar   
    21   20   21 1    
    22   20   12 ar   
    23   17   22 1    
    24   22   23 2    
    25   22   24 2    
    26   22   25 1    
    27   25   26 1    
    28   25   27 1    
    29   25   28 1    
    30    1   29 1    
    31   29   30 ar   
    32   30   31 ar   
    33   31   32 1    
    34   31   33 ar   
    35   33   34 ar   
    36   34   35 1    
    37   34   36 ar   
    38   36   37 1    
    39   36   29 ar   
    40   33   38 1    
    41   30   39 1    
    42   39   40 1    
    43   39   41 1    
    44   39   42 1    
@<TRIPOS>SUBSTRUCTURE
     1 ****        1 TEMP              0 ****  ****    0 ROOT 
@<TRIPOS>SET
UNITY_3DHIT     STATIC     ATOMS    <user>   **** Atoms matching 3D or FLEX Search
0
@<TRIPOS>UNITY_BOND_ATTR
1 1
S I
