#	Name:			5-7a
#	Creating user name:	jeff
#	Creation time:		Fri Dec 13 09:49:39 2002

#	Modifying user name:	jeff
#	Modification time:	Fri Dec 13 09:49:41 2002

@<TRIPOS>MOLECULE
5-7a
   45    47     1     0     1
SMALL
USER_CHARGES
****
From 3DB ct
@<TRIPOS>ATOM
      1 C          26.381000   22.072000   16.415000 C.2       1 <1>         0.054900 
      2 C          25.494000   21.499000   17.254000 C.2       1 <1>        -0.222700 
      3 C          26.181000   20.947000   18.477000 C.3       1 <1>        -0.239400 
      4 H          25.825000   19.952000   18.760000 H         1 <1>         0.088300 
      5 H          26.012000   21.625000   19.323000 H         1 <1>         0.108300 
      6 C          27.665000   20.910000   18.056000 C.3       1 <1>         0.439800 
      7 C          27.772000   22.023000   16.995000 C.3       1 <1>        -0.310000 
      8 H          28.021000   22.992000   17.445000 H         1 <1>         0.113700 
      9 H          28.528000   21.786000   16.238000 H         1 <1>         0.106500 
     10 C          28.012000   19.541000   17.436000 C.3       1 <1>        -0.278400 
     11 H          29.051000   19.521000   17.087000 H         1 <1>         0.067300 
     12 H          27.371000   19.303000   16.580000 H         1 <1>         0.056600 
     13 H          27.893000   18.737000   18.171000 H         1 <1>         0.069400 
     14 C          28.596000   21.169000   19.243000 C.3       1 <1>        -0.461300 
     15 H          29.644000   21.180000   18.926000 H         1 <1>         0.106400 
     16 H          28.481000   20.395000   20.010000 H         1 <1>         0.104500 
     17 H          28.382000   22.136000   19.713000 H         1 <1>         0.105400 
     18 C          24.038000   21.387000   17.117000 C.ar      1 <1>         0.339500 
     19 C          23.330000   22.262000   16.279000 C.ar      1 <1>        -0.268500 
     20 H          23.856000   23.032000   15.715000 H         1 <1>         0.169600 
     21 C          21.940000   22.169000   16.155000 C.ar      1 <1>        -0.024000 
     22 H          21.415000   22.857000   15.496000 H         1 <1>         0.192800 
     23 C          21.248000   21.201000   16.885000 C.ar      1 <1>        -0.521400 
     24 C          21.935000   20.320000   17.722000 C.ar      1 <1>        -0.011200 
     25 H          21.405000   19.555000   18.287000 H         1 <1>         0.179500 
     26 C          23.325000   20.420000   17.839000 C.ar      1 <1>        -0.308400 
     27 H          23.846000   19.720000   18.491000 H         1 <1>         0.206100 
     28 S          19.483000   21.069000   16.718000 S.o2      1 <1>         2.189900 
     29 O          18.946000   22.413000   16.527000 O.2       1 <1>        -0.972300 
     30 O          18.985000   20.275000   17.836000 O.2       1 <1>        -0.972500 
     31 C          19.271000   20.149000   15.217000 C.3       1 <1>        -0.734200 
     32 H          18.200000   20.027000   15.042000 H         1 <1>         0.238400 
     33 H          19.742000   19.171000   15.329000 H         1 <1>         0.192300 
     34 H          19.721000   20.705000   14.392000 H         1 <1>         0.190300 
     35 C          26.153000   22.700000   15.108000 C.ar      1 <1>        -0.006100 
     36 C          26.418000   24.065000   14.921000 C.ar      1 <1>        -0.101000 
     37 H          26.770000   24.682000   15.747000 H         1 <1>         0.173600 
     38 C          26.220000   24.666000   13.675000 C.ar      1 <1>        -0.384800 
     39 H          26.419000   25.725000   13.536000 H         1 <1>         0.227600 
     40 C          25.765000   23.900000   12.609000 C.ar      1 <1>         0.573900 
     41 C          25.508000   22.545000   12.765000 C.ar      1 <1>        -0.408600 
     42 H          25.159000   21.957000   11.921000 H         1 <1>         0.233400 
     43 C          25.706000   21.945000   14.012000 C.ar      1 <1>        -0.081900 
     44 H          25.516000   20.878000   14.114000 H         1 <1>         0.147000 
     45 F          25.575000   24.476000   11.415000 F         1 <1>        -0.368300 
@<TRIPOS>BOND
     1    1    2 2    
     2    2    3 1    
     3    3    4 1    
     4    3    5 1    
     5    3    6 1    
     6    6    7 1    
     7    7    8 1    
     8    7    9 1    
     9    7    1 1    
    10    6   10 1    
    11   10   11 1    
    12   10   12 1    
    13   10   13 1    
    14    6   14 1    
    15   14   15 1    
    16   14   16 1    
    17   14   17 1    
    18    2   18 1    
    19   18   19 ar   
    20   19   20 1    
    21   19   21 ar   
    22   21   22 1    
    23   21   23 ar   
    24   23   24 ar   
    25   24   25 1    
    26   24   26 ar   
    27   26   27 1    
    28   26   18 ar   
    29   23   28 1    
    30   28   29 2    
    31   28   30 2    
    32   28   31 1    
    33   31   32 1    
    34   31   33 1    
    35   31   34 1    
    36    1   35 1    
    37   35   36 ar   
    38   36   37 1    
    39   36   38 ar   
    40   38   39 1    
    41   38   40 ar   
    42   40   41 ar   
    43   41   42 1    
    44   41   43 ar   
    45   43   44 1    
    46   43   35 ar   
    47   40   45 1    
@<TRIPOS>SUBSTRUCTURE
     1 ****        1 TEMP              0 ****  ****    0 ROOT 
@<TRIPOS>SET
UNITY_3DHIT     STATIC     ATOMS    <user>   **** Atoms matching 3D or FLEX Search
0
@<TRIPOS>UNITY_BOND_ATTR
1 1
S I
