#	Name:			5-7c
#	Creating user name:	jeff
#	Creation time:		Fri Dec 13 09:49:44 2002

#	Modifying user name:	jeff
#	Modification time:	Fri Dec 13 09:49:46 2002

@<TRIPOS>MOLECULE
5-7c
   45    47     1     0     1
SMALL
USER_CHARGES
****
From 3DB ct
@<TRIPOS>ATOM
      1 C          26.383000   22.071000   16.417000 C.2       1 <1>         0.140700 
      2 C          25.497000   21.498000   17.257000 C.2       1 <1>        -0.162400 
      3 C          26.185000   20.945000   18.480000 C.3       1 <1>        -0.094100 
      4 H          25.840000   19.940000   18.743000 H         1 <1>         0.116300 
      5 H          25.985000   21.606000   19.332000 H         1 <1>         0.144400 
      6 C          27.665000   20.948000   18.078000 C.3       1 <1>        -0.693300 
      7 C          27.776000   22.024000   16.993000 C.3       1 <1>        -0.178900 
      8 H          28.036000   23.004000   17.410000 H         1 <1>         0.153700 
      9 H          28.523000   21.764000   16.234000 H         1 <1>         0.137400 
     10 C          28.559000   21.233000   19.244000 C.3       1 <1>         1.522700 
     11 F          29.868000   21.280000   18.898000 F         1 <1>        -0.459100 
     12 F          28.274000   22.436000   19.809000 F         1 <1>        -0.436900 
     13 F          28.440000   20.314000   20.231000 F         1 <1>        -0.461200 
     14 C          28.086000   19.601000   17.553000 C.3       1 <1>         1.581900 
     15 F          27.955000   18.619000   18.478000 F         1 <1>        -0.461900 
     16 F          29.380000   19.583000   17.146000 F         1 <1>        -0.463500 
     17 F          27.349000   19.209000   16.482000 F         1 <1>        -0.463000 
     18 C          24.041000   21.388000   17.119000 C.ar      1 <1>         0.226800 
     19 C          23.336000   22.264000   16.279000 C.ar      1 <1>        -0.211600 
     20 H          23.864000   23.033000   15.717000 H         1 <1>         0.157100 
     21 C          21.947000   22.172000   16.153000 C.ar      1 <1>        -0.033900 
     22 H          21.424000   22.860000   15.492000 H         1 <1>         0.195300 
     23 C          21.252000   21.204000   16.881000 C.ar      1 <1>        -0.494600 
     24 C          21.936000   20.322000   17.719000 C.ar      1 <1>        -0.016900 
     25 H          21.404000   19.558000   18.282000 H         1 <1>         0.181300 
     26 C          23.326000   20.421000   17.839000 C.ar      1 <1>        -0.268000 
     27 H          23.843000   19.719000   18.492000 H         1 <1>         0.204800 
     28 S          19.487000   21.073000   16.706000 S.o2      1 <1>         2.168600 
     29 O          18.953000   22.416000   16.497000 O.2       1 <1>        -0.963500 
     30 O          18.983000   20.294000   17.832000 O.2       1 <1>        -0.962600 
     31 C          19.280000   20.135000   15.216000 C.3       1 <1>        -0.724100 
     32 H          18.210000   20.012000   15.038000 H         1 <1>         0.241600 
     33 H          19.751000   19.158000   15.342000 H         1 <1>         0.193100 
     34 H          19.735000   20.681000   14.386000 H         1 <1>         0.187700 
     35 C          26.149000   22.699000   15.110000 C.ar      1 <1>        -0.106700 
     36 C          26.413000   24.064000   14.921000 C.ar      1 <1>        -0.070400 
     37 H          26.767000   24.683000   15.744000 H         1 <1>         0.164200 
     38 C          26.207000   24.663000   13.675000 C.ar      1 <1>        -0.382800 
     39 H          26.404000   25.722000   13.534000 H         1 <1>         0.229800 
     40 C          25.745000   23.896000   12.614000 C.ar      1 <1>         0.592500 
     41 C          25.489000   22.541000   12.772000 C.ar      1 <1>        -0.411800 
     42 H          25.135000   21.953000   11.931000 H         1 <1>         0.236500 
     43 C          25.695000   21.943000   14.018000 C.ar      1 <1>        -0.037900 
     44 H          25.504000   20.876000   14.123000 H         1 <1>         0.148000 
     45 F          25.548000   24.471000   11.419000 F         1 <1>        -0.365100 
@<TRIPOS>BOND
     1    1    2 2    
     2    2    3 1    
     3    3    4 1    
     4    3    5 1    
     5    3    6 1    
     6    6    7 1    
     7    7    8 1    
     8    7    9 1    
     9    7    1 1    
    10    6   10 1    
    11   10   11 1    
    12   10   12 1    
    13   10   13 1    
    14    6   14 1    
    15   14   15 1    
    16   14   16 1    
    17   14   17 1    
    18    2   18 1    
    19   18   19 ar   
    20   19   20 1    
    21   19   21 ar   
    22   21   22 1    
    23   21   23 ar   
    24   23   24 ar   
    25   24   25 1    
    26   24   26 ar   
    27   26   27 1    
    28   26   18 ar   
    29   23   28 1    
    30   28   29 2    
    31   28   30 2    
    32   28   31 1    
    33   31   32 1    
    34   31   33 1    
    35   31   34 1    
    36    1   35 1    
    37   35   36 ar   
    38   36   37 1    
    39   36   38 ar   
    40   38   39 1    
    41   38   40 ar   
    42   40   41 ar   
    43   41   42 1    
    44   41   43 ar   
    45   43   44 1    
    46   43   35 ar   
    47   40   45 1    
@<TRIPOS>SUBSTRUCTURE
     1 ****        1 TEMP              0 ****  ****    0 ROOT 
@<TRIPOS>SET
UNITY_3DHIT     STATIC     ATOMS    <user>   **** Atoms matching 3D or FLEX Search
0
@<TRIPOS>UNITY_BOND_ATTR
1 1
S I
