#	Name:			5-7e
#	Creating user name:	jeff
#	Creation time:		Fri Dec 13 09:49:46 2002

#	Modifying user name:	jeff
#	Modification time:	Fri Dec 13 09:49:48 2002

@<TRIPOS>MOLECULE
5-7e
   45    47     1     0     1
SMALL
USER_CHARGES
****
From 3DB ct
@<TRIPOS>ATOM
      1 C          26.381000   22.070000   16.415000 C.2       1 <1>         0.090000 
      2 C          25.495000   21.498000   17.254000 C.2       1 <1>        -0.190300 
      3 C          26.183000   20.948000   18.478000 C.3       1 <1>        -0.386400 
      4 H          25.826000   19.952000   18.762000 H         1 <1>         0.119700 
      5 H          26.010000   21.626000   19.323000 H         1 <1>         0.149100 
      6 C          27.665000   20.915000   18.056000 C.3       1 <1>        -0.022600 
      7 C          27.773000   22.024000   16.995000 C.3       1 <1>        -0.126700 
      8 H          28.021000   22.994000   17.443000 H         1 <1>         0.110700 
      9 H          28.529000   21.789000   16.237000 H         1 <1>         0.105900 
     10 C          28.000000   19.546000   17.441000 C.3       1 <1>         0.492000 
     11 H          27.353000   19.299000   16.593000 H         1 <1>        -0.010000 
     12 H          27.909000   18.742000   18.179000 H         1 <1>         0.003800 
     13 F          29.285000   19.537000   16.984000 F         1 <1>        -0.414300 
     14 C          28.581000   21.183000   19.246000 C.3       1 <1>         0.291700 
     15 H          28.515000   20.387000   19.995000 H         1 <1>         0.044900 
     16 H          28.343000   22.132000   19.737000 H         1 <1>         0.048800 
     17 F          29.878000   21.258000   18.832000 F         1 <1>        -0.382800 
     18 C          24.038000   21.387000   17.118000 C.ar      1 <1>         0.357500 
     19 C          23.332000   22.263000   16.279000 C.ar      1 <1>        -0.291400 
     20 H          23.858000   23.032000   15.716000 H         1 <1>         0.177400 
     21 C          21.942000   22.170000   16.155000 C.ar      1 <1>        -0.017800 
     22 H          21.418000   22.858000   15.496000 H         1 <1>         0.196200 
     23 C          21.249000   21.203000   16.884000 C.ar      1 <1>        -0.532400 
     24 C          21.935000   20.321000   17.721000 C.ar      1 <1>        -0.028000 
     25 H          21.404000   19.557000   18.286000 H         1 <1>         0.187000 
     26 C          23.325000   20.420000   17.840000 C.ar      1 <1>        -0.260300 
     27 H          23.843000   19.719000   18.492000 H         1 <1>         0.175500 
     28 S          19.484000   21.070000   16.714000 S.o2      1 <1>         2.203200 
     29 O          18.948000   22.414000   16.519000 O.2       1 <1>        -0.972300 
     30 O          18.984000   20.279000   17.834000 O.2       1 <1>        -0.972800 
     31 C          19.274000   20.145000   15.215000 C.3       1 <1>        -0.747500 
     32 H          18.204000   20.021000   15.041000 H         1 <1>         0.243700 
     33 H          19.748000   19.169000   15.331000 H         1 <1>         0.196500 
     34 H          19.724000   20.700000   14.389000 H         1 <1>         0.194700 
     35 C          26.152000   22.699000   15.108000 C.ar      1 <1>        -0.120100 
     36 C          26.417000   24.064000   14.921000 C.ar      1 <1>        -0.050300 
     37 H          26.770000   24.681000   15.746000 H         1 <1>         0.155900 
     38 C          26.217000   24.666000   13.675000 C.ar      1 <1>        -0.396900 
     39 H          26.416000   25.725000   13.537000 H         1 <1>         0.232300 
     40 C          25.759000   23.901000   12.611000 C.ar      1 <1>         0.593900 
     41 C          25.502000   22.545000   12.767000 C.ar      1 <1>        -0.451200 
     42 H          25.152000   21.958000   11.923000 H         1 <1>         0.243500 
     43 C          25.703000   21.945000   14.012000 C.ar      1 <1>         0.013300 
     44 H          25.512000   20.878000   14.114000 H         1 <1>         0.112800 
     45 F          25.567000   24.477000   11.417000 F         1 <1>        -0.365800 
@<TRIPOS>BOND
     1    1    2 2    
     2    2    3 1    
     3    3    4 1    
     4    3    5 1    
     5    3    6 1    
     6    6    7 1    
     7    7    8 1    
     8    7    9 1    
     9    7    1 1    
    10    6   10 1    
    11   10   11 1    
    12   10   12 1    
    13   10   13 1    
    14    6   14 1    
    15   14   15 1    
    16   14   16 1    
    17   14   17 1    
    18    2   18 1    
    19   18   19 ar   
    20   19   20 1    
    21   19   21 ar   
    22   21   22 1    
    23   21   23 ar   
    24   23   24 ar   
    25   24   25 1    
    26   24   26 ar   
    27   26   27 1    
    28   26   18 ar   
    29   23   28 1    
    30   28   29 2    
    31   28   30 2    
    32   28   31 1    
    33   31   32 1    
    34   31   33 1    
    35   31   34 1    
    36    1   35 1    
    37   35   36 ar   
    38   36   37 1    
    39   36   38 ar   
    40   38   39 1    
    41   38   40 ar   
    42   40   41 ar   
    43   41   42 1    
    44   41   43 ar   
    45   43   44 1    
    46   43   35 ar   
    47   40   45 1    
@<TRIPOS>SUBSTRUCTURE
     1 ****        1 TEMP              0 ****  ****    0 ROOT 
@<TRIPOS>SET
UNITY_3DHIT     STATIC     ATOMS    <user>   **** Atoms matching 3D or FLEX Search
0
@<TRIPOS>UNITY_BOND_ATTR
1 1
S I
