#	Name:			6-7b
#	Creating user name:	jeff
#	Creation time:		Fri Dec 13 09:49:49 2002

#	Modifying user name:	jeff
#	Modification time:	Fri Dec 13 09:49:51 2002

@<TRIPOS>MOLECULE
6-7b
   39    41     1     0     1
SMALL
USER_CHARGES
****
From 3DB ct
@<TRIPOS>ATOM
      1 C          26.384000   22.072000   16.416000 C.2       1 <1>         0.140400 
      2 C          25.497000   21.497000   17.253000 C.2       1 <1>        -0.224700 
      3 C          26.180000   20.944000   18.474000 C.3       1 <1>        -0.028800 
      4 H          25.869000   19.928000   18.730000 H         1 <1>         0.045400 
      5 H          25.998000   21.596000   19.336000 H         1 <1>         0.072900 
      6 C          27.652000   20.961000   18.076000 C.3       1 <1>        -0.112200 
      7 H          27.936000   19.984000   17.663000 H         1 <1>         0.058500 
      8 H          28.311000   21.157000   18.928000 H         1 <1>         0.045700 
      9 C          27.772000   22.031000   16.996000 C.3       1 <1>        -0.106700 
     10 H          28.038000   23.000000   17.433000 H         1 <1>         0.079900 
     11 H          28.530000   21.751000   16.258000 H         1 <1>         0.060500 
     12 C          24.040000   21.386000   17.115000 C.ar      1 <1>         0.243200 
     13 C          23.333000   22.263000   16.278000 C.ar      1 <1>        -0.215800 
     14 H          23.859000   23.034000   15.716000 H         1 <1>         0.163400 
     15 C          21.944000   22.171000   16.154000 C.ar      1 <1>        -0.034200 
     16 H          21.419000   22.860000   15.496000 H         1 <1>         0.190700 
     17 C          21.250000   21.204000   16.884000 C.ar      1 <1>        -0.505800 
     18 C          21.936000   20.321000   17.720000 C.ar      1 <1>        -0.005600 
     19 H          21.405000   19.558000   18.285000 H         1 <1>         0.175800 
     20 C          23.326000   20.420000   17.837000 C.ar      1 <1>        -0.300500 
     21 H          23.845000   19.719000   18.490000 H         1 <1>         0.216400 
     22 S          19.484000   21.073000   16.714000 S.o2      1 <1>         2.179400 
     23 O          18.949000   22.417000   16.518000 O.2       1 <1>        -0.968800 
     24 O          18.985000   20.284000   17.836000 O.2       1 <1>        -0.969900 
     25 C          19.273000   20.146000   15.217000 C.3       1 <1>        -0.711900 
     26 H          18.202000   20.024000   15.043000 H         1 <1>         0.234300 
     27 H          19.743000   19.168000   15.335000 H         1 <1>         0.186100 
     28 H          19.724000   20.698000   14.391000 H         1 <1>         0.184500 
     29 C          26.154000   22.702000   15.110000 C.ar      1 <1>        -0.063300 
     30 C          26.418000   24.066000   14.925000 C.ar      1 <1>        -0.305600 
     31 H          26.773000   24.688000   15.742000 H         1 <1>         0.233200 
     32 C          26.211000   24.654000   13.680000 C.ar      1 <1>         0.342100 
     33 C          25.752000   23.899000   12.609000 C.ar      1 <1>         0.377100 
     34 C          25.497000   22.544000   12.766000 C.ar      1 <1>        -0.349200 
     35 H          25.144000   21.955000   11.924000 H         1 <1>         0.246900 
     36 C          25.702000   21.947000   14.014000 C.ar      1 <1>        -0.108800 
     37 H          25.512000   20.879000   14.118000 H         1 <1>         0.163300 
     38 F          25.557000   24.477000   11.414000 F         1 <1>        -0.316400 
     39 F          26.460000   25.962000   13.520000 F         1 <1>        -0.311500 
@<TRIPOS>BOND
     1    1    2 2    
     2    2    3 1    
     3    3    4 1    
     4    3    5 1    
     5    3    6 1    
     6    6    7 1    
     7    6    8 1    
     8    6    9 1    
     9    9   10 1    
    10    9   11 1    
    11    9    1 1    
    12    2   12 1    
    13   12   13 ar   
    14   13   14 1    
    15   13   15 ar   
    16   15   16 1    
    17   15   17 ar   
    18   17   18 ar   
    19   18   19 1    
    20   18   20 ar   
    21   20   21 1    
    22   20   12 ar   
    23   17   22 1    
    24   22   23 2    
    25   22   24 2    
    26   22   25 1    
    27   25   26 1    
    28   25   27 1    
    29   25   28 1    
    30    1   29 1    
    31   29   30 ar   
    32   30   31 1    
    33   30   32 ar   
    34   32   33 ar   
    35   33   34 ar   
    36   34   35 1    
    37   34   36 ar   
    38   36   37 1    
    39   36   29 ar   
    40   33   38 1    
    41   32   39 1    
@<TRIPOS>SUBSTRUCTURE
     1 ****        1 TEMP              0 ****  ****    0 ROOT 
@<TRIPOS>SET
UNITY_3DHIT     STATIC     ATOMS    <user>   **** Atoms matching 3D or FLEX Search
0
@<TRIPOS>UNITY_BOND_ATTR
1 1
S I
