#	Name:			6-7d
#	Creating user name:	jeff
#	Creation time:		Fri Dec 13 09:49:53 2002

#	Modifying user name:	jeff
#	Modification time:	Fri Dec 13 09:49:55 2002

@<TRIPOS>MOLECULE
6-7d
   42    44     1     0     1
SMALL
USER_CHARGES
****
From 3DB ct
@<TRIPOS>ATOM
      1 C          26.384000   22.070000   16.417000 C.2       1 <1>         0.027200 
      2 C          25.496000   21.497000   17.254000 C.2       1 <1>        -0.127900 
      3 C          26.180000   20.945000   18.476000 C.3       1 <1>        -0.069400 
      4 H          25.867000   19.929000   18.734000 H         1 <1>         0.052300 
      5 H          26.000000   21.599000   19.337000 H         1 <1>         0.083700 
      6 C          27.651000   20.958000   18.076000 C.3       1 <1>        -0.089100 
      7 H          27.931000   19.980000   17.663000 H         1 <1>         0.061500 
      8 H          28.311000   21.153000   18.927000 H         1 <1>         0.044600 
      9 C          27.772000   22.027000   16.995000 C.3       1 <1>        -0.145200 
     10 H          28.040000   22.996000   17.431000 H         1 <1>         0.103300 
     11 H          28.529000   21.746000   16.257000 H         1 <1>         0.067800 
     12 C          24.039000   21.386000   17.116000 C.ar      1 <1>         0.185600 
     13 C          23.332000   22.262000   16.278000 C.ar      1 <1>        -0.203200 
     14 H          23.857000   23.034000   15.716000 H         1 <1>         0.153500 
     15 C          21.942000   22.170000   16.155000 C.ar      1 <1>        -0.042200 
     16 H          21.417000   22.858000   15.496000 H         1 <1>         0.194100 
     17 C          21.249000   21.202000   16.884000 C.ar      1 <1>        -0.497400 
     18 C          21.935000   20.320000   17.720000 C.ar      1 <1>        -0.010800 
     19 H          21.405000   19.556000   18.285000 H         1 <1>         0.177900 
     20 C          23.325000   20.419000   17.837000 C.ar      1 <1>        -0.278100 
     21 H          23.844000   19.718000   18.490000 H         1 <1>         0.211300 
     22 S          19.483000   21.072000   16.717000 S.o2      1 <1>         2.184200 
     23 O          18.948000   22.416000   16.521000 O.2       1 <1>        -0.968300 
     24 O          18.984000   20.283000   17.839000 O.2       1 <1>        -0.969500 
     25 C          19.270000   20.145000   15.220000 C.3       1 <1>        -0.719100 
     26 H          18.199000   20.026000   15.045000 H         1 <1>         0.238300 
     27 H          19.739000   19.167000   15.337000 H         1 <1>         0.187300 
     28 H          19.722000   20.696000   14.393000 H         1 <1>         0.184900 
     29 C          26.154000   22.697000   15.110000 C.ar      1 <1>        -0.064900 
     30 C          26.418000   24.063000   14.920000 C.ar      1 <1>         0.069100 
     31 H          26.770000   24.668000   15.755000 H         1 <1>         0.162300 
     32 C          26.217000   24.673000   13.670000 C.ar      1 <1>        -0.681600 
     33 C          25.759000   23.894000   12.611000 C.ar      1 <1>         0.676600 
     34 C          25.502000   22.537000   12.773000 C.ar      1 <1>        -0.432300 
     35 H          25.151000   21.947000   11.931000 H         1 <1>         0.244600 
     36 C          25.703000   21.940000   14.018000 C.ar      1 <1>         0.008300 
     37 H          25.512000   20.873000   14.124000 H         1 <1>         0.155000 
     38 F          25.560000   24.450000   11.407000 F         1 <1>        -0.343800 
     39 C          26.480000   26.129000   13.444000 C.3       1 <1>         1.555000 
     40 F          25.373000   26.820000   13.035000 F         1 <1>        -0.459500 
     41 F          27.431000   26.362000   12.489000 F         1 <1>        -0.459300 
     42 F          26.923000   26.793000   14.557000 F         1 <1>        -0.466400 
@<TRIPOS>BOND
     1    1    2 2    
     2    2    3 1    
     3    3    4 1    
     4    3    5 1    
     5    3    6 1    
     6    6    7 1    
     7    6    8 1    
     8    6    9 1    
     9    9   10 1    
    10    9   11 1    
    11    9    1 1    
    12    2   12 1    
    13   12   13 ar   
    14   13   14 1    
    15   13   15 ar   
    16   15   16 1    
    17   15   17 ar   
    18   17   18 ar   
    19   18   19 1    
    20   18   20 ar   
    21   20   21 1    
    22   20   12 ar   
    23   17   22 1    
    24   22   23 2    
    25   22   24 2    
    26   22   25 1    
    27   25   26 1    
    28   25   27 1    
    29   25   28 1    
    30    1   29 1    
    31   29   30 ar   
    32   30   31 1    
    33   30   32 ar   
    34   32   33 ar   
    35   33   34 ar   
    36   34   35 1    
    37   34   36 ar   
    38   36   37 1    
    39   36   29 ar   
    40   33   38 1    
    41   32   39 1    
    42   39   40 1    
    43   39   41 1    
    44   39   42 1    
@<TRIPOS>SUBSTRUCTURE
     1 ****        1 TEMP              0 ****  ****    0 ROOT 
@<TRIPOS>SET
UNITY_3DHIT     STATIC     ATOMS    <user>   **** Atoms matching 3D or FLEX Search
0
@<TRIPOS>UNITY_BOND_ATTR
1 1
S I
