#	Name:			6-7i
#	Creating user name:	jeff
#	Creation time:		Fri Dec 13 09:50:00 2002

#	Modifying user name:	jeff
#	Modification time:	Fri Dec 13 09:50:02 2002

@<TRIPOS>MOLECULE
6-7i
   43    45     1     0     1
SMALL
USER_CHARGES
****
From 3DB ct
@<TRIPOS>ATOM
      1 C          26.383000   22.071000   16.416000 C.2       1 <1>         0.166900 
      2 C          25.495000   21.497000   17.253000 C.2       1 <1>        -0.225200 
      3 C          26.178000   20.945000   18.475000 C.3       1 <1>        -0.049500 
      4 H          25.866000   19.929000   18.732000 H         1 <1>         0.047900 
      5 H          25.996000   21.599000   19.335000 H         1 <1>         0.077100 
      6 C          27.651000   20.961000   18.076000 C.3       1 <1>        -0.112600 
      7 H          27.933000   19.983000   17.664000 H         1 <1>         0.061000 
      8 H          28.308000   21.157000   18.929000 H         1 <1>         0.046700 
      9 C          27.771000   22.029000   16.996000 C.3       1 <1>        -0.141400 
     10 H          28.038000   22.998000   17.432000 H         1 <1>         0.092100 
     11 H          28.529000   21.748000   16.258000 H         1 <1>         0.070800 
     12 C          24.038000   21.385000   17.115000 C.ar      1 <1>         0.254300 
     13 C          23.330000   22.262000   16.279000 C.ar      1 <1>        -0.232600 
     14 H          23.855000   23.033000   15.717000 H         1 <1>         0.170900 
     15 C          21.941000   22.169000   16.156000 C.ar      1 <1>        -0.033200 
     16 H          21.415000   22.858000   15.498000 H         1 <1>         0.190200 
     17 C          21.248000   21.202000   16.886000 C.ar      1 <1>        -0.502300 
     18 C          21.934000   20.319000   17.722000 C.ar      1 <1>        -0.009600 
     19 H          21.405000   19.556000   18.288000 H         1 <1>         0.174700 
     20 C          23.325000   20.418000   17.838000 C.ar      1 <1>        -0.304300 
     21 H          23.845000   19.718000   18.491000 H         1 <1>         0.216300 
     22 S          19.482000   21.071000   16.718000 S.o2      1 <1>         2.180100 
     23 O          18.947000   22.416000   16.526000 O.2       1 <1>        -0.971700 
     24 O          18.984000   20.280000   17.839000 O.2       1 <1>        -0.972100 
     25 C          19.269000   20.149000   15.219000 C.3       1 <1>        -0.719500 
     26 H          18.198000   20.031000   15.043000 H         1 <1>         0.233700 
     27 H          19.736000   19.169000   15.334000 H         1 <1>         0.189200 
     28 H          19.723000   20.702000   14.394000 H         1 <1>         0.187600 
     29 C          26.155000   22.701000   15.109000 C.ar      1 <1>        -0.167200 
     30 C          26.418000   24.061000   14.920000 C.ar      1 <1>        -0.281300 
     31 H          26.769000   24.684000   15.739000 H         1 <1>         0.224100 
     32 C          26.217000   24.658000   13.674000 C.ar      1 <1>         0.349300 
     33 C          25.760000   23.917000   12.582000 C.ar      1 <1>         0.277800 
     34 C          25.510000   22.555000   12.765000 C.ar      1 <1>        -0.396100 
     35 H          25.160000   21.948000   11.932000 H         1 <1>         0.226600 
     36 C          25.709000   21.952000   14.013000 C.ar      1 <1>         0.011500 
     37 H          25.517000   20.884000   14.112000 H         1 <1>         0.135000 
     38 O          25.521000   24.367000   11.312000 O.3       1 <1>        -0.379000 
     39 C          25.743000   25.752000   11.060000 C.3       1 <1>         0.061400 
     40 H          25.497000   25.940000   10.010000 H         1 <1>         0.078200 
     41 H          26.795000   26.015000   11.206000 H         1 <1>         0.069700 
     42 H          25.082000   26.374000   11.672000 H         1 <1>         0.065100 
     43 F          26.482000   25.969000   13.567000 F         1 <1>        -0.360800 
@<TRIPOS>BOND
     1    1    2 2    
     2    2    3 1    
     3    3    4 1    
     4    3    5 1    
     5    3    6 1    
     6    6    7 1    
     7    6    8 1    
     8    6    9 1    
     9    9   10 1    
    10    9   11 1    
    11    9    1 1    
    12    2   12 1    
    13   12   13 ar   
    14   13   14 1    
    15   13   15 ar   
    16   15   16 1    
    17   15   17 ar   
    18   17   18 ar   
    19   18   19 1    
    20   18   20 ar   
    21   20   21 1    
    22   20   12 ar   
    23   17   22 1    
    24   22   23 2    
    25   22   24 2    
    26   22   25 1    
    27   25   26 1    
    28   25   27 1    
    29   25   28 1    
    30    1   29 1    
    31   29   30 ar   
    32   30   31 1    
    33   30   32 ar   
    34   32   33 ar   
    35   33   34 ar   
    36   34   35 1    
    37   34   36 ar   
    38   36   37 1    
    39   36   29 ar   
    40   33   38 1    
    41   38   39 1    
    42   39   40 1    
    43   39   41 1    
    44   39   42 1    
    45   32   43 1    
@<TRIPOS>SUBSTRUCTURE
     1 ****        1 TEMP              0 ****  ****    0 ROOT 
@<TRIPOS>SET
UNITY_3DHIT     STATIC     ATOMS    <user>   **** Atoms matching 3D or FLEX Search
0
@<TRIPOS>UNITY_BOND_ATTR
1 1
S I
