#	Name:			6-7l
#	Creating user name:	jeff
#	Creation time:		Fri Dec 13 09:50:07 2002

#	Modifying user name:	jeff
#	Modification time:	Fri Dec 13 09:50:09 2002

@<TRIPOS>MOLECULE
6-7l
   42    45     1     0     1
SMALL
USER_CHARGES
****
From 3DB ct
@<TRIPOS>ATOM
      1 C          26.384000   22.075000   16.417000 C.2       1 <1>         0.161300 
      2 C          25.498000   21.498000   17.252000 C.2       1 <1>        -0.222200 
      3 C          26.182000   20.941000   18.471000 C.3       1 <1>        -0.053500 
      4 H          25.871000   19.924000   18.723000 H         1 <1>         0.047200 
      5 H          26.000000   21.590000   19.335000 H         1 <1>         0.077300 
      6 C          27.654000   20.960000   18.072000 C.3       1 <1>        -0.107800 
      7 H          27.938000   19.983000   17.657000 H         1 <1>         0.059800 
      8 H          28.313000   21.154000   18.924000 H         1 <1>         0.046000 
      9 C          27.773000   22.031000   16.994000 C.3       1 <1>        -0.150100 
     10 H          28.041000   22.999000   17.433000 H         1 <1>         0.093900 
     11 H          28.530000   21.752000   16.254000 H         1 <1>         0.073000 
     12 C          24.041000   21.389000   17.115000 C.ar      1 <1>         0.262600 
     13 C          23.334000   22.265000   16.278000 C.ar      1 <1>        -0.249000 
     14 H          23.860000   23.035000   15.716000 H         1 <1>         0.174000 
     15 C          21.944000   22.173000   16.154000 C.ar      1 <1>        -0.015000 
     16 H          21.420000   22.861000   15.494000 H         1 <1>         0.186600 
     17 C          21.250000   21.205000   16.882000 C.ar      1 <1>        -0.502500 
     18 C          21.936000   20.323000   17.719000 C.ar      1 <1>        -0.019300 
     19 H          21.405000   19.560000   18.285000 H         1 <1>         0.175800 
     20 C          23.326000   20.422000   17.838000 C.ar      1 <1>        -0.304200 
     21 H          23.845000   19.722000   18.491000 H         1 <1>         0.216300 
     22 S          19.485000   21.072000   16.711000 S.o2      1 <1>         2.178200 
     23 O          18.949000   22.416000   16.517000 O.2       1 <1>        -0.971500 
     24 O          18.985000   20.281000   17.831000 O.2       1 <1>        -0.971900 
     25 C          19.276000   20.148000   15.213000 C.3       1 <1>        -0.724800 
     26 H          18.205000   20.026000   15.037000 H         1 <1>         0.235500 
     27 H          19.747000   19.171000   15.329000 H         1 <1>         0.191300 
     28 H          19.728000   20.702000   14.387000 H         1 <1>         0.187000 
     29 C          26.154000   22.711000   15.113000 C.ar      1 <1>        -0.096100 
     30 C          26.419000   24.078000   14.937000 C.ar      1 <1>        -0.305800 
     31 H          26.772000   24.700000   15.754000 H         1 <1>         0.230900 
     32 C          26.205000   24.633000   13.691000 C.ar      1 <1>         0.243000 
     33 C          25.753000   23.885000   12.631000 C.ar      1 <1>         0.255600 
     34 C          25.493000   22.539000   12.756000 C.ar      1 <1>        -0.357500 
     35 H          25.142000   21.950000   11.915000 H         1 <1>         0.244300 
     36 C          25.701000   21.951000   14.009000 C.ar      1 <1>        -0.082000 
     37 H          25.514000   20.883000   14.119000 H         1 <1>         0.147100 
     38 O          25.610000   24.621000   11.497000 O.3       1 <1>        -0.406200 
     39 C          26.021000   25.928000   11.963000 C.3       1 <1>         0.267000 
     40 H          26.875000   26.262000   11.363000 H         1 <1>         0.098700 
     41 H          25.190000   26.629000   11.822000 H         1 <1>         0.096300 
     42 O          26.403000   25.937000   13.359000 O.3       1 <1>        -0.409000 
@<TRIPOS>BOND
     1    1    2 2    
     2    2    3 1    
     3    3    4 1    
     4    3    5 1    
     5    3    6 1    
     6    6    7 1    
     7    6    8 1    
     8    6    9 1    
     9    9   10 1    
    10    9   11 1    
    11    9    1 1    
    12    2   12 1    
    13   12   13 ar   
    14   13   14 1    
    15   13   15 ar   
    16   15   16 1    
    17   15   17 ar   
    18   17   18 ar   
    19   18   19 1    
    20   18   20 ar   
    21   20   21 1    
    22   20   12 ar   
    23   17   22 1    
    24   22   23 2    
    25   22   24 2    
    26   22   25 1    
    27   25   26 1    
    28   25   27 1    
    29   25   28 1    
    30    1   29 1    
    31   29   30 ar   
    32   30   31 1    
    33   30   32 ar   
    34   32   33 ar   
    35   33   34 ar   
    36   34   35 1    
    37   34   36 ar   
    38   36   37 1    
    39   36   29 ar   
    40   33   38 1    
    41   38   39 1    
    42   39   40 1    
    43   39   41 1    
    44   39   42 1    
    45   42   32 1    
@<TRIPOS>SUBSTRUCTURE
     1 ****        1 TEMP              0 ****  ****    0 ROOT 
@<TRIPOS>SET
UNITY_3DHIT     STATIC     ATOMS    <user>   **** Atoms matching 3D or FLEX Search
0
@<TRIPOS>UNITY_BOND_ATTR
1 1
S I
