#	Name:			6-7m
#	Creating user name:	jeff
#	Creation time:		Fri Dec 13 09:50:09 2002

#	Modifying user name:	jeff
#	Modification time:	Fri Dec 13 09:50:12 2002

@<TRIPOS>MOLECULE
6-7m
   47    49     1     0     1
SMALL
USER_CHARGES
****
From 3DB ct
@<TRIPOS>ATOM
      1 C          26.382000   22.071000   16.416000 C.2       1 <1>         0.034400 
      2 C          25.494000   21.497000   17.253000 C.2       1 <1>        -0.143900 
      3 C          26.178000   20.943000   18.474000 C.3       1 <1>        -0.035100 
      4 H          25.866000   19.926000   18.730000 H         1 <1>         0.039200 
      5 H          25.997000   21.595000   19.336000 H         1 <1>         0.069400 
      6 C          27.650000   20.958000   18.075000 C.3       1 <1>        -0.121100 
      7 H          27.932000   19.980000   17.662000 H         1 <1>         0.067100 
      8 H          28.308000   21.154000   18.927000 H         1 <1>         0.042800 
      9 C          27.770000   22.027000   16.995000 C.3       1 <1>        -0.121200 
     10 H          28.038000   22.995000   17.432000 H         1 <1>         0.106000 
     11 H          28.528000   21.745000   16.256000 H         1 <1>         0.058900 
     12 C          24.038000   21.386000   17.117000 C.ar      1 <1>         0.189400 
     13 C          23.329000   22.262000   16.281000 C.ar      1 <1>        -0.187300 
     14 H          23.855000   23.033000   15.718000 H         1 <1>         0.140400 
     15 C          21.940000   22.169000   16.158000 C.ar      1 <1>        -0.030100 
     16 H          21.414000   22.857000   15.499000 H         1 <1>         0.189900 
     17 C          21.247000   21.202000   16.888000 C.ar      1 <1>        -0.526600 
     18 C          21.934000   20.320000   17.724000 C.ar      1 <1>        -0.003900 
     19 H          21.404000   19.556000   18.290000 H         1 <1>         0.176600 
     20 C          23.324000   20.420000   17.841000 C.ar      1 <1>        -0.283900 
     21 H          23.844000   19.720000   18.494000 H         1 <1>         0.210100 
     22 S          19.482000   21.069000   16.717000 S.o2      1 <1>         2.197500 
     23 O          18.944000   22.412000   16.527000 O.2       1 <1>        -0.976000 
     24 O          18.983000   20.273000   17.835000 O.2       1 <1>        -0.974300 
     25 C          19.272000   20.149000   15.216000 C.3       1 <1>        -0.728100 
     26 H          18.201000   20.026000   15.041000 H         1 <1>         0.233900 
     27 H          19.745000   19.172000   15.327000 H         1 <1>         0.190100 
     28 H          19.721000   20.707000   14.392000 H         1 <1>         0.188500 
     29 C          26.154000   22.701000   15.110000 C.ar      1 <1>        -0.071200 
     30 C          26.418000   24.061000   14.919000 C.ar      1 <1>         0.185100 
     31 H          26.776000   24.669000   15.748000 H         1 <1>         0.077000 
     32 C          26.220000   24.662000   13.668000 C.ar      1 <1>        -0.724600 
     33 C          25.757000   23.921000   12.558000 C.ar      1 <1>         0.899700 
     34 C          25.515000   22.554000   12.762000 C.ar      1 <1>        -0.461200 
     35 H          25.148000   21.928000   11.951000 H         1 <1>         0.212500 
     36 C          25.712000   21.953000   14.014000 C.ar      1 <1>        -0.082700 
     37 H          25.518000   20.887000   14.113000 H         1 <1>         0.153800 
     38 N          25.532000   24.514000   11.309000 N.pl3     1 <1>        -0.777700 
     39 C          26.685000   24.797000   10.455000 C.3       1 <1>         0.064900 
     40 H          26.402000   25.508000    9.670000 H         1 <1>         0.088300 
     41 H          27.056000   23.889000    9.969000 H         1 <1>         0.032600 
     42 H          27.498000   25.256000   11.029000 H         1 <1>         0.051100 
     43 C          24.314000   24.073000   10.623000 C.3       1 <1>        -0.043300 
     44 H          24.101000   24.731000    9.774000 H         1 <1>         0.125300 
     45 H          23.437000   24.093000   11.278000 H         1 <1>         0.069600 
     46 H          24.437000   23.053000   10.242000 H         1 <1>         0.060300 
     47 Cl         26.626000   26.343000   13.527000 Cl        1 <1>         0.138100 
@<TRIPOS>BOND
     1    1    2 2    
     2    2    3 1    
     3    3    4 1    
     4    3    5 1    
     5    3    6 1    
     6    6    7 1    
     7    6    8 1    
     8    6    9 1    
     9    9   10 1    
    10    9   11 1    
    11    9    1 1    
    12    2   12 1    
    13   12   13 ar   
    14   13   14 1    
    15   13   15 ar   
    16   15   16 1    
    17   15   17 ar   
    18   17   18 ar   
    19   18   19 1    
    20   18   20 ar   
    21   20   21 1    
    22   20   12 ar   
    23   17   22 1    
    24   22   23 2    
    25   22   24 2    
    26   22   25 1    
    27   25   26 1    
    28   25   27 1    
    29   25   28 1    
    30    1   29 1    
    31   29   30 ar   
    32   30   31 1    
    33   30   32 ar   
    34   32   33 ar   
    35   33   34 ar   
    36   34   35 1    
    37   34   36 ar   
    38   36   37 1    
    39   36   29 ar   
    40   33   38 1    
    41   38   39 1    
    42   39   40 1    
    43   39   41 1    
    44   39   42 1    
    45   38   43 1    
    46   43   44 1    
    47   43   45 1    
    48   43   46 1    
    49   32   47 1    
@<TRIPOS>SUBSTRUCTURE
     1 ****        1 TEMP              0 ****  ****    0 ROOT 
@<TRIPOS>SET
UNITY_3DHIT     STATIC     ATOMS    <user>   **** Atoms matching 3D or FLEX Search
0
@<TRIPOS>UNITY_BOND_ATTR
1 1
S I
