#	Name:			6-7p
#	Creating user name:	jeff
#	Creation time:		Fri Dec 13 09:50:12 2002

#	Modifying user name:	jeff
#	Modification time:	Fri Dec 13 09:50:14 2002

@<TRIPOS>MOLECULE
6-7p
   42    44     1     0     1
SMALL
USER_CHARGES
****
From 3DB ct
@<TRIPOS>ATOM
      1 C          26.382000   22.072000   16.416000 C.2       1 <1>         0.001100 
      2 C          25.494000   21.497000   17.252000 C.2       1 <1>        -0.119700 
      3 C          26.177000   20.945000   18.474000 C.3       1 <1>        -0.074100 
      4 H          25.865000   19.928000   18.730000 H         1 <1>         0.055400 
      5 H          25.993000   21.597000   19.335000 H         1 <1>         0.084300 
      6 C          27.649000   20.961000   18.077000 C.3       1 <1>        -0.083300 
      7 H          27.933000   19.983000   17.666000 H         1 <1>         0.059800 
      8 H          28.306000   21.158000   18.930000 H         1 <1>         0.044000 
      9 C          27.770000   22.029000   16.996000 C.3       1 <1>        -0.137900 
     10 H          28.038000   22.998000   17.433000 H         1 <1>         0.098100 
     11 H          28.529000   21.747000   16.259000 H         1 <1>         0.068300 
     12 C          24.038000   21.385000   17.114000 C.ar      1 <1>         0.183100 
     13 C          23.329000   22.262000   16.278000 C.ar      1 <1>        -0.197500 
     14 H          23.855000   23.032000   15.715000 H         1 <1>         0.154200 
     15 C          21.939000   22.169000   16.156000 C.ar      1 <1>        -0.042300 
     16 H          21.414000   22.858000   15.499000 H         1 <1>         0.196100 
     17 C          21.247000   21.202000   16.887000 C.ar      1 <1>        -0.492000 
     18 C          21.934000   20.320000   17.722000 C.ar      1 <1>        -0.019100 
     19 H          21.405000   19.556000   18.288000 H         1 <1>         0.177900 
     20 C          23.325000   20.419000   17.838000 C.ar      1 <1>        -0.267000 
     21 H          23.845000   19.719000   18.490000 H         1 <1>         0.208600 
     22 S          19.481000   21.069000   16.722000 S.o2      1 <1>         2.171200 
     23 O          18.944000   22.414000   16.541000 O.2       1 <1>        -0.964700 
     24 O          18.986000   20.268000   17.837000 O.2       1 <1>        -0.966000 
     25 C          19.267000   20.157000   15.216000 C.3       1 <1>        -0.715300 
     26 H          18.196000   20.035000   15.044000 H         1 <1>         0.237800 
     27 H          19.741000   19.180000   15.321000 H         1 <1>         0.188900 
     28 H          19.713000   20.719000   14.393000 H         1 <1>         0.186000 
     29 C          26.156000   22.703000   15.109000 C.ar      1 <1>         0.240600 
     30 C          26.419000   24.064000   14.923000 C.ar      1 <1>        -0.459900 
     31 H          26.769000   24.687000   15.742000 H         1 <1>         0.234300 
     32 C          26.220000   24.655000   13.675000 C.ar      1 <1>         0.714600 
     33 C          25.767000   23.919000   12.584000 C.ar      1 <1>        -0.739100 
     34 C          25.515000   22.554000   12.761000 C.ar      1 <1>         0.092300 
     35 H          25.167000   21.943000   11.928000 H         1 <1>         0.177300 
     36 C          25.711000   21.953000   14.010000 C.ar      1 <1>        -0.308600 
     37 H          25.521000   20.885000   14.110000 H         1 <1>         0.175500 
     38 C          25.572000   24.604000   11.267000 C.3       1 <1>         1.598000 
     39 F          25.109000   23.782000   10.276000 F         1 <1>        -0.478800 
     40 F          26.723000   25.150000   10.769000 F         1 <1>        -0.464700 
     41 F          24.674000   25.634000   11.324000 F         1 <1>        -0.467000 
     42 F          26.475000   25.965000   13.537000 F         1 <1>        -0.350500 
@<TRIPOS>BOND
     1    1    2 2    
     2    2    3 1    
     3    3    4 1    
     4    3    5 1    
     5    3    6 1    
     6    6    7 1    
     7    6    8 1    
     8    6    9 1    
     9    9   10 1    
    10    9   11 1    
    11    9    1 1    
    12    2   12 1    
    13   12   13 ar   
    14   13   14 1    
    15   13   15 ar   
    16   15   16 1    
    17   15   17 ar   
    18   17   18 ar   
    19   18   19 1    
    20   18   20 ar   
    21   20   21 1    
    22   20   12 ar   
    23   17   22 1    
    24   22   23 2    
    25   22   24 2    
    26   22   25 1    
    27   25   26 1    
    28   25   27 1    
    29   25   28 1    
    30    1   29 1    
    31   29   30 ar   
    32   30   31 1    
    33   30   32 ar   
    34   32   33 ar   
    35   33   34 ar   
    36   34   35 1    
    37   34   36 ar   
    38   36   37 1    
    39   36   29 ar   
    40   33   38 1    
    41   38   39 1    
    42   38   40 1    
    43   38   41 1    
    44   32   42 1    
@<TRIPOS>SUBSTRUCTURE
     1 ****        1 TEMP              0 ****  ****    0 ROOT 
@<TRIPOS>SET
UNITY_3DHIT     STATIC     ATOMS    <user>   **** Atoms matching 3D or FLEX Search
0
@<TRIPOS>UNITY_BOND_ATTR
1 1
S I
