#	Name:			6-8a
#	Creating user name:	jeff
#	Creation time:		Fri Dec 13 09:50:14 2002

#	Modifying user name:	jeff
#	Modification time:	Fri Dec 13 09:50:16 2002

@<TRIPOS>MOLECULE
6-8a
   38    40     1     0     1
SMALL
USER_CHARGES
****
From 3DB ct
@<TRIPOS>ATOM
      1 C          26.382000   22.070000   16.415000 C.2       1 <1>         0.102400 
      2 C          25.495000   21.496000   17.253000 C.2       1 <1>        -0.228600 
      3 C          26.179000   20.946000   18.475000 C.3       1 <1>        -0.057900 
      4 H          25.869000   19.929000   18.733000 H         1 <1>         0.046800 
      5 H          25.995000   21.599000   19.336000 H         1 <1>         0.073600 
      6 C          27.652000   20.965000   18.078000 C.3       1 <1>        -0.074200 
      7 H          27.938000   19.986000   17.670000 H         1 <1>         0.055200 
      8 H          28.308000   21.166000   18.930000 H         1 <1>         0.033800 
      9 C          27.770000   22.030000   16.994000 C.3       1 <1>        -0.131400 
     10 H          28.037000   23.000000   17.427000 H         1 <1>         0.090800 
     11 H          28.528000   21.746000   16.256000 H         1 <1>         0.059600 
     12 C          24.038000   21.385000   17.118000 C.ar      1 <1>         0.314300 
     13 C          23.330000   22.262000   16.282000 C.ar      1 <1>        -0.285900 
     14 H          23.855000   23.033000   15.719000 H         1 <1>         0.168900 
     15 C          21.940000   22.170000   16.161000 C.ar      1 <1>         0.069600 
     16 H          21.410000   22.858000   15.506000 H         1 <1>         0.175400 
     17 C          21.246000   21.202000   16.890000 C.ar      1 <1>        -0.603800 
     18 C          21.934000   20.321000   17.727000 C.ar      1 <1>         0.046900 
     19 H          21.403000   19.559000   18.294000 H         1 <1>         0.177400 
     20 C          23.325000   20.419000   17.842000 C.ar      1 <1>        -0.328500 
     21 H          23.844000   19.720000   18.495000 H         1 <1>         0.216400 
     22 S          19.488000   21.071000   16.710000 S.o2      1 <1>         2.436400 
     23 O          18.933000   22.380000   16.414000 O.2       1 <1>        -0.994800 
     24 O          18.958000   20.275000   17.803000 O.2       1 <1>        -0.994700 
     25 N          19.344000   20.156000   15.313000 N.pl3     1 <1>        -1.309600 
     26 H          18.867000   20.682000   14.576000 H         1 <1>         0.483500 
     27 H          18.874000   19.267000   15.501000 H         1 <1>         0.486700 
     28 C          26.153000   22.699000   15.108000 C.ar      1 <1>        -0.084200 
     29 C          26.418000   24.064000   14.921000 C.ar      1 <1>        -0.063600 
     30 H          26.770000   24.681000   15.747000 H         1 <1>         0.152700 
     31 C          26.219000   24.666000   13.675000 C.ar      1 <1>        -0.397300 
     32 H          26.418000   25.725000   13.537000 H         1 <1>         0.228500 
     33 C          25.763000   23.901000   12.610000 C.ar      1 <1>         0.584200 
     34 C          25.506000   22.546000   12.765000 C.ar      1 <1>        -0.410700 
     35 H          25.157000   21.959000   11.921000 H         1 <1>         0.231000 
     36 C          25.705000   21.945000   14.011000 C.ar      1 <1>        -0.051000 
     37 H          25.514000   20.878000   14.113000 H         1 <1>         0.152100 
     38 F          25.574000   24.477000   11.415000 F         1 <1>        -0.370100 
@<TRIPOS>BOND
     1    1    2 2    
     2    2    3 1    
     3    3    4 1    
     4    3    5 1    
     5    3    6 1    
     6    6    7 1    
     7    6    8 1    
     8    6    9 1    
     9    9   10 1    
    10    9   11 1    
    11    9    1 1    
    12    2   12 1    
    13   12   13 ar   
    14   13   14 1    
    15   13   15 ar   
    16   15   16 1    
    17   15   17 ar   
    18   17   18 ar   
    19   18   19 1    
    20   18   20 ar   
    21   20   21 1    
    22   20   12 ar   
    23   17   22 1    
    24   22   23 2    
    25   22   24 2    
    26   22   25 1    
    27   25   26 1    
    28   25   27 1    
    29    1   28 1    
    30   28   29 ar   
    31   29   30 1    
    32   29   31 ar   
    33   31   32 1    
    34   31   33 ar   
    35   33   34 ar   
    36   34   35 1    
    37   34   36 ar   
    38   36   37 1    
    39   36   28 ar   
    40   33   38 1    
@<TRIPOS>SUBSTRUCTURE
     1 ****        1 TEMP              0 ****  ****    0 ROOT 
@<TRIPOS>SET
UNITY_3DHIT     STATIC     ATOMS    <user>   **** Atoms matching 3D or FLEX Search
0
@<TRIPOS>UNITY_BOND_ATTR
1 1
S I
