#	Name:			6-8b
#	Creating user name:	jeff
#	Creation time:		Fri Dec 13 09:50:16 2002

#	Modifying user name:	jeff
#	Modification time:	Fri Dec 13 09:50:18 2002

@<TRIPOS>MOLECULE
6-8b
   38    40     1     0     1
SMALL
USER_CHARGES
****
From 3DB ct
@<TRIPOS>ATOM
      1 C          26.384000   22.070000   16.416000 C.2       1 <1>         0.178000 
      2 C          25.497000   21.497000   17.254000 C.2       1 <1>        -0.262700 
      3 C          26.181000   20.945000   18.475000 C.3       1 <1>        -0.079300 
      4 H          25.869000   19.928000   18.732000 H         1 <1>         0.056100 
      5 H          25.998000   21.598000   19.337000 H         1 <1>         0.082300 
      6 C          27.653000   20.962000   18.077000 C.3       1 <1>        -0.060400 
      7 H          27.937000   19.983000   17.667000 H         1 <1>         0.051100 
      8 H          28.311000   21.161000   18.928000 H         1 <1>         0.037300 
      9 C          27.772000   22.028000   16.993000 C.3       1 <1>        -0.160300 
     10 H          28.041000   22.997000   17.427000 H         1 <1>         0.093100 
     11 H          28.529000   21.744000   16.255000 H         1 <1>         0.070400 
     12 C          24.040000   21.388000   17.118000 C.ar      1 <1>         0.353600 
     13 C          23.333000   22.265000   16.281000 C.ar      1 <1>        -0.304500 
     14 H          23.858000   23.036000   15.719000 H         1 <1>         0.175200 
     15 C          21.943000   22.172000   16.158000 C.ar      1 <1>         0.076500 
     16 H          21.414000   22.860000   15.502000 H         1 <1>         0.175200 
     17 C          21.249000   21.203000   16.886000 C.ar      1 <1>        -0.605700 
     18 C          21.936000   20.323000   17.724000 C.ar      1 <1>         0.049200 
     19 H          21.405000   19.561000   18.291000 H         1 <1>         0.178900 
     20 C          23.326000   20.422000   17.841000 C.ar      1 <1>        -0.342900 
     21 H          23.846000   19.722000   18.495000 H         1 <1>         0.220100 
     22 S          19.491000   21.073000   16.704000 S.o2      1 <1>         2.443100 
     23 O          18.936000   22.382000   16.409000 O.2       1 <1>        -0.993900 
     24 O          18.961000   20.277000   17.797000 O.2       1 <1>        -0.995400 
     25 N          19.349000   20.159000   15.307000 N.pl3     1 <1>        -1.311600 
     26 H          18.873000   20.685000   14.570000 H         1 <1>         0.484500 
     27 H          18.878000   19.270000   15.495000 H         1 <1>         0.487200 
     28 C          26.152000   22.701000   15.110000 C.ar      1 <1>        -0.081000 
     29 C          26.417000   24.066000   14.925000 C.ar      1 <1>        -0.294700 
     30 H          26.772000   24.687000   15.742000 H         1 <1>         0.229600 
     31 C          26.208000   24.654000   13.681000 C.ar      1 <1>         0.329000 
     32 C          25.747000   23.901000   12.610000 C.ar      1 <1>         0.387300 
     33 C          25.492000   22.546000   12.766000 C.ar      1 <1>        -0.347200 
     34 H          25.138000   21.957000   11.925000 H         1 <1>         0.245900 
     35 C          25.698000   21.947000   14.013000 C.ar      1 <1>        -0.099000 
     36 H          25.508000   20.880000   14.117000 H         1 <1>         0.164500 
     37 F          25.552000   24.479000   11.416000 F         1 <1>        -0.318700 
     38 F          26.457000   25.963000   13.521000 F         1 <1>        -0.310500 
@<TRIPOS>BOND
     1    1    2 2    
     2    2    3 1    
     3    3    4 1    
     4    3    5 1    
     5    3    6 1    
     6    6    7 1    
     7    6    8 1    
     8    6    9 1    
     9    9   10 1    
    10    9   11 1    
    11    9    1 1    
    12    2   12 1    
    13   12   13 ar   
    14   13   14 1    
    15   13   15 ar   
    16   15   16 1    
    17   15   17 ar   
    18   17   18 ar   
    19   18   19 1    
    20   18   20 ar   
    21   20   21 1    
    22   20   12 ar   
    23   17   22 1    
    24   22   23 2    
    25   22   24 2    
    26   22   25 1    
    27   25   26 1    
    28   25   27 1    
    29    1   28 1    
    30   28   29 ar   
    31   29   30 1    
    32   29   31 ar   
    33   31   32 ar   
    34   32   33 ar   
    35   33   34 1    
    36   33   35 ar   
    37   35   36 1    
    38   35   28 ar   
    39   32   37 1    
    40   31   38 1    
@<TRIPOS>SUBSTRUCTURE
     1 ****        1 TEMP              0 ****  ****    0 ROOT 
@<TRIPOS>SET
UNITY_3DHIT     STATIC     ATOMS    <user>   **** Atoms matching 3D or FLEX Search
0
@<TRIPOS>UNITY_BOND_ATTR
1 1
S I
