#	Name:			6-8h
#	Creating user name:	jeff
#	Creation time:		Fri Dec 13 09:50:27 2002

#	Modifying user name:	jeff
#	Modification time:	Fri Dec 13 09:50:29 2002

@<TRIPOS>MOLECULE
6-8h
   42    44     1     0     1
SMALL
USER_CHARGES
****
From 3DB ct
@<TRIPOS>ATOM
      1 C          26.381000   22.071000   16.416000 C.2       1 <1>         0.177700 
      2 C          25.494000   21.495000   17.253000 C.2       1 <1>        -0.286900 
      3 C          26.180000   20.942000   18.474000 C.3       1 <1>        -0.069300 
      4 H          25.868000   19.926000   18.730000 H         1 <1>         0.047800 
      5 H          25.998000   21.594000   19.336000 H         1 <1>         0.073100 
      6 C          27.651000   20.959000   18.073000 C.3       1 <1>        -0.042600 
      7 H          27.933000   19.982000   17.659000 H         1 <1>         0.048600 
      8 H          28.310000   21.154000   18.925000 H         1 <1>         0.024700 
      9 C          27.769000   22.029000   16.994000 C.3       1 <1>        -0.171400 
     10 H          28.036000   22.998000   17.431000 H         1 <1>         0.100500 
     11 H          28.527000   21.750000   16.256000 H         1 <1>         0.066800 
     12 C          24.037000   21.385000   17.119000 C.ar      1 <1>         0.364600 
     13 C          23.329000   22.262000   16.283000 C.ar      1 <1>        -0.295200 
     14 H          23.855000   23.032000   15.720000 H         1 <1>         0.173800 
     15 C          21.939000   22.170000   16.162000 C.ar      1 <1>         0.061900 
     16 H          21.410000   22.858000   15.507000 H         1 <1>         0.175600 
     17 C          21.245000   21.201000   16.891000 C.ar      1 <1>        -0.605500 
     18 C          21.933000   20.321000   17.729000 C.ar      1 <1>         0.054900 
     19 H          21.403000   19.558000   18.295000 H         1 <1>         0.171700 
     20 C          23.324000   20.419000   17.844000 C.ar      1 <1>        -0.336600 
     21 H          23.844000   19.720000   18.497000 H         1 <1>         0.213800 
     22 S          19.488000   21.071000   16.709000 S.o2      1 <1>         2.426200 
     23 O          18.933000   22.380000   16.413000 O.2       1 <1>        -0.992800 
     24 O          18.958000   20.275000   17.802000 O.2       1 <1>        -0.993800 
     25 N          19.345000   20.157000   15.312000 N.pl3     1 <1>        -1.313400 
     26 H          18.866000   20.682000   14.576000 H         1 <1>         0.485200 
     27 H          18.876000   19.267000   15.500000 H         1 <1>         0.488800 
     28 C          26.153000   22.701000   15.109000 C.ar      1 <1>        -0.214900 
     29 C          26.416000   24.062000   14.920000 C.ar      1 <1>        -0.051400 
     30 H          26.765000   24.682000   15.744000 H         1 <1>         0.143100 
     31 C          26.219000   24.660000   13.670000 C.ar      1 <1>        -0.364600 
     32 H          26.423000   25.723000   13.551000 H         1 <1>         0.175200 
     33 C          25.765000   23.910000   12.584000 C.ar      1 <1>         0.508800 
     34 C          25.512000   22.551000   12.759000 C.ar      1 <1>        -0.471300 
     35 H          25.164000   21.920000   11.946000 H         1 <1>         0.220300 
     36 C          25.710000   21.953000   14.011000 C.ar      1 <1>         0.078100 
     37 H          25.520000   20.885000   14.111000 H         1 <1>         0.115900 
     38 O          25.615000   24.613000   11.421000 O.3       1 <1>        -0.445400 
     39 C          25.932000   26.004000   11.468000 C.3       1 <1>         0.113700 
     40 H          25.765000   26.416000   10.469000 H         1 <1>         0.078900 
     41 H          26.986000   26.158000   11.722000 H         1 <1>         0.033000 
     42 H          25.273000   26.534000   12.163000 H         1 <1>         0.032700 
@<TRIPOS>BOND
     1    1    2 2    
     2    2    3 1    
     3    3    4 1    
     4    3    5 1    
     5    3    6 1    
     6    6    7 1    
     7    6    8 1    
     8    6    9 1    
     9    9   10 1    
    10    9   11 1    
    11    9    1 1    
    12    2   12 1    
    13   12   13 ar   
    14   13   14 1    
    15   13   15 ar   
    16   15   16 1    
    17   15   17 ar   
    18   17   18 ar   
    19   18   19 1    
    20   18   20 ar   
    21   20   21 1    
    22   20   12 ar   
    23   17   22 1    
    24   22   23 2    
    25   22   24 2    
    26   22   25 1    
    27   25   26 1    
    28   25   27 1    
    29    1   28 1    
    30   28   29 ar   
    31   29   30 1    
    32   29   31 ar   
    33   31   32 1    
    34   31   33 ar   
    35   33   34 ar   
    36   34   35 1    
    37   34   36 ar   
    38   36   37 1    
    39   36   28 ar   
    40   33   38 1    
    41   38   39 1    
    42   39   40 1    
    43   39   41 1    
    44   39   42 1    
@<TRIPOS>SUBSTRUCTURE
     1 ****        1 TEMP              0 ****  ****    0 ROOT 
@<TRIPOS>SET
UNITY_3DHIT     STATIC     ATOMS    <user>   **** Atoms matching 3D or FLEX Search
0
@<TRIPOS>UNITY_BOND_ATTR
1 1
S I
