#	Name:			6-8i
#	Creating user name:	jeff
#	Creation time:		Fri Dec 13 09:50:29 2002

#	Modifying user name:	jeff
#	Modification time:	Fri Dec 13 09:50:31 2002

@<TRIPOS>MOLECULE
6-8i
   42    44     1     0     1
SMALL
USER_CHARGES
****
From 3DB ct
@<TRIPOS>ATOM
      1 C          26.383000   22.071000   16.416000 C.2       1 <1>         0.245300 
      2 C          25.495000   21.497000   17.253000 C.2       1 <1>        -0.322800 
      3 C          26.177000   20.942000   18.473000 C.3       1 <1>        -0.057500 
      4 H          25.865000   19.925000   18.727000 H         1 <1>         0.050000 
      5 H          25.994000   21.592000   19.336000 H         1 <1>         0.075900 
      6 C          27.650000   20.958000   18.076000 C.3       1 <1>        -0.068600 
      7 H          27.934000   19.981000   17.664000 H         1 <1>         0.052100 
      8 H          28.307000   21.155000   18.929000 H         1 <1>         0.034900 
      9 C          27.770000   22.027000   16.996000 C.3       1 <1>        -0.163200 
     10 H          28.038000   22.996000   17.433000 H         1 <1>         0.094800 
     11 H          28.529000   21.746000   16.258000 H         1 <1>         0.069000 
     12 C          24.038000   21.388000   17.116000 C.ar      1 <1>         0.383700 
     13 C          23.332000   22.265000   16.278000 C.ar      1 <1>        -0.297100 
     14 H          23.859000   23.034000   15.715000 H         1 <1>         0.177600 
     15 C          21.942000   22.175000   16.155000 C.ar      1 <1>         0.057900 
     16 H          21.418000   22.865000   15.498000 H         1 <1>         0.178900 
     17 C          21.246000   21.209000   16.884000 C.ar      1 <1>        -0.608100 
     18 C          21.933000   20.327000   17.722000 C.ar      1 <1>         0.071600 
     19 H          21.397000   19.568000   18.288000 H         1 <1>         0.169000 
     20 C          23.323000   20.423000   17.840000 C.ar      1 <1>        -0.358800 
     21 H          23.842000   19.724000   18.494000 H         1 <1>         0.222000 
     22 S          19.489000   21.062000   16.717000 S.o2      1 <1>         2.425900 
     23 O          18.929000   22.372000   16.431000 O.2       1 <1>        -0.991300 
     24 O          18.964000   20.259000   17.808000 O.2       1 <1>        -0.992400 
     25 N          19.343000   20.144000   15.324000 N.pl3     1 <1>        -1.308900 
     26 H          18.853000   20.662000   14.590000 H         1 <1>         0.485000 
     27 H          18.886000   19.249000   15.519000 H         1 <1>         0.486700 
     28 C          26.154000   22.703000   15.110000 C.ar      1 <1>        -0.224800 
     29 C          26.418000   24.063000   14.924000 C.ar      1 <1>        -0.257200 
     30 H          26.769000   24.688000   15.741000 H         1 <1>         0.215200 
     31 C          26.214000   24.651000   13.677000 C.ar      1 <1>         0.343200 
     32 C          25.757000   23.912000   12.582000 C.ar      1 <1>         0.284400 
     33 C          25.506000   22.552000   12.758000 C.ar      1 <1>        -0.396100 
     34 H          25.156000   21.919000   11.947000 H         1 <1>         0.226500 
     35 C          25.708000   21.955000   14.011000 C.ar      1 <1>         0.033000 
     36 H          25.518000   20.887000   14.112000 H         1 <1>         0.132500 
     37 O          25.600000   24.610000   11.415000 O.3       1 <1>        -0.376900 
     38 C          25.915000   26.001000   11.452000 C.3       1 <1>         0.047700 
     39 H          25.743000   26.407000   10.451000 H         1 <1>         0.082700 
     40 H          26.969000   26.160000   11.701000 H         1 <1>         0.071400 
     41 H          25.257000   26.535000   12.146000 H         1 <1>         0.068400 
     42 F          26.469000   25.962000   13.537000 F         1 <1>        -0.361800 
@<TRIPOS>BOND
     1    1    2 2    
     2    2    3 1    
     3    3    4 1    
     4    3    5 1    
     5    3    6 1    
     6    6    7 1    
     7    6    8 1    
     8    6    9 1    
     9    9   10 1    
    10    9   11 1    
    11    9    1 1    
    12    2   12 1    
    13   12   13 ar   
    14   13   14 1    
    15   13   15 ar   
    16   15   16 1    
    17   15   17 ar   
    18   17   18 ar   
    19   18   19 1    
    20   18   20 ar   
    21   20   21 1    
    22   20   12 ar   
    23   17   22 1    
    24   22   23 2    
    25   22   24 2    
    26   22   25 1    
    27   25   26 1    
    28   25   27 1    
    29    1   28 1    
    30   28   29 ar   
    31   29   30 1    
    32   29   31 ar   
    33   31   32 ar   
    34   32   33 ar   
    35   33   34 1    
    36   33   35 ar   
    37   35   36 1    
    38   35   28 ar   
    39   32   37 1    
    40   37   38 1    
    41   38   39 1    
    42   38   40 1    
    43   38   41 1    
    44   31   42 1    
@<TRIPOS>SUBSTRUCTURE
     1 ****        1 TEMP              0 ****  ****    0 ROOT 
@<TRIPOS>SET
UNITY_3DHIT     STATIC     ATOMS    <user>   **** Atoms matching 3D or FLEX Search
0
@<TRIPOS>UNITY_BOND_ATTR
1 1
S I
