#	Name:			6-8l
#	Creating user name:	jeff
#	Creation time:		Fri Dec 13 09:50:36 2002

#	Modifying user name:	jeff
#	Modification time:	Fri Dec 13 09:50:38 2002

@<TRIPOS>MOLECULE
6-8l
   41    44     1     0     1
SMALL
USER_CHARGES
****
From 3DB ct
@<TRIPOS>ATOM
      1 C          26.384000   22.075000   16.416000 C.2       1 <1>         0.222300 
      2 C          25.497000   21.497000   17.251000 C.2       1 <1>        -0.302700 
      3 C          26.182000   20.941000   18.470000 C.3       1 <1>        -0.065900 
      4 H          25.873000   19.923000   18.722000 H         1 <1>         0.052900 
      5 H          25.998000   21.589000   19.335000 H         1 <1>         0.076700 
      6 C          27.654000   20.962000   18.073000 C.3       1 <1>        -0.070100 
      7 H          27.940000   19.986000   17.658000 H         1 <1>         0.052300 
      8 H          28.311000   21.159000   18.926000 H         1 <1>         0.035400 
      9 C          27.772000   22.034000   16.995000 C.3       1 <1>        -0.163600 
     10 H          28.038000   23.002000   17.433000 H         1 <1>         0.095500 
     11 H          28.530000   21.756000   16.256000 H         1 <1>         0.070500 
     12 C          24.040000   21.386000   17.115000 C.ar      1 <1>         0.364600 
     13 C          23.332000   22.264000   16.279000 C.ar      1 <1>        -0.288400 
     14 H          23.858000   23.035000   15.716000 H         1 <1>         0.175000 
     15 C          21.942000   22.172000   16.158000 C.ar      1 <1>         0.062200 
     16 H          21.414000   22.861000   15.503000 H         1 <1>         0.176400 
     17 C          21.247000   21.205000   16.887000 C.ar      1 <1>        -0.611400 
     18 C          21.935000   20.323000   17.723000 C.ar      1 <1>         0.062100 
     19 H          21.404000   19.561000   18.290000 H         1 <1>         0.171600 
     20 C          23.326000   20.421000   17.838000 C.ar      1 <1>        -0.345800 
     21 H          23.845000   19.720000   18.491000 H         1 <1>         0.218200 
     22 S          19.490000   21.074000   16.708000 S.o2      1 <1>         2.432300 
     23 O          18.934000   22.383000   16.414000 O.2       1 <1>        -0.992800 
     24 O          18.960000   20.278000   17.801000 O.2       1 <1>        -0.994300 
     25 N          19.345000   20.160000   15.312000 N.pl3     1 <1>        -1.312000 
     26 H          18.868000   20.686000   14.575000 H         1 <1>         0.484500 
     27 H          18.876000   19.270000   15.500000 H         1 <1>         0.488100 
     28 C          26.154000   22.711000   15.112000 C.ar      1 <1>        -0.137000 
     29 C          26.419000   24.078000   14.937000 C.ar      1 <1>        -0.286300 
     30 H          26.770000   24.700000   15.755000 H         1 <1>         0.222000 
     31 C          26.206000   24.633000   13.691000 C.ar      1 <1>         0.241200 
     32 C          25.755000   23.885000   12.630000 C.ar      1 <1>         0.256300 
     33 C          25.495000   22.539000   12.755000 C.ar      1 <1>        -0.349800 
     34 H          25.146000   21.950000   11.913000 H         1 <1>         0.243100 
     35 C          25.702000   21.951000   14.008000 C.ar      1 <1>        -0.074200 
     36 H          25.515000   20.883000   14.118000 H         1 <1>         0.147600 
     37 O          25.614000   24.621000   11.496000 O.3       1 <1>        -0.408100 
     38 C          26.026000   25.928000   11.962000 C.3       1 <1>         0.277900 
     39 H          25.196000   26.630000   11.818000 H         1 <1>         0.092500 
     40 H          26.882000   26.260000   11.364000 H         1 <1>         0.094800 
     41 O          26.405000   25.937000   13.359000 O.3       1 <1>        -0.413400 
@<TRIPOS>BOND
     1    1    2 2    
     2    2    3 1    
     3    3    4 1    
     4    3    5 1    
     5    3    6 1    
     6    6    7 1    
     7    6    8 1    
     8    6    9 1    
     9    9   10 1    
    10    9   11 1    
    11    9    1 1    
    12    2   12 1    
    13   12   13 ar   
    14   13   14 1    
    15   13   15 ar   
    16   15   16 1    
    17   15   17 ar   
    18   17   18 ar   
    19   18   19 1    
    20   18   20 ar   
    21   20   21 1    
    22   20   12 ar   
    23   17   22 1    
    24   22   23 2    
    25   22   24 2    
    26   22   25 1    
    27   25   26 1    
    28   25   27 1    
    29    1   28 1    
    30   28   29 ar   
    31   29   30 1    
    32   29   31 ar   
    33   31   32 ar   
    34   32   33 ar   
    35   33   34 1    
    36   33   35 ar   
    37   35   36 1    
    38   35   28 ar   
    39   32   37 1    
    40   37   38 1    
    41   38   39 1    
    42   38   40 1    
    43   38   41 1    
    44   41   31 1    
@<TRIPOS>SUBSTRUCTURE
     1 ****        1 TEMP              0 ****  ****    0 ROOT 
@<TRIPOS>SET
UNITY_3DHIT     STATIC     ATOMS    <user>   **** Atoms matching 3D or FLEX Search
0
@<TRIPOS>UNITY_BOND_ATTR
1 1
S I
