#	Name:			6-8m
#	Creating user name:	jeff
#	Creation time:		Fri Dec 13 09:50:38 2002

#	Modifying user name:	jeff
#	Modification time:	Fri Dec 13 09:50:41 2002

@<TRIPOS>MOLECULE
6-8m
   46    48     1     0     1
SMALL
USER_CHARGES
****
From 3DB ct
@<TRIPOS>ATOM
      1 C          26.382000   22.071000   16.416000 C.2       1 <1>         0.076100 
      2 C          25.495000   21.497000   17.254000 C.2       1 <1>        -0.170300 
      3 C          26.180000   20.942000   18.474000 C.3       1 <1>        -0.068900 
      4 H          25.866000   19.927000   18.731000 H         1 <1>         0.046800 
      5 H          26.002000   21.595000   19.336000 H         1 <1>         0.073800 
      6 C          27.651000   20.954000   18.072000 C.3       1 <1>        -0.070000 
      7 H          27.929000   19.976000   17.656000 H         1 <1>         0.058300 
      8 H          28.312000   21.146000   18.922000 H         1 <1>         0.032900 
      9 C          27.771000   22.025000   16.993000 C.3       1 <1>        -0.176100 
     10 H          28.040000   22.992000   17.432000 H         1 <1>         0.118900 
     11 H          28.528000   21.744000   16.254000 H         1 <1>         0.069300 
     12 C          24.037000   21.387000   17.119000 C.ar      1 <1>         0.248500 
     13 C          23.329000   22.263000   16.282000 C.ar      1 <1>        -0.224600 
     14 H          23.853000   23.034000   15.719000 H         1 <1>         0.143100 
     15 C          21.939000   22.170000   16.161000 C.ar      1 <1>         0.044800 
     16 H          21.409000   22.857000   15.505000 H         1 <1>         0.182100 
     17 C          21.245000   21.201000   16.890000 C.ar      1 <1>        -0.598700 
     18 C          21.933000   20.322000   17.727000 C.ar      1 <1>         0.035100 
     19 H          21.404000   19.559000   18.294000 H         1 <1>         0.178200 
     20 C          23.324000   20.422000   17.843000 C.ar      1 <1>        -0.302300 
     21 H          23.844000   19.722000   18.497000 H         1 <1>         0.210400 
     22 S          19.488000   21.069000   16.709000 S.o2      1 <1>         2.442100 
     23 O          18.931000   22.377000   16.413000 O.2       1 <1>        -0.997900 
     24 O          18.958000   20.274000   17.803000 O.2       1 <1>        -0.996800 
     25 N          19.345000   20.154000   15.313000 N.pl3     1 <1>        -1.307200 
     26 H          18.869000   20.679000   14.575000 H         1 <1>         0.481500 
     27 H          18.875000   19.265000   15.501000 H         1 <1>         0.484300 
     28 C          26.153000   22.701000   15.110000 C.ar      1 <1>        -0.119700 
     29 C          26.418000   24.061000   14.919000 C.ar      1 <1>         0.223700 
     30 H          26.777000   24.668000   15.747000 H         1 <1>         0.067300 
     31 C          26.217000   24.661000   13.668000 C.ar      1 <1>        -0.747700 
     32 C          25.752000   23.921000   12.559000 C.ar      1 <1>         0.914000 
     33 C          25.509000   22.554000   12.764000 C.ar      1 <1>        -0.469000 
     34 H          25.140000   21.928000   11.954000 H         1 <1>         0.212800 
     35 C          25.709000   21.953000   14.015000 C.ar      1 <1>        -0.053600 
     36 H          25.515000   20.886000   14.115000 H         1 <1>         0.150600 
     37 N          25.522000   24.513000   11.311000 N.pl3     1 <1>        -0.779700 
     38 C          26.673000   24.796000   10.454000 C.3       1 <1>         0.063500 
     39 H          26.388000   25.505000    9.668000 H         1 <1>         0.088100 
     40 H          27.044000   23.887000    9.969000 H         1 <1>         0.031400 
     41 H          27.486000   25.257000   11.026000 H         1 <1>         0.051700 
     42 C          24.303000   24.071000   10.629000 C.3       1 <1>        -0.024500 
     43 H          24.089000   24.725000    9.777000 H         1 <1>         0.118400 
     44 H          23.427000   24.096000   11.285000 H         1 <1>         0.064800 
     45 H          24.424000   23.049000   10.253000 H         1 <1>         0.057600 
     46 Cl         26.621000   26.343000   13.525000 Cl        1 <1>         0.136900 
@<TRIPOS>BOND
     1    1    2 2    
     2    2    3 1    
     3    3    4 1    
     4    3    5 1    
     5    3    6 1    
     6    6    7 1    
     7    6    8 1    
     8    6    9 1    
     9    9   10 1    
    10    9   11 1    
    11    9    1 1    
    12    2   12 1    
    13   12   13 ar   
    14   13   14 1    
    15   13   15 ar   
    16   15   16 1    
    17   15   17 ar   
    18   17   18 ar   
    19   18   19 1    
    20   18   20 ar   
    21   20   21 1    
    22   20   12 ar   
    23   17   22 1    
    24   22   23 2    
    25   22   24 2    
    26   22   25 1    
    27   25   26 1    
    28   25   27 1    
    29    1   28 1    
    30   28   29 ar   
    31   29   30 1    
    32   29   31 ar   
    33   31   32 ar   
    34   32   33 ar   
    35   33   34 1    
    36   33   35 ar   
    37   35   36 1    
    38   35   28 ar   
    39   32   37 1    
    40   37   38 1    
    41   38   39 1    
    42   38   40 1    
    43   38   41 1    
    44   37   42 1    
    45   42   43 1    
    46   42   44 1    
    47   42   45 1    
    48   31   46 1    
@<TRIPOS>SUBSTRUCTURE
     1 ****        1 TEMP              0 ****  ****    0 ROOT 
@<TRIPOS>SET
UNITY_3DHIT     STATIC     ATOMS    <user>   **** Atoms matching 3D or FLEX Search
0
@<TRIPOS>UNITY_BOND_ATTR
1 1
S I
