#	Name:			6-8o
#	Creating user name:	jeff
#	Creation time:		Fri Dec 13 09:50:41 2002

#	Modifying user name:	jeff
#	Modification time:	Fri Dec 13 09:50:43 2002

@<TRIPOS>MOLECULE
6-8o
   41    43     1     0     1
SMALL
USER_CHARGES
****
From 3DB ct
@<TRIPOS>ATOM
      1 C          26.381000   22.071000   16.415000 C.2       1 <1>        -0.065300 
      2 C          25.493000   21.496000   17.252000 C.2       1 <1>        -0.103400 
      3 C          26.177000   20.945000   18.474000 C.3       1 <1>        -0.078800 
      4 H          25.866000   19.929000   18.732000 H         1 <1>         0.048200 
      5 H          25.996000   21.599000   19.335000 H         1 <1>         0.077200 
      6 C          27.649000   20.959000   18.074000 C.3       1 <1>        -0.042200 
      7 H          27.930000   19.982000   17.660000 H         1 <1>         0.053900 
      8 H          28.308000   21.154000   18.926000 H         1 <1>         0.029000 
      9 C          27.769000   22.030000   16.995000 C.3       1 <1>        -0.157400 
     10 H          28.035000   22.998000   17.433000 H         1 <1>         0.108600 
     11 H          28.528000   21.750000   16.258000 H         1 <1>         0.065200 
     12 C          24.036000   21.384000   17.116000 C.ar      1 <1>         0.218200 
     13 C          23.326000   22.261000   16.281000 C.ar      1 <1>        -0.234600 
     14 H          23.850000   23.031000   15.718000 H         1 <1>         0.152600 
     15 C          21.936000   22.168000   16.162000 C.ar      1 <1>         0.038500 
     16 H          21.405000   22.856000   15.508000 H         1 <1>         0.183500 
     17 C          21.243000   21.199000   16.892000 C.ar      1 <1>        -0.580700 
     18 C          21.933000   20.319000   17.728000 C.ar      1 <1>         0.037400 
     19 H          21.404000   19.556000   18.296000 H         1 <1>         0.177400 
     20 C          23.324000   20.418000   17.841000 C.ar      1 <1>        -0.290500 
     21 H          23.844000   19.718000   18.493000 H         1 <1>         0.209300 
     22 S          19.485000   21.070000   16.716000 S.o2      1 <1>         2.434900 
     23 O          18.930000   22.380000   16.423000 O.2       1 <1>        -0.992200 
     24 O          18.958000   20.275000   17.811000 O.2       1 <1>        -0.993000 
     25 N          19.337000   20.157000   15.319000 N.pl3     1 <1>        -1.311200 
     26 H          18.859000   20.684000   14.584000 H         1 <1>         0.486000 
     27 H          18.866000   19.268000   15.508000 H         1 <1>         0.487700 
     28 C          26.155000   22.700000   15.107000 C.ar      1 <1>         0.247000 
     29 C          26.417000   24.063000   14.919000 C.ar      1 <1>        -0.253400 
     30 H          26.762000   24.681000   15.747000 H         1 <1>         0.163300 
     31 C          26.225000   24.666000   13.671000 C.ar      1 <1>         0.030800 
     32 H          26.426000   25.731000   13.560000 H         1 <1>         0.157400 
     33 C          25.780000   23.913000   12.575000 C.ar      1 <1>        -0.507100 
     34 C          25.520000   22.549000   12.760000 C.ar      1 <1>         0.004300 
     35 H          25.168000   21.939000   11.929000 H         1 <1>         0.163500 
     36 C          25.713000   21.949000   14.010000 C.ar      1 <1>        -0.249000 
     37 H          25.520000   20.882000   14.112000 H         1 <1>         0.167100 
     38 C          25.552000   24.566000   11.235000 C.3       1 <1>         1.516700 
     39 F          25.737000   23.720000   10.175000 F         1 <1>        -0.465600 
     40 F          26.380000   25.628000   10.994000 F         1 <1>        -0.466100 
     41 F          24.282000   25.054000   11.093000 F         1 <1>        -0.467000 
@<TRIPOS>BOND
     1    1    2 2    
     2    2    3 1    
     3    3    4 1    
     4    3    5 1    
     5    3    6 1    
     6    6    7 1    
     7    6    8 1    
     8    6    9 1    
     9    9   10 1    
    10    9   11 1    
    11    9    1 1    
    12    2   12 1    
    13   12   13 ar   
    14   13   14 1    
    15   13   15 ar   
    16   15   16 1    
    17   15   17 ar   
    18   17   18 ar   
    19   18   19 1    
    20   18   20 ar   
    21   20   21 1    
    22   20   12 ar   
    23   17   22 1    
    24   22   23 2    
    25   22   24 2    
    26   22   25 1    
    27   25   26 1    
    28   25   27 1    
    29    1   28 1    
    30   28   29 ar   
    31   29   30 1    
    32   29   31 ar   
    33   31   32 1    
    34   31   33 ar   
    35   33   34 ar   
    36   34   35 1    
    37   34   36 ar   
    38   36   37 1    
    39   36   28 ar   
    40   33   38 1    
    41   38   39 1    
    42   38   40 1    
    43   38   41 1    
@<TRIPOS>SUBSTRUCTURE
     1 ****        1 TEMP              0 ****  ****    0 ROOT 
@<TRIPOS>SET
UNITY_3DHIT     STATIC     ATOMS    <user>   **** Atoms matching 3D or FLEX Search
0
@<TRIPOS>UNITY_BOND_ATTR
1 1
S I
