#	Name:			6-8p
#	Creating user name:	jeff
#	Creation time:		Fri Dec 13 09:50:43 2002

#	Modifying user name:	jeff
#	Modification time:	Fri Dec 13 09:50:45 2002

@<TRIPOS>MOLECULE
6-8p
   41    43     1     0     1
SMALL
USER_CHARGES
****
From 3DB ct
@<TRIPOS>ATOM
      1 C          26.382000   22.071000   16.416000 C.2       1 <1>         0.058800 
      2 C          25.495000   21.497000   17.253000 C.2       1 <1>        -0.190300 
      3 C          26.180000   20.944000   18.474000 C.3       1 <1>        -0.087900 
      4 H          25.868000   19.927000   18.730000 H         1 <1>         0.058600 
      5 H          25.998000   21.596000   19.336000 H         1 <1>         0.084700 
      6 C          27.651000   20.959000   18.074000 C.3       1 <1>        -0.047000 
      7 H          27.933000   19.982000   17.660000 H         1 <1>         0.052600 
      8 H          28.310000   21.154000   18.926000 H         1 <1>         0.034600 
      9 C          27.770000   22.028000   16.994000 C.3       1 <1>        -0.152500 
     10 H          28.038000   22.997000   17.431000 H         1 <1>         0.099600 
     11 H          28.528000   21.748000   16.256000 H         1 <1>         0.066600 
     12 C          24.038000   21.386000   17.117000 C.ar      1 <1>         0.292600 
     13 C          23.330000   22.263000   16.282000 C.ar      1 <1>        -0.262700 
     14 H          23.855000   23.034000   15.719000 H         1 <1>         0.161500 
     15 C          21.940000   22.170000   16.160000 C.ar      1 <1>         0.052000 
     16 H          21.410000   22.858000   15.505000 H         1 <1>         0.182700 
     17 C          21.246000   21.201000   16.889000 C.ar      1 <1>        -0.591600 
     18 C          21.934000   20.321000   17.726000 C.ar      1 <1>         0.049300 
     19 H          21.404000   19.559000   18.293000 H         1 <1>         0.176500 
     20 C          23.325000   20.420000   17.842000 C.ar      1 <1>        -0.314500 
     21 H          23.845000   19.720000   18.494000 H         1 <1>         0.214300 
     22 S          19.489000   21.072000   16.709000 S.o2      1 <1>         2.429900 
     23 O          18.933000   22.381000   16.414000 O.2       1 <1>        -0.988900 
     24 O          18.959000   20.276000   17.802000 O.2       1 <1>        -0.989600 
     25 N          19.344000   20.159000   15.312000 N.pl3     1 <1>        -1.308000 
     26 H          18.867000   20.685000   14.575000 H         1 <1>         0.486000 
     27 H          18.873000   19.270000   15.499000 H         1 <1>         0.487500 
     28 C          26.153000   22.702000   15.110000 C.ar      1 <1>         0.188500 
     29 C          26.417000   24.063000   14.923000 C.ar      1 <1>        -0.424200 
     30 H          26.768000   24.686000   15.741000 H         1 <1>         0.224400 
     31 C          26.215000   24.655000   13.675000 C.ar      1 <1>         0.691100 
     32 C          25.759000   23.919000   12.585000 C.ar      1 <1>        -0.722300 
     33 C          25.507000   22.553000   12.762000 C.ar      1 <1>         0.100300 
     34 H          25.157000   21.943000   11.931000 H         1 <1>         0.173000 
     35 C          25.706000   21.953000   14.011000 C.ar      1 <1>        -0.295800 
     36 H          25.516000   20.884000   14.112000 H         1 <1>         0.176700 
     37 C          25.561000   24.604000   11.269000 C.3       1 <1>         1.587100 
     38 F          25.093000   23.782000   10.279000 F         1 <1>        -0.476500 
     39 F          26.712000   25.147000   10.767000 F         1 <1>        -0.463700 
     40 F          24.666000   25.636000   11.328000 F         1 <1>        -0.465300 
     41 F          26.470000   25.964000   13.537000 F         1 <1>        -0.348300 
@<TRIPOS>BOND
     1    1    2 2    
     2    2    3 1    
     3    3    4 1    
     4    3    5 1    
     5    3    6 1    
     6    6    7 1    
     7    6    8 1    
     8    6    9 1    
     9    9   10 1    
    10    9   11 1    
    11    9    1 1    
    12    2   12 1    
    13   12   13 ar   
    14   13   14 1    
    15   13   15 ar   
    16   15   16 1    
    17   15   17 ar   
    18   17   18 ar   
    19   18   19 1    
    20   18   20 ar   
    21   20   21 1    
    22   20   12 ar   
    23   17   22 1    
    24   22   23 2    
    25   22   24 2    
    26   22   25 1    
    27   25   26 1    
    28   25   27 1    
    29    1   28 1    
    30   28   29 ar   
    31   29   30 1    
    32   29   31 ar   
    33   31   32 ar   
    34   32   33 ar   
    35   33   34 1    
    36   33   35 ar   
    37   35   36 1    
    38   35   28 ar   
    39   32   37 1    
    40   37   38 1    
    41   37   39 1    
    42   37   40 1    
    43   31   41 1    
@<TRIPOS>SUBSTRUCTURE
     1 ****        1 TEMP              0 ****  ****    0 ROOT 
@<TRIPOS>SET
UNITY_3DHIT     STATIC     ATOMS    <user>   **** Atoms matching 3D or FLEX Search
0
@<TRIPOS>UNITY_BOND_ATTR
1 1
S I
