#	Name:			6-Dup697
#	Creating user name:	jeff
#	Creation time:		Fri Dec 13 09:57:48 2002

#	Modifying user name:	jeff
#	Modification time:	Fri Dec 13 09:57:50 2002

@<TRIPOS>MOLECULE
6-Dup697
   35    37     1     0     1
SMALL
USER_CHARGES
****
From 3DB ct
@<TRIPOS>ATOM
      1 C          26.370000   22.059000   16.437000 C.ar      1 <1>        -0.379700 
      2 C          25.525000   21.455000   17.362000 C.ar      1 <1>         0.659400 
      3 C          26.264000   20.971000   18.485000 C.ar      1 <1>        -0.972900 
      4 C          27.614000   21.199000   18.393000 C.ar      1 <1>         0.021000 
      5 H          28.387000   20.936000   19.103000 H         1 <1>         0.193000 
      6 S          28.013000   22.011000   16.946000 S.3       1 <1>         0.246100 
      7 Br         25.462000   20.112000   19.969000 Br        1 <1>         0.279300 
      8 C          24.085000   21.380000   17.147000 C.ar      1 <1>        -0.106100 
      9 C          23.309000   20.471000   17.880000 C.ar      1 <1>        -0.101600 
     10 H          23.771000   19.815000   18.616000 H         1 <1>         0.145800 
     11 C          21.929000   20.398000   17.672000 C.ar      1 <1>        -0.070500 
     12 H          21.338000   19.691000   18.250000 H         1 <1>         0.177200 
     13 C          21.329000   21.230000   16.723000 C.ar      1 <1>        -0.521300 
     14 C          22.093000   22.145000   15.993000 C.ar      1 <1>         0.017000 
     15 H          21.631000   22.801000   15.258000 H         1 <1>         0.188100 
     16 C          23.472000   22.215000   16.204000 C.ar      1 <1>        -0.202500 
     17 H          24.062000   22.929000   15.631000 H         1 <1>         0.161500 
     18 S          19.569000   21.146000   16.474000 S.o2      1 <1>         2.204800 
     19 O          19.166000   22.318000   15.702000 O.2       1 <1>        -0.977300 
     20 O          18.945000   20.923000   17.774000 O.2       1 <1>        -0.970700 
     21 C          19.355000   19.699000   15.472000 C.3       1 <1>        -0.729100 
     22 H          18.288000   19.582000   15.269000 H         1 <1>         0.235400 
     23 H          19.727000   18.830000   16.017000 H         1 <1>         0.197500 
     24 H          19.899000   19.832000   14.535000 H         1 <1>         0.186800 
     25 C          26.062000   22.678000   15.143000 C.ar      1 <1>        -0.045400 
     26 C          25.536000   21.913000   14.090000 C.ar      1 <1>         0.049100 
     27 H          25.344000   20.849000   14.223000 H         1 <1>         0.127100 
     28 C          25.261000   22.504000   12.855000 C.ar      1 <1>        -0.486800 
     29 H          24.855000   21.913000   12.040000 H         1 <1>         0.246800 
     30 C          25.513000   23.858000   12.673000 C.ar      1 <1>         0.638600 
     31 C          26.035000   24.634000   13.701000 C.ar      1 <1>        -0.494600 
     32 H          26.227000   25.691000   13.540000 H         1 <1>         0.253000 
     33 C          26.311000   24.044000   14.937000 C.ar      1 <1>         0.051500 
     34 H          26.719000   24.658000   15.738000 H         1 <1>         0.146800 
     35 F          25.250000   24.425000   11.488000 F         1 <1>        -0.367400 
@<TRIPOS>BOND
     1    1    2 ar   
     2    2    3 ar   
     3    3    4 ar   
     4    4    5 1    
     5    4    6 ar   
     6    6    1 ar   
     7    3    7 1    
     8    2    8 1    
     9    8    9 ar   
    10    9   10 1    
    11    9   11 ar   
    12   11   12 1    
    13   11   13 ar   
    14   13   14 ar   
    15   14   15 1    
    16   14   16 ar   
    17   16   17 1    
    18   16    8 ar   
    19   13   18 1    
    20   18   19 2    
    21   18   20 2    
    22   18   21 1    
    23   21   22 1    
    24   21   23 1    
    25   21   24 1    
    26    1   25 1    
    27   25   26 ar   
    28   26   27 1    
    29   26   28 ar   
    30   28   29 1    
    31   28   30 ar   
    32   30   31 ar   
    33   31   32 1    
    34   31   33 ar   
    35   33   34 1    
    36   33   25 ar   
    37   30   35 1    
@<TRIPOS>SUBSTRUCTURE
     1 ****        1 TEMP              0 ****  ****    0 ROOT 
@<TRIPOS>SET
UNITY_3DHIT     STATIC     ATOMS    <user>   **** Atoms matching 3D or FLEX Search
0
