#	Name:			7-16d
#	Creating user name:	jeff
#	Creation time:		Fri Dec 13 09:50:52 2002

#	Modifying user name:	jeff
#	Modification time:	Fri Dec 13 09:50:54 2002

@<TRIPOS>MOLECULE
7-16d
   42    44     1     0     1
SMALL
USER_CHARGES
****
From 3DB ct
@<TRIPOS>ATOM
      1 C          26.503000   22.058000   16.475000 C.ar      1 <1>         0.234700 
      2 C          25.617000   21.436000   17.392000 C.ar      1 <1>        -0.140400 
      3 C          24.160000   21.390000   17.171000 C.ar      1 <1>         0.197700 
      4 C          23.544000   22.284000   16.279000 C.ar      1 <1>        -0.226500 
      5 H          24.140000   23.030000   15.755000 H         1 <1>         0.179200 
      6 C          22.167000   22.232000   16.046000 C.ar      1 <1>        -0.034500 
      7 H          21.716000   22.934000   15.347000 H         1 <1>         0.190900 
      8 C          21.392000   21.277000   16.706000 C.ar      1 <1>        -0.501300 
      9 C          21.979000   20.392000   17.612000 C.ar      1 <1>        -0.067300 
     10 H          21.383000   19.649000   18.139000 H         1 <1>         0.192300 
     11 C          23.358000   20.451000   17.841000 C.ar      1 <1>        -0.196300 
     12 H          23.808000   19.747000   18.541000 H         1 <1>         0.167100 
     13 S          19.639000   21.222000   16.410000 S.o2      1 <1>         2.193900 
     14 O          19.241000   22.513000   15.857000 O.2       1 <1>        -0.974700 
     15 O          18.988000   20.759000   17.631000 O.2       1 <1>        -0.976200 
     16 C          19.463000   19.976000   15.159000 C.3       1 <1>        -0.729400 
     17 H          18.401000   19.881000   14.922000 H         1 <1>         0.236200 
     18 H          19.843000   19.028000   15.545000 H         1 <1>         0.192800 
     19 H          20.015000   20.283000   14.269000 H         1 <1>         0.190000 
     20 C          26.147000   20.863000   18.565000 C.ar      1 <1>        -0.127700 
     21 H          25.484000   20.381000   19.284000 H         1 <1>         0.154600 
     22 C          27.514000   20.912000   18.841000 C.ar      1 <1>        -0.161400 
     23 H          27.902000   20.465000   19.755000 H         1 <1>         0.158200 
     24 C          28.379000   21.534000   17.949000 C.ar      1 <1>        -0.106500 
     25 H          29.446000   21.577000   18.162000 H         1 <1>         0.151400 
     26 C          27.879000   22.101000   16.777000 C.ar      1 <1>        -0.261600 
     27 H          28.575000   22.577000   16.086000 H         1 <1>         0.188800 
     28 C          26.039000   22.653000   15.210000 C.ar      1 <1>        -0.276700 
     29 C          26.255000   24.009000   14.932000 C.ar      1 <1>        -0.230700 
     30 H          26.768000   24.645000   15.650000 H         1 <1>         0.224700 
     31 C          25.803000   24.572000   13.738000 C.ar      1 <1>         0.330600 
     32 C          25.135000   23.802000   12.784000 C.ar      1 <1>         0.282200 
     33 C          24.921000   22.448000   13.054000 C.ar      1 <1>        -0.406700 
     34 H          24.401000   21.821000   12.331000 H         1 <1>         0.223300 
     35 C          25.369000   21.878000   14.252000 C.ar      1 <1>         0.074000 
     36 H          25.188000   20.819000   14.432000 H         1 <1>         0.123500 
     37 O          24.645000   24.217000   11.575000 O.3       1 <1>        -0.372900 
     38 C          24.854000   25.583000   11.225000 C.3       1 <1>         0.031800 
     39 H          24.432000   25.737000   10.227000 H         1 <1>         0.085900 
     40 H          25.921000   25.818000   11.173000 H         1 <1>         0.075100 
     41 H          24.326000   26.249000   11.915000 H         1 <1>         0.074400 
     42 F          26.036000   25.879000   13.544000 F         1 <1>        -0.362500 
@<TRIPOS>BOND
     1    1    2 ar   
     2    2    3 1    
     3    3    4 ar   
     4    4    5 1    
     5    4    6 ar   
     6    6    7 1    
     7    6    8 ar   
     8    8    9 ar   
     9    9   10 1    
    10    9   11 ar   
    11   11   12 1    
    12   11    3 ar   
    13    8   13 1    
    14   13   14 2    
    15   13   15 2    
    16   13   16 1    
    17   16   17 1    
    18   16   18 1    
    19   16   19 1    
    20    2   20 ar   
    21   20   21 1    
    22   20   22 ar   
    23   22   23 1    
    24   22   24 ar   
    25   24   25 1    
    26   24   26 ar   
    27   26   27 1    
    28   26    1 ar   
    29    1   28 1    
    30   28   29 ar   
    31   29   30 1    
    32   29   31 ar   
    33   31   32 ar   
    34   32   33 ar   
    35   33   34 1    
    36   33   35 ar   
    37   35   36 1    
    38   35   28 ar   
    39   32   37 1    
    40   37   38 1    
    41   38   39 1    
    42   38   40 1    
    43   38   41 1    
    44   31   42 1    
@<TRIPOS>SUBSTRUCTURE
     1 ****        1 TEMP              0 ****  ****    0 ROOT 
@<TRIPOS>SET
UNITY_3DHIT     STATIC     ATOMS    <user>   **** Atoms matching 3D or FLEX Search
0
