#	Name:			7-16a
#	Creating user name:	jeff
#	Creation time:		Fri Dec 13 09:50:45 2002

#	Modifying user name:	jeff
#	Modification time:	Fri Dec 13 09:50:47 2002

@<TRIPOS>MOLECULE
7-16a
   38    40     1     0     1
SMALL
USER_CHARGES
****
From 3DB ct
@<TRIPOS>ATOM
      1 C          26.541000   22.062000   16.408000 C.ar      1 <1>         0.117200 
      2 C          25.660000   21.440000   17.330000 C.ar      1 <1>        -0.060500 
      3 C          24.204000   21.374000   17.106000 C.ar      1 <1>         0.148400 
      4 C          23.419000   20.405000   17.750000 C.ar      1 <1>        -0.197100 
      5 H          23.886000   19.675000   18.412000 H         1 <1>         0.168800 
      6 C          22.033000   20.361000   17.567000 C.ar      1 <1>        -0.055300 
      7 H          21.450000   19.599000   18.079000 H         1 <1>         0.189200 
      8 C          21.417000   21.300000   16.735000 C.ar      1 <1>        -0.498200 
      9 C          22.181000   22.252000   16.061000 C.ar      1 <1>        -0.046000 
     10 H          21.717000   22.976000   15.395000 H         1 <1>         0.192400 
     11 C          23.566000   22.288000   16.248000 C.ar      1 <1>        -0.192700 
     12 H          24.149000   23.047000   15.730000 H         1 <1>         0.162500 
     13 S          19.651000   21.255000   16.523000 S.o2      1 <1>         2.189600 
     14 O          19.229000   22.567000   16.041000 O.2       1 <1>        -0.974700 
     15 O          19.063000   20.750000   17.761000 O.2       1 <1>        -0.975400 
     16 C          19.397000   20.053000   15.245000 C.3       1 <1>        -0.720900 
     17 H          18.320000   19.933000   15.098000 H         1 <1>         0.235700 
     18 H          19.831000   19.102000   15.557000 H         1 <1>         0.188700 
     19 H          19.860000   20.399000   14.319000 H         1 <1>         0.188100 
     20 C          26.196000   20.874000   18.503000 C.ar      1 <1>        -0.160400 
     21 H          25.536000   20.391000   19.223000 H         1 <1>         0.161700 
     22 C          27.564000   20.924000   18.770000 C.ar      1 <1>        -0.150100 
     23 H          27.955000   20.479000   19.684000 H         1 <1>         0.157000 
     24 C          28.425000   21.543000   17.872000 C.ar      1 <1>        -0.114600 
     25 H          29.492000   21.584000   18.078000 H         1 <1>         0.152500 
     26 C          27.918000   22.109000   16.703000 C.ar      1 <1>        -0.225900 
     27 H          28.610000   22.587000   16.008000 H         1 <1>         0.172100 
     28 C          26.063000   22.654000   15.146000 C.ar      1 <1>        -0.144200 
     29 C          26.286000   24.014000   14.862000 C.ar      1 <1>        -0.021900 
     30 H          26.827000   24.640000   15.569000 H         1 <1>         0.154600 
     31 C          25.802000   24.583000   13.680000 C.ar      1 <1>        -0.422700 
     32 H          25.965000   25.637000   13.472000 H         1 <1>         0.233000 
     33 C          25.098000   23.796000   12.778000 C.ar      1 <1>         0.584800 
     34 C          24.876000   22.448000   13.029000 C.ar      1 <1>        -0.423900 
     35 H          24.319000   21.846000   12.316000 H         1 <1>         0.230200 
     36 C          25.363000   21.877000   14.207000 C.ar      1 <1>        -0.012900 
     37 H          25.184000   20.819000   14.397000 H         1 <1>         0.140200 
     38 F          24.632000   24.342000   11.646000 F         1 <1>        -0.369100 
@<TRIPOS>BOND
     1    1    2 ar   
     2    2    3 1    
     3    3    4 ar   
     4    4    5 1    
     5    4    6 ar   
     6    6    7 1    
     7    6    8 ar   
     8    8    9 ar   
     9    9   10 1    
    10    9   11 ar   
    11   11   12 1    
    12   11    3 ar   
    13    8   13 1    
    14   13   14 2    
    15   13   15 2    
    16   13   16 1    
    17   16   17 1    
    18   16   18 1    
    19   16   19 1    
    20    2   20 ar   
    21   20   21 1    
    22   20   22 ar   
    23   22   23 1    
    24   22   24 ar   
    25   24   25 1    
    26   24   26 ar   
    27   26   27 1    
    28   26    1 ar   
    29    1   28 1    
    30   28   29 ar   
    31   29   30 1    
    32   29   31 ar   
    33   31   32 1    
    34   31   33 ar   
    35   33   34 ar   
    36   34   35 1    
    37   34   36 ar   
    38   36   37 1    
    39   36   28 ar   
    40   33   38 1    
@<TRIPOS>SUBSTRUCTURE
     1 ****        1 TEMP              0 ****  ****    0 ROOT 
@<TRIPOS>SET
UNITY_3DHIT     STATIC     ATOMS    <user>   **** Atoms matching 3D or FLEX Search
0
