#	Name:			7-17d
#	Creating user name:	jeff
#	Creation time:		Fri Dec 13 09:51:03 2002

#	Modifying user name:	jeff
#	Modification time:	Fri Dec 13 09:51:05 2002

@<TRIPOS>MOLECULE
7-17d
   41    43     1     0     1
SMALL
USER_CHARGES
****
From 3DB ct
@<TRIPOS>ATOM
      1 C          26.504000   22.053000   16.472000 C.ar      1 <1>         0.326700 
      2 C          25.613000   21.449000   17.394000 C.ar      1 <1>        -0.237500 
      3 C          24.162000   21.389000   17.159000 C.ar      1 <1>         0.245300 
      4 C          23.542000   22.291000   16.278000 C.ar      1 <1>        -0.237700 
      5 H          24.135000   23.046000   15.762000 H         1 <1>         0.174000 
      6 C          22.164000   22.236000   16.049000 C.ar      1 <1>         0.032900 
      7 H          21.703000   22.942000   15.362000 H         1 <1>         0.176200 
      8 C          21.394000   21.270000   16.702000 C.ar      1 <1>        -0.559700 
      9 C          21.989000   20.371000   17.590000 C.ar      1 <1>        -0.051300 
     10 H          21.396000   19.620000   18.108000 H         1 <1>         0.193200 
     11 C          23.368000   20.433000   17.815000 C.ar      1 <1>        -0.177700 
     12 H          23.824000   19.725000   18.505000 H         1 <1>         0.156600 
     13 S          19.645000   21.226000   16.426000 S.o2      1 <1>         2.442700 
     14 O          19.227000   22.496000   15.859000 O.2       1 <1>        -0.996500 
     15 O          18.980000   20.689000   17.600000 O.2       1 <1>        -0.998300 
     16 N          19.505000   20.070000   15.222000 N.pl3     1 <1>        -1.305200 
     17 H          19.110000   20.472000   14.368000 H         1 <1>         0.482300 
     18 H          18.960000   19.267000   15.543000 H         1 <1>         0.484600 
     19 C          26.132000   20.892000   18.578000 C.ar      1 <1>        -0.064900 
     20 H          25.463000   20.423000   19.299000 H         1 <1>         0.134300 
     21 C          27.500000   20.930000   18.855000 C.ar      1 <1>        -0.197400 
     22 H          27.880000   20.494000   19.777000 H         1 <1>         0.162600 
     23 C          28.373000   21.526000   17.952000 C.ar      1 <1>        -0.072900 
     24 H          29.440000   21.558000   18.165000 H         1 <1>         0.146500 
     25 C          27.880000   22.082000   16.771000 C.ar      1 <1>        -0.303600 
     26 H          28.581000   22.543000   16.075000 H         1 <1>         0.195000 
     27 C          26.040000   22.651000   15.211000 C.ar      1 <1>        -0.340300 
     28 C          26.258000   24.007000   14.936000 C.ar      1 <1>        -0.207200 
     29 H          26.778000   24.639000   15.652000 H         1 <1>         0.216400 
     30 C          25.805000   24.572000   13.743000 C.ar      1 <1>         0.334200 
     31 C          25.129000   23.805000   12.792000 C.ar      1 <1>         0.277800 
     32 C          24.919000   22.449000   13.058000 C.ar      1 <1>        -0.388300 
     33 H          24.398000   21.825000   12.334000 H         1 <1>         0.221000 
     34 C          25.369000   21.877000   14.253000 C.ar      1 <1>         0.083400 
     35 H          25.187000   20.818000   14.434000 H         1 <1>         0.124200 
     36 O          24.631000   24.224000   11.588000 O.3       1 <1>        -0.356100 
     37 C          24.768000   25.607000   11.273000 C.3       1 <1>        -0.048000 
     38 H          24.296000   25.773000   10.299000 H         1 <1>         0.106700 
     39 H          25.822000   25.887000   11.182000 H         1 <1>         0.097200 
     40 H          24.246000   26.232000   12.005000 H         1 <1>         0.093600 
     41 F          26.046000   25.877000   13.548000 F         1 <1>        -0.364500 
@<TRIPOS>BOND
     1    1    2 ar   
     2    2    3 1    
     3    3    4 ar   
     4    4    5 1    
     5    4    6 ar   
     6    6    7 1    
     7    6    8 ar   
     8    8    9 ar   
     9    9   10 1    
    10    9   11 ar   
    11   11   12 1    
    12   11    3 ar   
    13    8   13 1    
    14   13   14 2    
    15   13   15 2    
    16   13   16 1    
    17   16   17 1    
    18   16   18 1    
    19    2   19 ar   
    20   19   20 1    
    21   19   21 ar   
    22   21   22 1    
    23   21   23 ar   
    24   23   24 1    
    25   23   25 ar   
    26   25   26 1    
    27   25    1 ar   
    28    1   27 1    
    29   27   28 ar   
    30   28   29 1    
    31   28   30 ar   
    32   30   31 ar   
    33   31   32 ar   
    34   32   33 1    
    35   32   34 ar   
    36   34   35 1    
    37   34   27 ar   
    38   31   36 1    
    39   36   37 1    
    40   37   38 1    
    41   37   39 1    
    42   37   40 1    
    43   30   41 1    
@<TRIPOS>SUBSTRUCTURE
     1 ****        1 TEMP              0 ****  ****    0 ROOT 
@<TRIPOS>SET
UNITY_3DHIT     STATIC     ATOMS    <user>   **** Atoms matching 3D or FLEX Search
0
